@<TRIPOS>MOLECULE
3ufh_HEC_A_10.pdb
 43 50 0 0 0
SMALL
GASTEIGER

@<TRIPOS>ATOM
      1 FE        -36.9630   45.7860  -43.3820 Fe    910  HEC910      0.0000
      2  CHA      -38.2530   43.5290  -45.7650 C.2   910  HEC910      0.0000
      3  CHB      -38.0670   48.3380  -45.2640 C.2   910  HEC910      0.0000
      4  CHC      -35.9390   48.0490  -40.8810 C.2   910  HEC910      0.0000
      5  CHD      -35.5750   43.2840  -41.6420 C.2   910  HEC910      0.0000
      6  NA       -38.0440   45.8960  -45.1940 N.ar  910  HEC910      0.0000
      7  C1A      -38.3000   44.8820  -46.0890 C.ar  910  HEC910      0.0000
      8  C2A      -38.6260   45.4940  -47.3810 C.ar  910  HEC910      0.0000
      9  C3A      -38.5560   46.8270  -47.2200 C.ar  910  HEC910      0.0000
     10  C4A      -38.1940   47.1050  -45.8400 C.ar  910  HEC910      0.0000
     11  CMA      -38.8150   47.8800  -48.3110 C.3   910  HEC910      0.0000
     12  CAA      -38.9820   44.7530  -48.6980 C.3   910  HEC910      0.0000
     13  CBA      -37.8240   44.7840  -49.6960 C.3   910  HEC910      0.0000
     14  CGA      -36.6230   44.0510  -49.1320 C.2   910  HEC910      0.0000
     15  O1A      -35.6140   44.7510  -48.8350 O.co2 910  HEC910      0.0000
     16  O2A      -36.6570   42.7840  -49.0150 O.co2 910  HEC910      0.0000
     17  NB       -36.9300   47.7880  -43.1160 N.2   910  HEC910      0.0000
     18  C1B      -37.5330   48.6520  -44.0190 C.2   910  HEC910      0.0000
     19  C2B      -37.4700   49.9960  -43.4860 C.2   910  HEC910      0.0000
     20  C3B      -36.9070   49.9420  -42.2690 C.2   910  HEC910      0.0000
     21  C4B      -36.5550   48.5410  -42.0220 C.2   910  HEC910      0.0000
     22  CMB      -38.0120   51.2400  -44.2380 C.3   910  HEC910      0.0000
     23  CAB      -36.5450   51.1000  -41.3010 C.3   910  HEC910      0.0000
     24  CBB      -37.7500   51.9360  -40.8340 C.3   910  HEC910      0.0000
     25  NC       -35.9310   45.7130  -41.5940 N.ar  910  HEC910      0.0000
     26  C1C      -35.6500   46.7240  -40.7060 C.ar  910  HEC910      0.0000
     27  C2C      -34.9510   46.1500  -39.5830 C.ar  910  HEC910      0.0000
     28  C3C      -34.8870   44.8220  -39.7560 C.ar  910  HEC910      0.0000
     29  C4C      -35.4980   44.5220  -41.0430 C.ar  910  HEC910      0.0000
     30  CMC      -34.4500   46.9950  -38.4070 C.3   910  HEC910      0.0000
     31  CAC      -34.2650   43.7600  -38.7980 C.3   910  HEC910      0.0000
     32  CBC      -34.7900   43.9230  -37.3470 C.3   910  HEC910      0.0000
     33  ND       -36.9810   43.7180  -43.6560 N.2   910  HEC910      0.0000
     34  C1D      -36.2550   42.9050  -42.7910 C.2   910  HEC910      0.0000
     35  C2D      -36.3970   41.5310  -43.2450 C.2   910  HEC910      0.0000
     36  C3D      -37.2460   41.5900  -44.5110 C.2   910  HEC910      0.0000
     37  C4D      -37.5510   42.9870  -44.6980 C.2   910  HEC910      0.0000
     38  CMD      -35.8040   40.2730  -42.6030 C.3   910  HEC910      0.0000
     39  CAD      -37.6660   40.3960  -45.3810 C.3   910  HEC910      0.0000
     40  CBD      -36.7180   40.3050  -46.5700 C.3   910  HEC910      0.0000
     41  CGD      -37.1130   39.0730  -47.3280 C.2   910  HEC910      0.0000
     42  O1D      -38.1430   38.4220  -46.9750 O.co2 910  HEC910      0.0000
     43  O2D      -36.3240   38.6710  -48.2080 O.co2 910  HEC910      0.0000
@<TRIPOS>BOND
     1    13    14    1
     2    13    12    1
     3    14    16   ar
     4    14    15   ar
     5    12     8    1
     6    11     9    1
     7    43    41   ar
     8     8     9   ar
     9     8     7   ar
    10    41    42   ar
    11    41    40    1
    12     9    10   ar
    13    40    39    1
    14     7     2    2
    15     7     6   ar
    16    10     3    2
    17    10     6   ar
    18     2    37    1
    19    39    36    1
    20     3    18    1
    21     6     1    1
    22    37    36    1
    23    37    33    2
    24    36    35    2
    25    22    19    1
    26    18    19    1
    27    18    17    2
    28    33     1    1
    29    33    34    1
    30    19    20    2
    31     1    17    1
    32     1    25    1
    33    35    34    1
    34    35    38    1
    35    17    21    1
    36    34     5    2
    37    20    21    1
    38    20    23    1
    39    21     4    2
    40     5    29    1
    41    25    29   ar
    42    25    26   ar
    43    23    24    1
    44    29    28   ar
    45     4    26    1
    46    26    27   ar
    47    28    27   ar
    48    28    31    1
    49    27    30    1
    50    31    32    1
