@<TRIPOS>MOLECULE
3ufh_FLC_A_1.pdb
 13 12 0 0 0
SMALL
GASTEIGER

@<TRIPOS>ATOM
      1  CAC      -25.2420   15.7900    0.0000 C.2   919  FLC919      0.3680
      2  CA       -24.3480   14.6720   -0.5510 C.3   919  FLC919      0.1560
      3  CB       -23.3660   13.9960    0.4340 C.3   919  FLC919      0.2402
      4  CBC      -22.3400   14.9600    0.9800 C.2   919  FLC919      0.3927
      5  CG       -22.6220   12.8340   -0.2470 C.3   919  FLC919      0.1560
      6  CGC      -21.5750   12.0850    0.5900 C.2   919  FLC919      0.3680
      7  OA1      -25.5330   15.9010    1.2290 O.co2 919  FLC919     -0.2455
      8  OA2      -25.7110   16.6030   -0.8350 O.co2 919  FLC919     -0.2455
      9  OB1      -22.1540   15.1030    2.2080 O.co2 919  FLC919     -0.2429
     10  OB2      -21.7050   15.6410    0.1590 O.co2 919  FLC919     -0.2429
     11  OG1      -21.9340   11.3490    1.5420 O.co2 919  FLC919     -0.2455
     12  OG2      -20.3760   12.0620    0.2010 O.co2 919  FLC919     -0.2455
     13  OHB      -24.1790   13.4940    1.4820 O.3   919  FLC919     -0.2129
@<TRIPOS>BOND
     1     8     1   ar
     2     2     1    1
     3     2     3    1
     4     5     3    1
     5     5     6    1
     6     1     7   ar
     7    10     4   ar
     8    12     6   ar
     9     3     4    1
    10     3    13    1
    11     6    11   ar
    12     4     9   ar
