@<TRIPOS>MOLECULE
3ufk_HEC_A_10.pdb
 43 50 0 0 0
SMALL
GASTEIGER

@<TRIPOS>ATOM
      1 FE          8.2390    1.7390   29.8120 Fe    910  HEC910      0.0000
      2  CHA        9.0740   -0.1770   32.5580 C.2   910  HEC910      0.0000
      3  CHB        5.5000   -0.2070   29.2870 C.2   910  HEC910      0.0000
      4  CHC        7.3860    3.7570   27.1710 C.2   910  HEC910      0.0000
      5  CHD       11.1790    3.5970   30.1880 C.2   910  HEC910      0.0000
      6  NA         7.4300    0.0540   30.7490 N.ar  910  HEC910      0.0000
      7  C1A        7.9550   -0.5860   31.8500 C.ar  910  HEC910      0.0000
      8  C2A        7.0400   -1.6710   32.1940 C.ar  910  HEC910      0.0000
      9  C3A        6.0490   -1.6660   31.2950 C.ar  910  HEC910      0.0000
     10  C4A        6.2880   -0.5800   30.3570 C.ar  910  HEC910      0.0000
     11  CMA        4.8590   -2.6330   31.2360 C.3   910  HEC910      0.0000
     12  CAA        7.1940   -2.6240   33.4070 C.3   910  HEC910      0.0000
     13  CBA        7.3710   -4.0540   32.9240 C.3   910  HEC910      0.0000
     14  CGA        8.7810   -4.1990   32.4440 C.2   910  HEC910      0.0000
     15  O1A        8.9780   -4.8220   31.3710 O.co2 910  HEC910      0.0000
     16  O2A        9.6960   -3.6790   33.1350 O.co2 910  HEC910      0.0000
     17  NB         6.7160    1.8040   28.5070 N.2   910  HEC910      0.0000
     18  C1B        5.7180    0.8330   28.4110 C.2   910  HEC910      0.0000
     19  C2B        4.8500    1.1870   27.3110 C.2   910  HEC910      0.0000
     20  C3B        5.3650    2.2680   26.6960 C.2   910  HEC910      0.0000
     21  C4B        6.5530    2.6820   27.4460 C.2   910  HEC910      0.0000
     22  CMB        3.6330    0.3640   26.8600 C.3   910  HEC910      0.0000
     23  CAB        4.7660    2.9480   25.4380 C.3   910  HEC910      0.0000
     24  CBB        3.3740    3.5770   25.6970 C.3   910  HEC910      0.0000
     25  NC         9.1180    3.4260   28.8780 N.ar  910  HEC910      0.0000
     26  C1C        8.5450    4.0950   27.8190 C.ar  910  HEC910      0.0000
     27  C2C        9.4300    5.1840   27.4560 C.ar  910  HEC910      0.0000
     28  C3C       10.4460    5.2080   28.3320 C.ar  910  HEC910      0.0000
     29  C4C       10.3010    4.0330   29.1950 C.ar  910  HEC910      0.0000
     30  CMC        9.0410    6.2190   26.3870 C.3   910  HEC910      0.0000
     31  CAC       11.6790    6.1550   28.3620 C.3   910  HEC910      0.0000
     32  CBC       11.2990    7.6490   28.4390 C.3   910  HEC910      0.0000
     33  ND         9.8520    1.7210   31.1390 N.2   910  HEC910      0.0000
     34  C1D       10.9790    2.5450   31.0550 C.2   910  HEC910      0.0000
     35  C2D       11.9020    2.2020   32.1180 C.2   910  HEC910      0.0000
     36  C3D       11.2600    1.0310   32.8510 C.2   910  HEC910      0.0000
     37  C4D        9.9720    0.8240   32.2130 C.2   910  HEC910      0.0000
     38  CMD       13.2870    2.7900   32.3910 C.3   910  HEC910      0.0000
     39  CAD       11.8620    0.3070   34.0780 C.3   910  HEC910      0.0000
     40  CBD       11.1790    0.9570   35.2690 C.3   910  HEC910      0.0000
     41  CGD       11.5500    0.2210   36.5350 C.2   910  HEC910      0.0000
     42  O1D       10.6500    0.1490   37.4120 O.co2 910  HEC910      0.0000
     43  O2D       12.7410   -0.2040   36.6900 O.co2 910  HEC910      0.0000
@<TRIPOS>BOND
     1    23    24    1
     2    23    20    1
     3    30    27    1
     4    20    19    2
     5    20    21    1
     6    22    19    1
     7     4    21    2
     8     4    26    1
     9    19    18    1
    10    21    17    1
    11    27    26   ar
    12    27    28   ar
    13    26    25   ar
    14    28    31    1
    15    28    29   ar
    16    31    32    1
    17    18    17    2
    18    18     3    1
    19    17     1    1
    20    25    29   ar
    21    25     1    1
    22    29     5    1
    23     3    10    2
    24     1     6    1
    25     1    33    1
    26     5    34    2
    27    10     6   ar
    28    10     9   ar
    29     6     7   ar
    30    34    33    1
    31    34    35    1
    32    33    37    2
    33    11     9    1
    34     9     8   ar
    35    15    14   ar
    36     7     8   ar
    37     7     2    2
    38    35    38    1
    39    35    36    2
    40     8    12    1
    41    37     2    1
    42    37    36    1
    43    14    13    1
    44    14    16   ar
    45    36    39    1
    46    13    12    1
    47    39    40    1
    48    40    41    1
    49    41    43   ar
    50    41    42   ar
