@<TRIPOS>MOLECULE
3ufk_NTA_A_1.pdb
 13 12 0 0 0
SMALL
GASTEIGER

@<TRIPOS>ATOM
      1  N1        17.4450    7.4190   -0.9700 N.3   918  NTA918     -0.2440
      2  C6        18.8080    6.9130   -1.1830 C.3   918  NTA918      0.1886
      3  C10       16.7430    8.0240   -2.1130 C.3   918  NTA918      0.1886
      4  C2        16.7770    7.2050    0.3370 C.3   918  NTA918      0.1886
      5  C7        19.4480    7.4250   -2.4720 C.2   918  NTA918      0.3809
      6  O8        19.9480    8.5800   -2.5280 O.co2 918  NTA918     -0.2441
      7  O9        19.5090    6.6470   -3.4490 O.co2 918  NTA918     -0.2441
      8  C3        17.5210    7.8780    1.4860 C.2   918  NTA918      0.3809
      9  C11       16.3400    9.4750   -1.9080 C.2   918  NTA918      0.3809
     10  O12       17.0700   10.4100   -2.3270 O.co2 918  NTA918     -0.2441
     11  O13       15.2110    9.6920   -1.4160 O.co2 918  NTA918     -0.2441
     12  O4        17.6370    7.3600    2.6530 O.co2 918  NTA918     -0.2441
     13  O5        18.0490    8.9610    1.1710 O.co2 918  NTA918     -0.2441
@<TRIPOS>BOND
     1     7     5   ar
     2     6     5   ar
     3     5     2    1
     4    10     9   ar
     5     3     9    1
     6     3     1    1
     7     9    11   ar
     8     2     1    1
     9     1     4    1
    10     4     8    1
    11    13     8   ar
    12     8    12   ar
