@<TRIPOS>MOLECULE
3ufl_508_A_1.pdb
 34 39 0 0 0
SMALL
GASTEIGER

@<TRIPOS>ATOM
      1  C         30.8330   38.7490    2.3120 C.3   449  508449      0.0442
      2  C1        30.6730   39.1810    3.7760 C.3   449  508449      0.0932
      3  N         30.1720   38.0200    4.5650 N.3   449  508449     -0.2172
      4  C2        30.1630   36.8240    3.6840 C.3   449  508449      0.0981
      5  C3        31.0160   37.2280    2.4800 C.3   449  508449      0.0991
      6  C4        30.6680   36.3700    1.2810 C.2   449  508449      0.2271
      7  O         29.4880   36.2200    0.9890 O.2   449  508449     -0.2748
      8  N5        31.6700   35.8030    0.5710 N.am  449  508449     -0.2774
      9  C6        33.1090   35.9080    0.8770 C.3   449  508449      0.0940
     10  C7        33.7710   36.7900   -0.1880 C.3   449  508449      0.0259
     11  C8        32.8790   36.8450   -1.4350 C.3   449  508449      0.0260
     12  C9        32.2710   35.4670   -1.7630 C.3   449  508449      0.0288
     13  C10       31.3720   34.9710   -0.6110 C.3   449  508449      0.0981
     14  C11       33.5450   37.5440   -2.6020 C.ar  449  508449     -0.0224
     15  C12       33.1950   38.8730   -2.8840 C.ar  449  508449     -0.0043
     16  C13       33.7740   39.5690   -3.9500 C.ar  449  508449     -0.0003
     17  C14       34.7220   38.9270   -4.7490 C.ar  449  508449     -0.0000
     18  C15       35.0820   37.6050   -4.4710 C.ar  449  508449     -0.0003
     19  C16       34.5020   36.9180   -3.4070 C.ar  449  508449     -0.0043
     20  C17       29.5200   39.1210    1.5790 C.3   449  508449      0.0063
     21  C18       29.4720   40.4950    0.8990 C.3   449  508449      0.0050
     22  C19       30.5950   40.5570   -0.1380 C.3   449  508449      0.0260
     23  C20       31.9310   40.3460    0.5290 C.ar  449  508449     -0.0261
     24  C21       32.0570   39.4610    1.7340 C.ar  449  508449     -0.0249
     25  C22       32.9780   40.9790    0.0140 C.ar  449  508449     -0.0046
     26  C23       34.3310   40.8290    0.6190 C.ar  449  508449     -0.0003
     27  C24       34.4620   40.0510    1.6840 C.ar  449  508449     -0.0003
     28  C25       33.2770   39.3470    2.2560 C.ar  449  508449     -0.0045
     29  C26       31.2010   33.4810   -0.3330 C.ar  449  508449     -0.0043
     30  C27       30.7800   33.0840    0.9470 C.ar  449  508449     -0.0027
     31  C28       30.5970   31.7430    1.2880 C.ar  449  508449     -0.0003
     32  C29       30.8380   30.7560    0.3350 C.ar  449  508449     -0.0000
     33  C30       31.2550   31.1190   -0.9470 C.ar  449  508449     -0.0003
     34  C31       31.4280   32.4700   -1.2760 C.ar  449  508449     -0.0027
@<TRIPOS>BOND
     1    17    18   ar
     2    17    16   ar
     3    18    19   ar
     4    16    15   ar
     5    19    14   ar
     6    15    14   ar
     7    14    11    1
     8    12    11    1
     9    12    13    1
    10    11    10    1
    11    34    33   ar
    12    34    29   ar
    13    33    32   ar
    14    13    29    1
    15    13     8    1
    16    29    30   ar
    17    10     9    1
    18    22    23    1
    19    22    21    1
    20    25    23   ar
    21    25    26   ar
    22    32    31   ar
    23    23    24   ar
    24     8     9    1
    25     8     6   am
    26    26    27   ar
    27    21    20    1
    28    30    31   ar
    29     7     6    2
    30     6     5    1
    31    20     1    1
    32    27    28   ar
    33    24    28   ar
    34    24     1    1
    35     1     5    1
    36     1     2    1
    37     5     4    1
    38     4     3    1
    39     2     3    1
