@<TRIPOS>MOLECULE
3ufm_III_B_1.pdb
 35 36 0 0 0
SMALL
GASTEIGER

@<TRIPOS>ATOM
      1  N        -15.5800   -4.3580   12.5330 N.3   298  ASP298     -0.1225
      2  CA       -15.5160   -4.0980   14.0050 C.3   298  ASP298      0.1805
      3  C        -16.0730   -2.7120   14.4350 C.2   298  ASP298      0.2598
      4  O        -16.9700   -2.6370   15.2950 O.2   298  ASP298     -0.2718
      5  CB       -14.0900   -4.3400   14.5470 C.3   298  ASP298      0.1424
      6  CG       -13.0010   -3.6470   13.7150 C.2   298  ASP298      0.3668
      7  OD1      -11.8060   -3.8260   14.0360 O.co2 298  ASP298     -0.2456
      8  OD2      -13.3260   -2.9250   12.7450 O.co2 298  ASP298     -0.2456
      9  N        -15.5560   -1.6290   13.8490 N.am  299  LEU299     -0.1966
     10  CA       -15.9850   -0.2730   14.2390 C.3   299  LEU299      0.1713
     11  C        -17.4830   -0.0010   14.0100 C.2   299  LEU299      0.2458
     12  O        -18.0650   -0.4690   13.0210 O.2   299  LEU299     -0.2730
     13  CB       -15.1140    0.7990   13.5820 C.3   299  LEU299      0.0310
     14  CG       -13.6720    0.9500   14.0890 C.3   299  LEU299      0.0022
     15  CD1      -13.0270    2.1830   13.4830 C.3   299  LEU299      0.0001
     16  CD2      -13.5860    1.0050   15.6120 C.3   299  LEU299      0.0001
     17  N        -18.1220    0.7420   14.9390 N.am  300  PRO300     -0.2716
     18  CA       -19.5510    1.0630   14.7920 C.3   300  PRO300      0.1536
     19  C        -19.7770    2.4070   14.0350 C.2   300  PRO300      0.2599
     20  O        -20.8680    2.9880   14.0920 O.2   300  PRO300     -0.2715
     21  CB       -20.0290    1.1280   16.2460 C.3   300  PRO300      0.0310
     22  CG       -18.8200    1.6610   16.9990 C.3   300  PRO300      0.0237
     23  CD       -17.5820    1.2450   16.2240 C.3   300  PRO300      0.0939
     24  N        -18.7370    2.8580   13.3370 N.am  301  PHE301     -0.1938
     25  CA       -18.7330    4.0760   12.5100 C.3   301  PHE301      0.2021
     26  C        -17.5840    3.9780   11.4990 C.2   301  PHE301      0.3845
     27  O        -17.2290    4.9130   10.7570 O.co2 301  PHE301     -0.2437
     28  CB       -18.6120    5.3470   13.3780 C.3   301  PHE301      0.0596
     29  CG       -17.5410    5.2710   14.4570 C.ar  301  PHE301     -0.0199
     30  CD1      -17.8710    5.4930   15.7870 C.ar  301  PHE301     -0.0042
     31  CD2      -16.2080    4.9970   14.1390 C.ar  301  PHE301     -0.0042
     32  CE1      -16.9010    5.4330   16.7910 C.ar  301  PHE301     -0.0003
     33  CE2      -15.2310    4.9570   15.1340 C.ar  301  PHE301     -0.0003
     34  CZ       -15.5780    5.1780   16.4640 C.ar  301  PHE301     -0.0000
     35  OXT      -16.9470    2.9150   11.4250 O.co2 301  PHE301     -0.2437
@<TRIPOS>BOND
     1    27    26   ar
     2    35    26   ar
     3    26    25    1
     4    25    24    1
     5    25    28    1
     6     1     2    1
     7     8     6   ar
     8    12    11    2
     9    24    19   am
    10    28    29    1
    11    15    14    1
    12    13    14    1
    13    13    10    1
    14     6     7   ar
    15     6     5    1
    16     9    10    1
    17     9     3   am
    18     2     3    1
    19     2     5    1
    20    11    10    1
    21    11    17   am
    22    19    20    2
    23    19    18    1
    24    14    16    1
    25    31    29   ar
    26    31    33   ar
    27     3     4    2
    28    29    30   ar
    29    18    17    1
    30    18    21    1
    31    17    23    1
    32    33    34   ar
    33    30    32   ar
    34    23    22    1
    35    21    22    1
    36    34    32   ar
