@<TRIPOS>MOLECULE
3ufn_ROC_A_1.pdb
 49 53 0 0 0
SMALL
GASTEIGER

@<TRIPOS>ATOM
      1  C          8.5010   -7.5700   -4.9420 C.2   401  ROC401      0.2949
      2  O          8.5620   -6.3720   -4.5520 O.2   401  ROC401     -0.2655
      3  N1         7.2310   -9.5690   -5.4170 N.2   401  ROC401     -0.4009
      4  C2         7.2150   -8.2640   -5.0610 C.2   401  ROC401      0.1854
      5  C3         5.9940   -7.5800   -4.9740 C.2   401  ROC401      0.0330
      6  C4         4.7970   -8.2490   -5.2290 C.2   401  ROC401     -0.0123
      7  C5         3.6810  -10.2960   -5.9460 C.2   401  ROC401     -0.0150
      8  C6         3.8050  -11.6370   -6.2720 C.2   401  ROC401     -0.0038
      9  C7         5.0480  -12.2630   -6.2580 C.2   401  ROC401      0.0020
     10  C8         6.2900  -11.7280   -6.0840 C.2   401  ROC401      0.0282
     11  C4A        4.8460   -9.5830   -5.6430 C.3   401  ROC401      0.0963
     12  C8A        6.0890  -10.2380   -5.7260 C.2   401  ROC401      0.1169
     13  N          9.5790   -8.2710   -5.2690 N.am  401  ROC401     -0.1913
     14  CA        10.9420   -7.7290   -5.2400 C.3   401  ROC401      0.1823
     15  C1        11.6490   -8.0520   -6.5690 C.2   401  ROC401      0.2618
     16  O1        12.1740   -9.1480   -6.7580 O.2   401  ROC401     -0.2715
     17  CB        11.7490   -8.3230   -4.1000 C.3   401  ROC401      0.1195
     18  CG        11.0590   -7.9730   -2.8290 C.2   401  ROC401      0.2630
     19  OD1       11.1860   -6.8530   -2.3130 O.2   401  ROC401     -0.2716
     20  ND2       10.2760   -8.8230   -2.2250 N.am  401  ROC401     -0.0877
     21  C9        13.3210   -6.1370   -8.9430 C.3   401  ROC401      0.1879
     22  O2        12.8190   -4.8150   -8.9280 O.3   401  ROC401     -0.2198
     23  CA1       12.1650   -7.1400   -8.7740 C.3   401  ROC401      0.1313
     24  N2        11.6340   -7.0050   -7.4260 N.am  401  ROC401     -0.2027
     25  CB1       11.0440   -6.9750   -9.8040 C.3   401  ROC401      0.0506
     26  CG1        9.8480   -7.8690   -9.4720 C.ar  401  ROC401     -0.0204
     27  CD1        9.8370   -9.2060   -9.8470 C.ar  401  ROC401     -0.0042
     28  CD2        8.7440   -7.3440   -8.7930 C.ar  401  ROC401     -0.0042
     29  CE1        8.7580  -10.0060   -9.5200 C.ar  401  ROC401     -0.0003
     30  CE2        7.6580   -8.1460   -8.4850 C.ar  401  ROC401     -0.0003
     31  CZ         7.6660   -9.5000   -8.8160 C.ar  401  ROC401     -0.0000
     32  N11       15.1880   -7.3070   -9.9400 N.3   401  ROC401     -0.2643
     33  CM        14.1650   -6.3320  -10.1910 C.3   401  ROC401      0.1075
     34  C21       15.5320   -8.1090  -11.1610 C.3   401  ROC401      0.1365
     35  CC        14.3040   -8.7620  -11.8370 C.2   401  ROC401      0.2558
     36  O3        13.5040   -9.4480  -11.1580 O.2   401  ROC401     -0.2719
     37  C31       16.5030   -9.2030  -10.7240 C.3   401  ROC401      0.0254
     38  C3A       17.7320   -8.6520  -10.0480 C.3   401  ROC401      0.0032
     39  C41       18.6730   -9.7490   -9.5670 C.3   401  ROC401      0.0001
     40  C51       18.2360  -10.4160   -8.2820 C.3   401  ROC401      0.0000
     41  C61       17.9840   -9.4120   -7.1740 C.3   401  ROC401      0.0000
     42  C71       16.9110   -8.4580   -7.6430 C.3   401  ROC401      0.0014
     43  C7A       17.3890   -7.7070   -8.8730 C.3   401  ROC401      0.0161
     44  C81       16.3810   -6.6870   -9.3670 C.3   401  ROC401      0.0725
     45  N3        14.1760   -8.5560  -13.1420 N.am  401  ROC401     -0.2077
     46  CD        13.1270   -8.9930  -14.0480 C.3   401  ROC401      0.0788
     47  C11       13.3180   -8.2920  -15.3960 C.3   401  ROC401      0.0217
     48  C22       13.2470  -10.4710  -14.2980 C.3   401  ROC401      0.0217
     49  C32       11.7560   -8.7040  -13.4990 C.3   401  ROC401      0.0217
@<TRIPOS>BOND
     1    47    46    1
     2    48    46    1
     3    46    49    1
     4    46    45    1
     5    45    35   am
     6    35    34    1
     7    35    36    2
     8    34    37    1
     9    34    32    1
    10    37    38    1
    11    33    32    1
    12    33    21    1
    13    38    39    1
    14    38    43    1
    15    32    44    1
    16    27    29   ar
    17    27    26   ar
    18    25    26    1
    19    25    23    1
    20    39    40    1
    21    29    31   ar
    22    26    28   ar
    23    44    43    1
    24    21    22    1
    25    21    23    1
    26    43    42    1
    27    31    30   ar
    28    28    30   ar
    29    23    24    1
    30    40    41    1
    31    42    41    1
    32    24    15   am
    33    16    15    2
    34    15    14    1
    35     8     9    1
    36     8     7    2
    37     9    10    2
    38    10    12    1
    39     7    11    1
    40    12    11    1
    41    12     3    2
    42    11     6    1
    43     3     4    2
    44    13    14    1
    45    13     1   am
    46    14    17    1
    47     6     5    2
    48     4     5    1
    49     4     1    1
    50     1     2    2
    51    17    18    1
    52    18    19    2
    53    18    20   am
