@<TRIPOS>MOLECULE
3ufo_H4B_A_1.pdb
 17 18 0 0 0
SMALL
GASTEIGER

@<TRIPOS>ATOM
      1  N1         9.7050    2.5660   34.0880 N.2   760  H4B760     -0.2683
      2  C2         9.8140    2.1710   32.8110 C.1   760  H4B760      0.2608
      3  N2        11.0700    1.9860   32.3120 N.pl3 760  H4B760     -0.0220
      4  N3         8.7060    1.9680   32.0450 N.2   760  H4B760     -0.2474
      5  C4         7.4820    2.1180   32.5260 C.1   760  H4B760      0.2441
      6  O4         6.4810    1.8790   31.7620 O.2   760  H4B760     -0.2063
      7  C4A        7.3570    2.5430   33.8540 C.2   760  H4B760      0.2463
      8  C8A        8.5020    2.7590   34.6100 C.1   760  H4B760      0.1270
      9  N5         6.1490    2.7440   34.4430 N.2   760  H4B760     -0.2460
     10  N8         8.4530    3.1670   35.8960 N.2   760  H4B760     -0.2054
     11  C6         6.1230    3.7000   35.5440 C.3   760  H4B760      0.1627
     12  C7         7.1790    3.3610   36.5630 C.3   760  H4B760      0.1643
     13  C9         4.7720    3.6980   36.2290 C.3   760  H4B760      0.2063
     14  O9         4.5300    2.3660   36.7070 O.3   760  H4B760     -0.2183
     15  C10        4.6090    4.6930   37.3720 C.3   760  H4B760      0.1842
     16  C11        3.1210    4.7700   37.7100 C.3   760  H4B760      0.0383
     17  O10        5.0250    6.0000   36.9690 O.3   760  H4B760     -0.2204
@<TRIPOS>BOND
     1     6     5    2
     2     4     5    2
     3     4     2    2
     4     3     2    1
     5     5     7    1
     6     2     1    2
     7     7     9    2
     8     7     8    1
     9     1     8    2
    10     9    11    1
    11     8    10    2
    12    11    13    1
    13    11    12    1
    14    10    12    1
    15    13    14    1
    16    13    15    1
    17    17    15    1
    18    15    16    1
