@<TRIPOS>MOLECULE
3ufo_HW4_A_1.pdb
 27 29 0 0 0
SMALL
GASTEIGER

@<TRIPOS>ATOM
      1  F23       -1.1730    4.2390   27.3570 F     800  HW4800     -0.2042
      2  C23       -0.0260    4.7020   26.7990 C.ar  800  HW4800      0.1398
      3  C24       -0.0850    5.3460   25.5490 C.ar  800  HW4800      0.0296
      4  C25        1.0860    5.8350   24.9550 C.ar  800  HW4800      0.0020
      5  C26        2.3070    5.6800   25.6180 C.ar  800  HW4800     -0.0041
      6  C22        1.2110    4.5490   27.4610 C.ar  800  HW4800      0.0254
      7  C21        2.3820    5.0350   26.8640 C.ar  800  HW4800     -0.0200
      8  C14        3.7300    4.8870   27.5600 C.3   800  HW4800      0.0264
      9  C13        4.5400    3.6720   27.0900 C.3   800  HW4800      0.0048
     10  C12        5.6390    4.1260   26.1220 C.3   800  HW4800      0.0029
     11  C11        6.9960    3.4140   26.2620 C.3   800  HW4800      0.0321
     12  C10        7.4300    2.8520   24.9100 C.3   800  HW4800      0.1421
     13  O09        8.7100    2.2000   25.0210 O.3   800  HW4800     -0.3547
     14  C3'        8.7110    0.9190   24.3780 C.3   800  HW4800      0.1343
     15  C2'        8.3260   -0.2110   25.3450 C.3   800  HW4800      0.1182
     16  N1'        9.2890   -1.2690   25.0860 N.3   800  HW4800     -0.2154
     17  C5'       10.3210   -0.8970   24.1210 C.3   800  HW4800      0.0916
     18  C4'       10.1220    0.6030   23.8840 C.3   800  HW4800      0.0531
     19  C08       11.1680    1.4710   24.5790 C.3   800  HW4800      0.0629
     20  C06       12.4820    1.3250   23.8380 C.2   800  HW4800      0.1098
     21  N01       13.4050    0.3800   24.1830 N.2   800  HW4800     -0.3924
     22  C02       14.5630    0.3140   23.5050 C.2   800  HW4800      0.2001
     23  N02       15.4260   -0.6260   23.8880 N.pl3 800  HW4800     -0.0977
     24  C03       14.8470    1.1320   22.4130 C.3   800  HW4800      0.1001
     25  C04       13.8950    2.0760   22.0410 C.2   800  HW4800     -0.0332
     26  C05       12.7300    2.1680   22.7620 C.2   800  HW4800      0.0196
     27  C07       14.0770    3.0230   20.8730 C.3   800  HW4800      0.0269
@<TRIPOS>BOND
     1    27    25    1
     2    25    24    1
     3    25    26    2
     4    24    22    1
     5    26    20    1
     6    22    23    1
     7    22    21    2
     8    20    21    2
     9    20    19    1
    10    18    17    1
    11    18    14    1
    12    18    19    1
    13    17    16    1
    14    14    13    1
    15    14    15    1
    16    12    13    1
    17    12    11    1
    18     4     3   ar
    19     4     5   ar
    20    16    15    1
    21     3     2   ar
    22     5     7   ar
    23    10    11    1
    24    10     9    1
    25     2     1    1
    26     2     6   ar
    27     7     6   ar
    28     7     8    1
    29     9     8    1
