@<TRIPOS>MOLECULE
3ufo_HEM_A_1.pdb
 43 50 0 0 0
SMALL
GASTEIGER

@<TRIPOS>ATOM
      1  CHA       12.9310    4.8150   26.7200 C.2   750  HEM750      0.0000
      2  CHB       16.6970    1.8400   26.3900 C.2   750  HEM750      0.0000
      3  CHC       17.7330    3.4910   21.9340 C.2   750  HEM750      0.0000
      4  CHD       14.7640    7.2730   22.8760 C.2   750  HEM750      0.0000
      5  C1A       13.7470    3.7430   26.9350 C.2   750  HEM750      0.0000
      6  C2A       13.5450    2.6900   27.8990 C.2   750  HEM750      0.0000
      7  C3A       14.5740    1.8670   27.7920 C.2   750  HEM750      0.0000
      8  C4A       15.4800    2.3820   26.7720 C.2   750  HEM750      0.0000
      9  CMA       14.7420    0.5750   28.6500 C.3   750  HEM750      0.0000
     10  CAA       12.3390    2.4720   28.8560 C.3   750  HEM750      0.0000
     11  CBA       11.3900    1.5600   28.1020 C.3   750  HEM750      0.0000
     12  CGA       10.1630    1.2690   28.8940 C.2   750  HEM750      0.0000
     13  O1A       10.2940    0.7140   30.0230 O.co2 750  HEM750      0.0000
     14  O2A        9.0530    1.5580   28.3340 O.co2 750  HEM750      0.0000
     15  C1B       17.2880    1.9820   25.1440 C.ar  750  HEM750      0.0000
     16  C2B       18.3720    1.1690   24.6060 C.ar  750  HEM750      0.0000
     17  C3B       18.6520    1.6100   23.3780 C.ar  750  HEM750      0.0000
     18  C4B       17.7860    2.7320   23.0900 C.ar  750  HEM750      0.0000
     19  CMB       19.0990   -0.0360   25.2830 C.3   750  HEM750      0.0000
     20  CAB       19.7680    0.9560   22.5160 C.2   750  HEM750      0.0000
     21  CBB       20.4970    1.6050   21.6110 C.2   750  HEM750      0.0000
     22  C1C       16.9630    4.6320   21.7820 C.2   750  HEM750      0.0000
     23  C2C       16.8880    5.4270   20.5840 C.2   750  HEM750      0.0000
     24  C3C       16.0650    6.4700   20.8550 C.2   750  HEM750      0.0000
     25  C4C       15.6200    6.3870   22.2190 C.2   750  HEM750      0.0000
     26  CMC       17.6480    5.0660   19.2630 C.3   750  HEM750      0.0000
     27  CAC       15.6640    7.6290   19.9530 C.2   750  HEM750      0.0000
     28  CBC       16.4990    7.9910   18.9880 C.2   750  HEM750      0.0000
     29  C1D       13.9130    6.9620   23.9360 C.ar  750  HEM750      0.0000
     30  C2D       12.7610    7.6990   24.4040 C.ar  750  HEM750      0.0000
     31  C3D       12.2520    6.8840   25.5820 C.ar  750  HEM750      0.0000
     32  C4D       13.1190    5.7740   25.7340 C.ar  750  HEM750      0.0000
     33  CMD       12.1170    9.0260   23.8740 C.3   750  HEM750      0.0000
     34  CAD       11.0650    7.1520   26.5260 C.3   750  HEM750      0.0000
     35  CBD        9.8160    7.4580   25.7540 C.3   750  HEM750      0.0000
     36  CGD        8.8160    7.8640   26.8040 C.2   750  HEM750      0.0000
     37  O1D        8.9080    9.0310   27.3840 O.co2 750  HEM750      0.0000
     38  O2D        7.9320    6.9650   27.0230 O.co2 750  HEM750      0.0000
     39  NA        14.9680    3.5720   26.3080 N.2   750  HEM750      0.0000
     40  NB        17.0270    2.9850   24.2160 N.ar  750  HEM750      0.0000
     41  NC        16.2020    5.2670   22.7660 N.2   750  HEM750      0.0000
     42  ND        14.1290    5.8830   24.7930 N.ar  750  HEM750      0.0000
     43 FE         15.6490    4.4960   24.5510 Fe    750  HEM750      0.0000
@<TRIPOS>BOND
     1    28    27    2
     2    26    23    1
     3    27    24    1
     4    23    24    2
     5    23    22    1
     6    24    25    1
     7    21    20    2
     8    22     3    2
     9    22    41    1
    10     3    18    1
    11    25    41    2
    12    25     4    1
    13    20    17    1
    14    41    43    1
    15     4    29    2
    16    18    17   ar
    17    18    40   ar
    18    17    16   ar
    19    33    30    1
    20    29    30   ar
    21    29    42   ar
    22    40    43    1
    23    40    15   ar
    24    30    31   ar
    25    43    42    1
    26    43    39    1
    27    16    15   ar
    28    16    19    1
    29    42    32   ar
    30    15     2    1
    31    31    32   ar
    32    31    34    1
    33    32     1    2
    34    35    34    1
    35    35    36    1
    36    39     8    1
    37    39     5    2
    38     2     8    2
    39     1     5    1
    40     8     7    1
    41    36    38   ar
    42    36    37   ar
    43     5     6    1
    44     7     6    2
    45     7     9    1
    46     6    10    1
    47    11    10    1
    48    11    12    1
    49    14    12   ar
    50    12    13   ar
