@<TRIPOS>MOLECULE
3ufp_H4W_A_1.pdb
 27 29 0 0 0
SMALL
GASTEIGER

@<TRIPOS>ATOM
      1  F23       -0.1760    2.5240   27.7700 F     800  H4W800     -0.2042
      2  C23        0.3840    3.7110   27.4280 C.ar  800  H4W800      0.1398
      3  C22        1.7740    3.8440   27.5150 C.ar  800  H4W800      0.0254
      4  C21        2.4070    5.0440   27.1690 C.ar  800  H4W800     -0.0200
      5  C26        1.6310    6.1360   26.7350 C.ar  800  H4W800     -0.0041
      6  C25        0.2350    6.0190   26.6430 C.ar  800  H4W800      0.0020
      7  C24       -0.3890    4.8080   26.9910 C.ar  800  H4W800      0.0296
      8  C14        3.9230    5.1560   27.2650 C.3   800  H4W800      0.0264
      9  C13        4.6330    3.8010   27.1470 C.3   800  H4W800      0.0048
     10  C12        4.7200    3.3210   25.6940 C.3   800  H4W800      0.0029
     11  C11        5.8600    2.3270   25.4790 C.3   800  H4W800      0.0321
     12  C10        7.1210    2.9650   24.8700 C.3   800  H4W800      0.1421
     13  O09        7.9430    1.9570   24.2630 O.3   800  H4W800     -0.3547
     14  C3'        8.6920    1.2370   25.2380 C.3   800  H4W800      0.1343
     15  C2'        8.1440   -0.1830   25.4510 C.3   800  H4W800      0.1182
     16  N1'        9.0980   -1.0120   24.7450 N.3   800  H4W800     -0.2154
     17  C5'       10.0080   -0.2320   23.9010 C.3   800  H4W800      0.0916
     18  C4'       10.1360    0.9760   24.8080 C.3   800  H4W800      0.0527
     19  C08       10.9670    2.1680   24.3400 C.3   800  H4W800      0.0587
     20  C06       12.2710    1.7200   23.6990 C.2   800  H4W800      0.0926
     21  N01       13.0340    0.6850   24.1800 N.2   800  H4W800     -0.3922
     22  C02       14.1830    0.3430   23.5400 C.2   800  H4W800      0.2178
     23  N02       14.9380   -0.6580   24.0320 N.pl3 800  H4W800     -0.0932
     24  C03       14.5820    0.9930   22.3750 C.2   800  H4W800      0.0427
     25  C04       13.8240    2.0310   21.8760 C.2   800  H4W800     -0.0333
     26  C07       14.1940    2.7640   20.6130 C.3   800  H4W800      0.0269
     27  C05       12.6570    2.3870   22.5410 C.3   800  H4W800      0.0766
@<TRIPOS>BOND
     1    26    25    1
     2    25    24    2
     3    25    27    1
     4    24    22    1
     5    27    20    1
     6    22    23    1
     7    22    21    2
     8    20    21    2
     9    20    19    1
    10    17    16    1
    11    17    18    1
    12    13    12    1
    13    13    14    1
    14    19    18    1
    15    16    15    1
    16    18    14    1
    17    12    11    1
    18    14    15    1
    19    11    10    1
    20    10     9    1
    21     6     5   ar
    22     6     7   ar
    23     5     4   ar
    24     7     2   ar
    25     9     8    1
    26     4     8    1
    27     4     3   ar
    28     2     3   ar
    29     2     1    1
