@<TRIPOS>MOLECULE
3ufp_HEM_A_1.pdb
 43 50 0 0 0
SMALL
GASTEIGER

@<TRIPOS>ATOM
      1  CHA       12.7030    4.6530   26.7740 C.2   750  HEM750      0.0000
      2  CHB       16.6250    1.9370   26.4590 C.2   750  HEM750      0.0000
      3  CHC       17.5450    3.5810   21.9950 C.2   750  HEM750      0.0000
      4  CHD       14.4420    7.1870   22.8940 C.2   750  HEM750      0.0000
      5  C1A       13.5690    3.6230   26.9990 C.2   750  HEM750      0.0000
      6  C2A       13.4380    2.5420   27.9530 C.2   750  HEM750      0.0000
      7  C3A       14.5290    1.7880   27.8590 C.2   750  HEM750      0.0000
      8  C4A       15.3830    2.3720   26.8500 C.2   750  HEM750      0.0000
      9  CMA       14.8530    0.5150   28.6740 C.3   750  HEM750      0.0000
     10  CAA       12.2220    2.3120   28.8890 C.3   750  HEM750      0.0000
     11  CBA       11.0930    1.6920   28.0850 C.3   750  HEM750      0.0000
     12  CGA        9.9820    1.3430   29.0180 C.2   750  HEM750      0.0000
     13  O1A       10.3690    0.8540   30.1250 O.co2 750  HEM750      0.0000
     14  O2A        8.7620    1.5630   28.6390 O.co2 750  HEM750      0.0000
     15  C1B       17.1420    2.0550   25.1950 C.ar  750  HEM750      0.0000
     16  C2B       18.1430    1.2090   24.5960 C.ar  750  HEM750      0.0000
     17  C3B       18.3820    1.6650   23.3800 C.ar  750  HEM750      0.0000
     18  C4B       17.5710    2.8270   23.1580 C.ar  750  HEM750      0.0000
     19  CMB       18.8110   -0.0400   25.2120 C.3   750  HEM750      0.0000
     20  CAB       19.3730    1.0250   22.3850 C.2   750  HEM750      0.0000
     21  CBB       20.2350    1.7550   21.6940 C.2   750  HEM750      0.0000
     22  C1C       16.7560    4.6900   21.7920 C.2   750  HEM750      0.0000
     23  C2C       16.6560    5.4860   20.5890 C.2   750  HEM750      0.0000
     24  C3C       15.7980    6.4790   20.8720 C.2   750  HEM750      0.0000
     25  C4C       15.3300    6.3590   22.2290 C.2   750  HEM750      0.0000
     26  CMC       17.3780    5.2080   19.2320 C.3   750  HEM750      0.0000
     27  CAC       15.3380    7.5940   19.9300 C.2   750  HEM750      0.0000
     28  CBC       16.2490    8.0900   19.1200 C.2   750  HEM750      0.0000
     29  C1D       13.6540    6.8170   23.9750 C.ar  750  HEM750      0.0000
     30  C2D       12.4850    7.5210   24.4540 C.ar  750  HEM750      0.0000
     31  C3D       12.0040    6.7200   25.6490 C.ar  750  HEM750      0.0000
     32  C4D       12.8740    5.6050   25.7840 C.ar  750  HEM750      0.0000
     33  CMD       11.8140    8.8310   23.9690 C.3   750  HEM750      0.0000
     34  CAD       10.7720    7.0330   26.5380 C.3   750  HEM750      0.0000
     35  CBD        9.5970    6.5190   25.7460 C.3   750  HEM750      0.0000
     36  CGD        8.3420    6.7070   26.5480 C.2   750  HEM750      0.0000
     37  O1D        8.1520    7.7950   27.1830 O.co2 750  HEM750      0.0000
     38  O2D        7.5650    5.7230   26.5420 O.co2 750  HEM750      0.0000
     39  NA        14.7960    3.5350   26.3940 N.2   750  HEM750      0.0000
     40  NB        16.8730    3.0930   24.3250 N.ar  750  HEM750      0.0000
     41  NC        15.9690    5.2760   22.7690 N.2   750  HEM750      0.0000
     42  ND        13.8880    5.7250   24.8310 N.ar  750  HEM750      0.0000
     43 FE         15.4480    4.4620   24.6330 Fe    750  HEM750      0.0000
@<TRIPOS>BOND
     1    28    27    2
     2    26    23    1
     3    27    24    1
     4    23    24    2
     5    23    22    1
     6    24    25    1
     7    21    20    2
     8    22     3    2
     9    22    41    1
    10     3    18    1
    11    25    41    2
    12    25     4    1
    13    20    17    1
    14    41    43    1
    15     4    29    2
    16    18    17   ar
    17    18    40   ar
    18    17    16   ar
    19    33    30    1
    20    29    30   ar
    21    29    42   ar
    22    40    43    1
    23    40    15   ar
    24    30    31   ar
    25    16    15   ar
    26    16    19    1
    27    43    42    1
    28    43    39    1
    29    42    32   ar
    30    15     2    1
    31    31    32   ar
    32    31    34    1
    33    35    34    1
    34    35    36    1
    35    32     1    2
    36    39     8    1
    37    39     5    2
    38     2     8    2
    39    38    36   ar
    40    36    37   ar
    41     1     5    1
    42     8     7    1
    43     5     6    1
    44     7     6    2
    45     7     9    1
    46     6    10    1
    47    11    10    1
    48    11    12    1
    49    14    12   ar
    50    12    13   ar
