@<TRIPOS>MOLECULE
3ufp_H4B_A_1.pdb
 17 18 0 0 0
SMALL
GASTEIGER

@<TRIPOS>ATOM
      1  N1         9.6260    2.4370   34.0650 N.2   760  H4B760     -0.2683
      2  C2         9.8160    2.0660   32.8160 C.1   760  H4B760      0.2608
      3  N2        11.1020    1.9180   32.4380 N.pl3 760  H4B760     -0.0220
      4  N3         8.7690    1.8760   31.9810 N.2   760  H4B760     -0.2474
      5  C4         7.5170    2.0710   32.4320 C.1   760  H4B760      0.2441
      6  O4         6.5770    1.8540   31.6470 O.2   760  H4B760     -0.2063
      7  C4A        7.3120    2.4590   33.7320 C.2   760  H4B760      0.2463
      8  C8A        8.4120    2.6540   34.5390 C.1   760  H4B760      0.1270
      9  N5         6.0870    2.6850   34.2790 N.2   760  H4B760     -0.2460
     10  N8         8.3340    3.0430   35.8300 N.2   760  H4B760     -0.2054
     11  C6         6.0820    3.6650   35.3820 C.3   760  H4B760      0.1627
     12  C7         7.0540    3.2550   36.4620 C.3   760  H4B760      0.1643
     13  C9         4.7010    3.8540   36.0080 C.3   760  H4B760      0.2063
     14  O9         4.2950    2.4970   36.3010 O.3   760  H4B760     -0.2183
     15  C10        4.6550    4.8440   37.1990 C.3   760  H4B760      0.1842
     16  C11        3.2950    4.7870   37.8850 C.3   760  H4B760      0.0383
     17  O10        4.9030    6.2130   36.7820 O.3   760  H4B760     -0.2204
@<TRIPOS>BOND
     1     6     5    2
     2     4     5    2
     3     4     2    2
     4     5     7    1
     5     3     2    1
     6     2     1    2
     7     7     9    2
     8     7     8    1
     9     1     8    2
    10     9    11    1
    11     8    10    2
    12    11    13    1
    13    11    12    1
    14    10    12    1
    15    13    14    1
    16    13    15    1
    17    17    15    1
    18    15    16    1
