@<TRIPOS>MOLECULE
3ufq_HEM_A_1.pdb
 43 50 0 0 0
SMALL
GASTEIGER

@<TRIPOS>ATOM
      1  CHA       12.8600    4.6720   26.6350 C.2   750  HEM750      0.0000
      2  CHB       16.7640    1.8500   26.2480 C.2   750  HEM750      0.0000
      3  CHC       17.8420    3.5560   21.8350 C.2   750  HEM750      0.0000
      4  CHD       14.6720    7.1540   22.7390 C.2   750  HEM750      0.0000
      5  C1A       13.7290    3.6190   26.8230 C.2   750  HEM750      0.0000
      6  C2A       13.6030    2.5270   27.7600 C.2   750  HEM750      0.0000
      7  C3A       14.6940    1.7670   27.6640 C.2   750  HEM750      0.0000
      8  C4A       15.5340    2.3320   26.6390 C.2   750  HEM750      0.0000
      9  CMA       14.9850    0.4880   28.4880 C.3   750  HEM750      0.0000
     10  CAA       12.4280    2.2730   28.7170 C.3   750  HEM750      0.0000
     11  CBA       11.2510    1.8540   27.8210 C.3   750  HEM750      0.0000
     12  CGA       10.1660    1.2450   28.6380 C.2   750  HEM750      0.0000
     13  O1A       10.5150    0.8890   29.7970 O.co2 750  HEM750      0.0000
     14  O2A        8.9700    1.1450   28.1440 O.co2 750  HEM750      0.0000
     15  C1B       17.3600    1.9960   25.0190 C.ar  750  HEM750      0.0000
     16  C2B       18.4770    1.2210   24.4980 C.ar  750  HEM750      0.0000
     17  C3B       18.7660    1.6870   23.2860 C.ar  750  HEM750      0.0000
     18  C4B       17.8870    2.8050   23.0040 C.ar  750  HEM750      0.0000
     19  CMB       19.2020    0.0170   25.1800 C.3   750  HEM750      0.0000
     20  CAB       19.8720    1.1000   22.3750 C.2   750  HEM750      0.0000
     21  CBB       20.5380    1.8370   21.4830 C.2   750  HEM750      0.0000
     22  C1C       17.0020    4.6540   21.6320 C.2   750  HEM750      0.0000
     23  C2C       16.9050    5.4770   20.4350 C.2   750  HEM750      0.0000
     24  C3C       16.0470    6.4690   20.7220 C.2   750  HEM750      0.0000
     25  C4C       15.5700    6.3190   22.0800 C.2   750  HEM750      0.0000
     26  CMC       17.5940    5.2230   19.0650 C.3   750  HEM750      0.0000
     27  CAC       15.5700    7.5930   19.7820 C.2   750  HEM750      0.0000
     28  CBC       16.3020    8.0070   18.7440 C.2   750  HEM750      0.0000
     29  C1D       13.8650    6.7910   23.8220 C.ar  750  HEM750      0.0000
     30  C2D       12.6790    7.5030   24.2960 C.ar  750  HEM750      0.0000
     31  C3D       12.1720    6.7390   25.5010 C.ar  750  HEM750      0.0000
     32  C4D       13.0440    5.6230   25.6370 C.ar  750  HEM750      0.0000
     33  CMD       12.0870    8.8280   23.7390 C.3   750  HEM750      0.0000
     34  CAD       10.9520    7.0290   26.4390 C.3   750  HEM750      0.0000
     35  CBD        9.6970    6.8710   25.6210 C.3   750  HEM750      0.0000
     36  CGD        8.5270    7.0810   26.5610 C.2   750  HEM750      0.0000
     37  O1D        8.5070    8.1160   27.2970 O.co2 750  HEM750      0.0000
     38  O2D        7.6350    6.1800   26.5680 O.co2 750  HEM750      0.0000
     39  NA        14.9410    3.5090   26.1950 N.2   750  HEM750      0.0000
     40  NB        17.0830    3.0150   24.1250 N.ar  750  HEM750      0.0000
     41  NC        16.2180    5.2350   22.6170 N.2   750  HEM750      0.0000
     42  ND        14.0890    5.7090   24.6760 N.ar  750  HEM750      0.0000
     43 FE         15.6710    4.4290   24.4570 Fe    750  HEM750      0.0000
@<TRIPOS>BOND
     1    28    27    2
     2    26    23    1
     3    27    24    1
     4    23    24    2
     5    23    22    1
     6    24    25    1
     7    21    20    2
     8    22     3    2
     9    22    41    1
    10     3    18    1
    11    25    41    2
    12    25     4    1
    13    20    17    1
    14    41    43    1
    15     4    29    2
    16    18    17   ar
    17    18    40   ar
    18    17    16   ar
    19    33    30    1
    20    29    30   ar
    21    29    42   ar
    22    40    43    1
    23    40    15   ar
    24    30    31   ar
    25    43    42    1
    26    43    39    1
    27    16    15   ar
    28    16    19    1
    29    42    32   ar
    30    15     2    1
    31    31    32   ar
    32    31    34    1
    33    35    34    1
    34    35    36    1
    35    32     1    2
    36    39     8    1
    37    39     5    2
    38     2     8    2
    39    36    38   ar
    40    36    37   ar
    41     1     5    1
    42     8     7    1
    43     5     6    1
    44     7     6    2
    45     7     9    1
    46     6    10    1
    47    11    12    1
    48    11    10    1
    49    14    12   ar
    50    12    13   ar
