@<TRIPOS>MOLECULE
3ufq_H4B_A_1.pdb
 17 18 0 0 0
SMALL
GASTEIGER

@<TRIPOS>ATOM
      1  N1         9.8050    2.5020   33.9780 N.2   760  H4B760     -0.2683
      2  C2         9.9770    2.0980   32.7210 C.1   760  H4B760      0.2608
      3  N2        11.2590    1.9910   32.2860 N.pl3 760  H4B760     -0.0220
      4  N3         8.9020    1.8350   31.9330 N.2   760  H4B760     -0.2474
      5  C4         7.6400    1.9770   32.3940 C.1   760  H4B760      0.2441
      6  O4         6.6840    1.6800   31.6340 O.2   760  H4B760     -0.2063
      7  C4A        7.4560    2.3940   33.6980 C.2   760  H4B760      0.2463
      8  C8A        8.5820    2.6650   34.4670 C.1   760  H4B760      0.1270
      9  N5         6.2300    2.5490   34.2580 N.2   760  H4B760     -0.2460
     10  N8         8.5170    3.0630   35.7630 N.2   760  H4B760     -0.2054
     11  C6         6.1540    3.4890   35.3790 C.3   760  H4B760      0.1627
     12  C7         7.2230    3.2210   36.4180 C.3   760  H4B760      0.1643
     13  C9         4.7790    3.6090   36.0350 C.3   760  H4B760      0.2063
     14  O9         4.3860    2.3020   36.4540 O.3   760  H4B760     -0.2183
     15  C10        4.7560    4.5340   37.2440 C.3   760  H4B760      0.1842
     16  C11        3.3470    4.6320   37.8340 C.3   760  H4B760      0.0383
     17  O10        5.1340    5.8640   36.8890 O.3   760  H4B760     -0.2204
@<TRIPOS>BOND
     1     6     5    2
     2     4     5    2
     3     4     2    2
     4     3     2    1
     5     5     7    1
     6     2     1    2
     7     7     9    2
     8     7     8    1
     9     1     8    2
    10     9    11    1
    11     8    10    2
    12    11    13    1
    13    11    12    1
    14    10    12    1
    15    13    14    1
    16    13    15    1
    17    17    15    1
    18    15    16    1
