@<TRIPOS>MOLECULE
3ufq_HW5_A_1.pdb
 27 29 0 0 0
SMALL
GASTEIGER

@<TRIPOS>ATOM
      1  F23       -0.8100    3.8910   27.8270 F     800  HW5800     -0.2042
      2  C23        0.4870    4.2330   27.6360 C.ar  800  HW5800      0.1398
      3  C22        1.5190    3.3300   27.9440 C.ar  800  HW5800      0.0254
      4  C21        2.8640    3.6890   27.7390 C.ar  800  HW5800     -0.0200
      5  C26        3.1710    4.9580   27.2280 C.ar  800  HW5800     -0.0041
      6  C25        2.1440    5.8590   26.9200 C.ar  800  HW5800      0.0020
      7  C24        0.8070    5.5000   27.1270 C.ar  800  HW5800      0.0296
      8  C14        3.9490    2.7200   28.0670 C.3   800  HW5800      0.0264
      9  C13        5.2390    3.0210   27.8760 C.3   800  HW5800      0.0048
     10  C12        5.9650    2.3480   26.7240 C.3   800  HW5800      0.0029
     11  C11        6.7630    3.3080   25.8380 C.3   800  HW5800      0.0321
     12  C10        7.3420    2.5440   24.6520 C.3   800  HW5800      0.1421
     13  O09        8.4730    1.7830   25.0790 O.3   800  HW5800     -0.3547
     14  C3'        8.6060    0.5080   24.4380 C.3   800  HW5800      0.1343
     15  C4'        9.9700    0.3840   23.7560 C.3   800  HW5800      0.0531
     16  C5'       10.3120   -1.1010   23.8470 C.3   800  HW5800      0.0916
     17  N1'        9.6310   -1.5400   25.0660 N.3   800  HW5800     -0.2154
     18  C2'        8.5210   -0.6700   25.4320 C.3   800  HW5800      0.1182
     19  C08       11.0560    1.2500   24.4140 C.3   800  HW5800      0.0629
     20  C06       12.4020    1.1180   23.7090 C.2   800  HW5800      0.1098
     21  C05       12.6590    1.9020   22.5910 C.2   800  HW5800      0.0196
     22  C04       13.8680    1.8050   21.9070 C.2   800  HW5800     -0.0332
     23  C07       14.0830    2.6640   20.6870 C.3   800  HW5800      0.0269
     24  C03       14.8350    0.9120   22.3580 C.3   800  HW5800      0.1001
     25  C02       14.5630    0.1480   23.4930 C.2   800  HW5800      0.2001
     26  N01       13.3630    0.2340   24.1260 N.2   800  HW5800     -0.3924
     27  N02       15.4830   -0.7300   23.9470 N.pl3 800  HW5800     -0.0977
@<TRIPOS>BOND
     1    23    22    1
     2    22    24    1
     3    22    21    2
     4    24    25    1
     5    21    20    1
     6    25    27    1
     7    25    26    2
     8    20    26    2
     9    20    19    1
    10    15    16    1
    11    15    19    1
    12    15    14    1
    13    16    17    1
    14    14    13    1
    15    14    18    1
    16    12    13    1
    17    12    11    1
    18    17    18    1
    19    11    10    1
    20    10     9    1
    21     6     7   ar
    22     6     5   ar
    23     7     2   ar
    24     5     4   ar
    25     2     1    1
    26     2     3   ar
    27     4     3   ar
    28     4     8    1
    29     9     8    1
