@<TRIPOS>MOLECULE
3ufr_H4B_A_1.pdb
 17 18 0 0 0
SMALL
GASTEIGER

@<TRIPOS>ATOM
      1  N1         9.6430    2.4590   34.0530 N.2   760  H4B760     -0.2683
      2  C2         9.8090    2.0780   32.7890 C.1   760  H4B760      0.2608
      3  N2        11.0580    1.8520   32.3470 N.pl3 760  H4B760     -0.0220
      4  N3         8.7640    1.9160   31.9570 N.2   760  H4B760     -0.2474
      5  C4         7.5170    2.1440   32.3620 C.1   760  H4B760      0.2441
      6  O4         6.5920    1.9240   31.5420 O.2   760  H4B760     -0.2063
      7  C4A        7.3150    2.5620   33.6780 C.2   760  H4B760      0.2463
      8  C8A        8.4150    2.7220   34.5050 C.1   760  H4B760      0.1270
      9  N5         6.0910    2.8030   34.1930 N.2   760  H4B760     -0.2460
     10  N8         8.3060    3.1260   35.7950 N.2   760  H4B760     -0.2054
     11  C6         6.0030    3.7210   35.3430 C.3   760  H4B760      0.1627
     12  C7         7.0100    3.3760   36.4100 C.3   760  H4B760      0.1643
     13  C9         4.5960    3.8380   35.9670 C.3   760  H4B760      0.2063
     14  O9         4.2580    2.5210   36.4360 O.3   760  H4B760     -0.2183
     15  C10        4.4790    4.8540   37.1180 C.3   760  H4B760      0.1842
     16  C11        3.0750    4.8000   37.6750 C.3   760  H4B760      0.0383
     17  O10        4.7790    6.2090   36.7160 O.3   760  H4B760     -0.2204
@<TRIPOS>BOND
     1     6     5    2
     2     4     5    2
     3     4     2    2
     4     3     2    1
     5     5     7    1
     6     2     1    2
     7     7     9    2
     8     7     8    1
     9     1     8    2
    10     9    11    1
    11     8    10    2
    12    11    13    1
    13    11    12    1
    14    10    12    1
    15    13    14    1
    16    13    15    1
    17    17    15    1
    18    15    16    1
