@<TRIPOS>MOLECULE
3ufr_HEM_A_1.pdb
 43 50 0 0 0
SMALL
GASTEIGER

@<TRIPOS>ATOM
      1  CHA       12.7560    4.7310   26.7990 C.2   750  HEM750      0.0000
      2  CHB       16.6030    1.8400   26.3430 C.2   750  HEM750      0.0000
      3  CHC       17.5150    3.5070   21.8910 C.2   750  HEM750      0.0000
      4  CHD       14.5200    7.2000   22.8730 C.2   750  HEM750      0.0000
      5  C1A       13.6200    3.6890   27.0060 C.2   750  HEM750      0.0000
      6  C2A       13.5120    2.6280   27.9750 C.2   750  HEM750      0.0000
      7  C3A       14.5890    1.8340   27.8380 C.2   750  HEM750      0.0000
      8  C4A       15.3790    2.3470   26.7650 C.2   750  HEM750      0.0000
      9  CMA       14.9050    0.5420   28.6330 C.3   750  HEM750      0.0000
     10  CAA       12.3220    2.4620   28.9470 C.3   750  HEM750      0.0000
     11  CBA       11.3190    1.6980   28.1220 C.3   750  HEM750      0.0000
     12  CGA       10.2000    1.2920   29.0150 C.2   750  HEM750      0.0000
     13  O1A       10.4890    0.6740   30.0780 O.co2 750  HEM750      0.0000
     14  O2A        9.0520    1.5900   28.6140 O.co2 750  HEM750      0.0000
     15  C1B       17.1700    1.9840   25.0950 C.ar  750  HEM750      0.0000
     16  C2B       18.2630    1.1990   24.5450 C.ar  750  HEM750      0.0000
     17  C3B       18.5170    1.6570   23.3200 C.ar  750  HEM750      0.0000
     18  C4B       17.6090    2.7560   23.0510 C.ar  750  HEM750      0.0000
     19  CMB       19.0010    0.0080   25.2030 C.3   750  HEM750      0.0000
     20  CAB       19.5850    1.0460   22.3830 C.2   750  HEM750      0.0000
     21  CBB       20.2590    1.8010   21.5090 C.2   750  HEM750      0.0000
     22  C1C       16.7440    4.6450   21.7310 C.2   750  HEM750      0.0000
     23  C2C       16.7120    5.4800   20.5380 C.2   750  HEM750      0.0000
     24  C3C       15.8940    6.5090   20.8350 C.2   750  HEM750      0.0000
     25  C4C       15.3970    6.3630   22.1920 C.2   750  HEM750      0.0000
     26  CMC       17.4720    5.1990   19.1960 C.3   750  HEM750      0.0000
     27  CAC       15.4980    7.6820   19.9330 C.2   750  HEM750      0.0000
     28  CBC       16.2400    7.9660   18.8760 C.2   750  HEM750      0.0000
     29  C1D       13.6940    6.8410   23.9370 C.ar  750  HEM750      0.0000
     30  C2D       12.5190    7.5370   24.4000 C.ar  750  HEM750      0.0000
     31  C3D       12.0460    6.7480   25.6040 C.ar  750  HEM750      0.0000
     32  C4D       12.9330    5.6570   25.7710 C.ar  750  HEM750      0.0000
     33  CMD       11.7930    8.8220   23.8940 C.3   750  HEM750      0.0000
     34  CAD       10.7980    7.0090   26.4880 C.3   750  HEM750      0.0000
     35  CBD        9.6450    6.3920   25.7060 C.3   750  HEM750      0.0000
     36  CGD        8.4020    6.6430   26.4980 C.2   750  HEM750      0.0000
     37  O1D        8.3850    7.6740   27.2340 O.co2 750  HEM750      0.0000
     38  O2D        7.4710    5.7980   26.3920 O.co2 750  HEM750      0.0000
     39  NA        14.7990    3.5320   26.3470 N.2   750  HEM750      0.0000
     40  NB        16.8610    2.9990   24.1950 N.ar  750  HEM750      0.0000
     41  NC        15.9710    5.2510   22.7230 N.2   750  HEM750      0.0000
     42  ND        13.9680    5.7860   24.8190 N.ar  750  HEM750      0.0000
     43 FE         15.4690    4.4790   24.5580 Fe    750  HEM750      0.0000
@<TRIPOS>BOND
     1    28    27    2
     2    26    23    1
     3    27    24    1
     4    23    24    2
     5    23    22    1
     6    24    25    1
     7    21    20    2
     8    22     3    2
     9    22    41    1
    10     3    18    1
    11    25    41    2
    12    25     4    1
    13    20    17    1
    14    41    43    1
    15     4    29    2
    16    18    17   ar
    17    18    40   ar
    18    17    16   ar
    19    33    30    1
    20    29    30   ar
    21    29    42   ar
    22    40    43    1
    23    40    15   ar
    24    30    31   ar
    25    16    15   ar
    26    16    19    1
    27    43    42    1
    28    43    39    1
    29    42    32   ar
    30    15     2    1
    31    31    32   ar
    32    31    34    1
    33    35    34    1
    34    35    36    1
    35    32     1    2
    36     2     8    2
    37    39     8    1
    38    39     5    2
    39    38    36   ar
    40    36    37   ar
    41     8     7    1
    42     1     5    1
    43     5     6    1
    44     7     6    2
    45     7     9    1
    46     6    10    1
    47    11    10    1
    48    11    12    1
    49    14    12   ar
    50    12    13   ar
