@<TRIPOS>MOLECULE
3ufr_H5W_A_1.pdb
 26 28 0 0 0
SMALL
GASTEIGER

@<TRIPOS>ATOM
      1  F23       -0.0110    3.8190   27.4030 F     800  H5W800     -0.2042
      2  C23        1.1330    4.5350   27.3120 C.ar  800  H5W800      0.1401
      3  C24        1.0990    5.9440   27.3590 C.ar  800  H5W800      0.0296
      4  C25        2.2910    6.6700   27.2650 C.ar  800  H5W800      0.0023
      5  C26        3.5100    5.9840   27.1250 C.ar  800  H5W800      0.0001
      6  C22        2.3590    3.8560   27.1740 C.ar  800  H5W800      0.0296
      7  C21        3.5560    4.5810   27.0750 C.ar  800  H5W800      0.0019
      8  C13        4.8820    3.9140   26.9460 C.2   800  H5W800     -0.0044
      9  C12        5.0210    2.5860   26.6740 C.2   800  H5W800     -0.0235
     10  C11        6.3710    2.0320   26.2220 C.3   800  H5W800      0.0581
     11  C10        6.9760    2.7410   24.9800 C.3   800  H5W800      0.1468
     12  O09        7.9510    1.9190   24.3180 O.3   800  H5W800     -0.3544
     13  C3'        8.7580    1.1600   25.2350 C.3   800  H5W800      0.1343
     14  C2'        8.2700   -0.2910   25.3230 C.3   800  H5W800      0.1182
     15  N1'        8.9670   -0.9330   24.2260 N.3   800  H5W800     -0.2154
     16  C5'        9.9380   -0.0430   23.5930 C.3   800  H5W800      0.0916
     17  C4'       10.1760    0.9360   24.7350 C.3   800  H5W800      0.0527
     18  C08       11.0500    2.1590   24.4630 C.3   800  H5W800      0.0587
     19  C06       12.3410    1.7160   23.7880 C.2   800  H5W800      0.0926
     20  N01       13.1340    0.6890   24.2370 N.2   800  H5W800     -0.3922
     21  C02       14.2650    0.3510   23.5690 C.2   800  H5W800      0.2178
     22  N02       15.0190   -0.6460   24.0190 N.pl3 800  H5W800     -0.0932
     23  C03       14.6360    1.0040   22.4100 C.2   800  H5W800      0.0427
     24  C05       12.6890    2.3710   22.6200 C.3   800  H5W800      0.0766
     25  C04       13.8370    2.0280   21.9300 C.2   800  H5W800     -0.0333
     26  C07       14.1600    2.7640   20.6520 C.3   800  H5W800      0.0269
@<TRIPOS>BOND
     1    26    25    1
     2    25    23    2
     3    25    24    1
     4    23    21    1
     5    24    19    1
     6    21    22    1
     7    21    20    2
     8    16    15    1
     9    16    17    1
    10    19    20    2
    11    19    18    1
    12    15    14    1
    13    12    11    1
    14    12    13    1
    15    18    17    1
    16    17    13    1
    17    11    10    1
    18    13    14    1
    19    10     9    1
    20     9     8    2
    21     8     7    1
    22     7     5   ar
    23     7     6   ar
    24     5     4   ar
    25     6     2   ar
    26     4     3   ar
    27     2     3   ar
    28     2     1    1
