@<TRIPOS>MOLECULE
3ufs_HEM_A_1.pdb
 43 50 0 0 0
SMALL
GASTEIGER

@<TRIPOS>ATOM
      1  CHA       12.8670    4.8050   26.7730 C.2   750  HEM750      0.0000
      2  CHB       16.6360    1.7480   26.3350 C.2   750  HEM750      0.0000
      3  CHC       17.6190    3.4930   21.8940 C.2   750  HEM750      0.0000
      4  CHD       14.5680    7.1920   22.8060 C.2   750  HEM750      0.0000
      5  C1A       13.6850    3.7170   26.9280 C.2   750  HEM750      0.0000
      6  C2A       13.4890    2.6690   27.8880 C.2   750  HEM750      0.0000
      7  C3A       14.5010    1.8100   27.7630 C.2   750  HEM750      0.0000
      8  C4A       15.4140    2.3150   26.7410 C.2   750  HEM750      0.0000
      9  CMA       14.6530    0.5180   28.5950 C.3   750  HEM750      0.0000
     10  CAA       12.2690    2.5080   28.8210 C.3   750  HEM750      0.0000
     11  CBA       11.4260    1.5150   28.0560 C.3   750  HEM750      0.0000
     12  CGA       10.1970    1.2280   28.8440 C.2   750  HEM750      0.0000
     13  O1A       10.3510    0.7700   30.0150 O.co2 750  HEM750      0.0000
     14  O2A        9.0990    1.4280   28.2520 O.co2 750  HEM750      0.0000
     15  C1B       17.1940    1.9100   25.0830 C.ar  750  HEM750      0.0000
     16  C2B       18.2800    1.1080   24.5580 C.ar  750  HEM750      0.0000
     17  C3B       18.5480    1.5780   23.3320 C.ar  750  HEM750      0.0000
     18  C4B       17.6910    2.7260   23.0530 C.ar  750  HEM750      0.0000
     19  CMB       18.9740   -0.1020   25.2900 C.3   750  HEM750      0.0000
     20  CAB       19.6540    0.9760   22.4230 C.2   750  HEM750      0.0000
     21  CBB       20.3300    1.7380   21.5640 C.2   750  HEM750      0.0000
     22  C1C       16.8420    4.6360   21.7160 C.2   750  HEM750      0.0000
     23  C2C       16.8070    5.4760   20.5270 C.2   750  HEM750      0.0000
     24  C3C       15.9690    6.5000   20.7940 C.2   750  HEM750      0.0000
     25  C4C       15.4410    6.3400   22.1400 C.2   750  HEM750      0.0000
     26  CMC       17.5800    5.2000   19.2040 C.3   750  HEM750      0.0000
     27  CAC       15.5680    7.6620   19.8770 C.2   750  HEM750      0.0000
     28  CBC       16.3320    8.0490   18.8530 C.2   750  HEM750      0.0000
     29  C1D       13.7730    6.8680   23.8990 C.ar  750  HEM750      0.0000
     30  C2D       12.6240    7.6040   24.3640 C.ar  750  HEM750      0.0000
     31  C3D       12.1350    6.8490   25.5840 C.ar  750  HEM750      0.0000
     32  C4D       13.0170    5.7410   25.7540 C.ar  750  HEM750      0.0000
     33  CMD       12.0130    8.9230   23.7840 C.3   750  HEM750      0.0000
     34  CAD       10.9000    7.2030   26.4570 C.3   750  HEM750      0.0000
     35  CBD        9.7410    6.5730   25.6600 C.3   750  HEM750      0.0000
     36  CGD        8.4490    6.9210   26.3430 C.2   750  HEM750      0.0000
     37  O1D        8.3830    8.0030   26.9780 O.co2 750  HEM750      0.0000
     38  O2D        7.5320    6.0720   26.2680 O.co2 750  HEM750      0.0000
     39  NA        14.9310    3.5400   26.3130 N.2   750  HEM750      0.0000
     40  NB        16.9310    2.9490   24.1830 N.ar  750  HEM750      0.0000
     41  NC        16.0080    5.2200   22.6820 N.2   750  HEM750      0.0000
     42  ND        14.0200    5.8120   24.7760 N.ar  750  HEM750      0.0000
     43 FE         15.5740    4.4810   24.5300 Fe    750  HEM750      0.0000
@<TRIPOS>BOND
     1    28    27    2
     2    26    23    1
     3    27    24    1
     4    23    24    2
     5    23    22    1
     6    24    25    1
     7    21    20    2
     8    22     3    2
     9    22    41    1
    10     3    18    1
    11    25    41    2
    12    25     4    1
    13    20    17    1
    14    41    43    1
    15     4    29    2
    16    18    17   ar
    17    18    40   ar
    18    17    16   ar
    19    33    30    1
    20    29    30   ar
    21    29    42   ar
    22    40    43    1
    23    40    15   ar
    24    30    31   ar
    25    43    42    1
    26    43    39    1
    27    16    15   ar
    28    16    19    1
    29    42    32   ar
    30    15     2    1
    31    31    32   ar
    32    31    34    1
    33    35    36    1
    34    35    34    1
    35    32     1    2
    36    38    36   ar
    37    39     8    1
    38    39     5    2
    39     2     8    2
    40    36    37   ar
    41     8     7    1
    42     1     5    1
    43     5     6    1
    44     7     6    2
    45     7     9    1
    46     6    10    1
    47    11    10    1
    48    11    12    1
    49    14    12   ar
    50    12    13   ar
