@<TRIPOS>MOLECULE
3ufs_HW6_A_1.pdb
 28 30 0 0 0
SMALL
GASTEIGER

@<TRIPOS>ATOM
      1  F23       15.0380    1.2560   21.4820 F     800  HW6800     -0.2042
      2  C23       14.4310    0.9150   22.6070 C.ar  800  HW6800      0.1407
      3  C24       14.8790   -0.1310   23.4500 C.ar  800  HW6800      0.0410
      4  C22       13.3000    1.6770   22.8490 C.ar  800  HW6800      0.0254
      5  C21       12.5850    1.3680   23.9860 C.ar  800  HW6800     -0.0191
      6  C26       12.9940    0.3370   24.8240 C.ar  800  HW6800      0.0073
      7  C25       14.1430   -0.4180   24.5860 C.ar  800  HW6800      0.0596
      8 CL2        14.5150   -1.7110   25.8060 Cl    800  HW6800     -0.0822
      9  C14       11.3650    2.1810   24.3100 C.3   800  HW6800      0.0265
     10  C13       10.1180    1.3220   24.3540 C.3   800  HW6800      0.0048
     11  C12        8.9870    2.3070   24.6450 C.3   800  HW6800      0.0029
     12  C11        7.6580    1.7100   24.1950 C.3   800  HW6800      0.0321
     13  C10        7.1340    0.7780   25.2820 C.3   800  HW6800      0.1421
     14  O09        6.6430    1.6240   26.3290 O.3   800  HW6800     -0.3547
     15  C3'        5.4210    1.1850   26.9440 C.3   800  HW6800      0.1343
     16  C4'        4.6070    2.4020   27.4170 C.3   800  HW6800      0.0531
     17  C5'        5.0090    2.5880   28.8790 C.3   800  HW6800      0.0916
     18  N1'        5.6540    1.3320   29.2700 N.3   800  HW6800     -0.2154
     19  C2'        5.7860    0.3690   28.1930 C.3   800  HW6800      0.1182
     20  C08        4.8330    3.6450   26.5330 C.3   800  HW6800      0.0629
     21  C06        4.2730    4.9730   27.0200 C.2   800  HW6800      0.1098
     22  C05        2.9320    5.1060   27.4020 C.2   800  HW6800      0.0196
     23  C04        2.4590    6.3540   27.8390 C.2   800  HW6800     -0.0332
     24  C07        1.0100    6.4980   28.2590 C.3   800  HW6800      0.0269
     25  C03        3.3320    7.4570   27.8830 C.3   800  HW6800      0.1001
     26  C02        4.6760    7.2900   27.4900 C.2   800  HW6800      0.2001
     27  N01        5.0930    6.0640   27.0600 N.2   800  HW6800     -0.3924
     28  N02        5.5440    8.3470   27.5220 N.pl3 800  HW6800     -0.0977
@<TRIPOS>BOND
     1     1     2    1
     2     2     4   ar
     3     2     3   ar
     4     4     5   ar
     5     3     7   ar
     6     5     9    1
     7     5     6   ar
     8    12    11    1
     9    12    13    1
    10     9    10    1
    11    10    11    1
    12     7     6   ar
    13     7     8    1
    14    13    14    1
    15    14    15    1
    16    20    21    1
    17    20    16    1
    18    15    16    1
    19    15    19    1
    20    21    27    2
    21    21    22    1
    22    27    26    2
    23    22    23    2
    24    16    17    1
    25    26    28    1
    26    26    25    1
    27    23    25    1
    28    23    24    1
    29    19    18    1
    30    17    18    1
