@<TRIPOS>MOLECULE
3ufs_H4B_A_1.pdb
 17 18 0 0 0
SMALL
GASTEIGER

@<TRIPOS>ATOM
      1  N1         9.6670    2.6000   33.9040 N.2   760  H4B760     -0.2683
      2  C2         9.8030    2.2290   32.6240 C.1   760  H4B760      0.2608
      3  N2        11.0720    2.1050   32.1300 N.pl3 760  H4B760     -0.0220
      4  N3         8.7040    1.9750   31.8650 N.2   760  H4B760     -0.2474
      5  C4         7.4730    2.1260   32.3360 C.1   760  H4B760      0.2441
      6  O4         6.4790    1.8740   31.5980 O.2   760  H4B760     -0.2063
      7  C4A        7.3190    2.5400   33.6490 C.2   760  H4B760      0.2463
      8  C8A        8.4560    2.7830   34.4140 C.1   760  H4B760      0.1270
      9  N5         6.0930    2.7020   34.1920 N.2   760  H4B760     -0.2460
     10  N8         8.3990    3.1860   35.7030 N.2   760  H4B760     -0.2054
     11  C6         6.0470    3.6590   35.3140 C.3   760  H4B760      0.1627
     12  C7         7.1140    3.3480   36.3570 C.3   760  H4B760      0.1643
     13  C9         4.6640    3.7780   35.9630 C.3   760  H4B760      0.2063
     14  O9         4.2680    2.4440   36.3090 O.3   760  H4B760     -0.2183
     15  C10        4.6160    4.7070   37.1840 C.3   760  H4B760      0.1842
     16  C11        3.2310    4.6910   37.8290 C.3   760  H4B760      0.0383
     17  O10        4.9240    6.0700   36.8240 O.3   760  H4B760     -0.2204
@<TRIPOS>BOND
     1     6     5    2
     2     4     5    2
     3     4     2    2
     4     3     2    1
     5     5     7    1
     6     2     1    2
     7     7     9    2
     8     7     8    1
     9     1     8    2
    10     9    11    1
    11     8    10    2
    12    11    13    1
    13    11    12    1
    14    10    12    1
    15    13    14    1
    16    13    15    1
    17    17    15    1
    18    15    16    1
