@<TRIPOS>MOLECULE
3uft_HEM_A_1.pdb
 43 50 0 0 0
SMALL
GASTEIGER

@<TRIPOS>ATOM
      1  CHA       12.7800    4.7430   26.6640 C.2   750  HEM750      0.0000
      2  CHB       16.6660    1.9490   26.3000 C.2   750  HEM750      0.0000
      3  CHC       17.6490    3.4680   21.8630 C.2   750  HEM750      0.0000
      4  CHD       14.5690    7.1250   22.7520 C.2   750  HEM750      0.0000
      5  C1A       13.6650    3.7460   26.9010 C.2   750  HEM750      0.0000
      6  C2A       13.5550    2.7160   27.8770 C.2   750  HEM750      0.0000
      7  C3A       14.6080    1.9430   27.7340 C.2   750  HEM750      0.0000
      8  C4A       15.4100    2.4580   26.6790 C.2   750  HEM750      0.0000
      9  CMA       14.9620    0.6890   28.5760 C.3   750  HEM750      0.0000
     10  CAA       12.3790    2.4680   28.8570 C.3   750  HEM750      0.0000
     11  CBA       11.3700    1.7710   27.9410 C.3   750  HEM750      0.0000
     12  CGA       10.1280    1.3490   28.6480 C.2   750  HEM750      0.0000
     13  O1A       10.2910    0.7730   29.7530 O.co2 750  HEM750      0.0000
     14  O2A        9.0010    1.5380   28.0920 O.co2 750  HEM750      0.0000
     15  C1B       17.1980    1.9830   25.0530 C.ar  750  HEM750      0.0000
     16  C2B       18.2990    1.1660   24.5340 C.ar  750  HEM750      0.0000
     17  C3B       18.5730    1.5910   23.3130 C.ar  750  HEM750      0.0000
     18  C4B       17.7140    2.7380   23.0350 C.ar  750  HEM750      0.0000
     19  CMB       19.0030   -0.0470   25.2000 C.3   750  HEM750      0.0000
     20  CAB       19.6310    0.9340   22.4000 C.2   750  HEM750      0.0000
     21  CBB       20.4250    1.6520   21.5950 C.2   750  HEM750      0.0000
     22  C1C       16.8220    4.5700   21.6670 C.2   750  HEM750      0.0000
     23  C2C       16.7940    5.4230   20.4950 C.2   750  HEM750      0.0000
     24  C3C       15.9400    6.4050   20.8070 C.2   750  HEM750      0.0000
     25  C4C       15.4620    6.2540   22.1340 C.2   750  HEM750      0.0000
     26  CMC       17.4810    5.2220   19.1040 C.3   750  HEM750      0.0000
     27  CAC       15.4870    7.5710   19.9310 C.2   750  HEM750      0.0000
     28  CBC       16.2870    8.0480   19.0140 C.2   750  HEM750      0.0000
     29  C1D       13.7820    6.7930   23.8310 C.ar  750  HEM750      0.0000
     30  C2D       12.6950    7.5580   24.3180 C.ar  750  HEM750      0.0000
     31  C3D       12.1860    6.8220   25.5480 C.ar  750  HEM750      0.0000
     32  C4D       12.9740    5.6600   25.6400 C.ar  750  HEM750      0.0000
     33  CMD       12.1920    8.8950   23.7380 C.3   750  HEM750      0.0000
     34  CAD       10.9490    7.1420   26.4620 C.3   750  HEM750      0.0000
     35  CBD        9.7760    6.4940   25.6820 C.3   750  HEM750      0.0000
     36  CGD        8.4730    6.9000   26.3490 C.2   750  HEM750      0.0000
     37  O1D        8.4900    7.9570   27.0570 O.co2 750  HEM750      0.0000
     38  O2D        7.4510    6.1560   26.1430 O.co2 750  HEM750      0.0000
     39  NA        14.8500    3.6230   26.2430 N.2   750  HEM750      0.0000
     40  NB        16.9300    3.0020   24.1610 N.ar  750  HEM750      0.0000
     41  NC        16.0420    5.1600   22.6690 N.2   750  HEM750      0.0000
     42  ND        14.0240    5.7420   24.7010 N.ar  750  HEM750      0.0000
     43 FE         15.5770    4.4570   24.4790 Fe    750  HEM750      0.0000
@<TRIPOS>BOND
     1    28    27    2
     2    26    23    1
     3    27    24    1
     4    23    24    2
     5    23    22    1
     6    24    25    1
     7    21    20    2
     8    22     3    2
     9    22    41    1
    10     3    18    1
    11    25    41    2
    12    25     4    1
    13    20    17    1
    14    41    43    1
    15     4    29    2
    16    18    17   ar
    17    18    40   ar
    18    17    16   ar
    19    33    30    1
    20    29    30   ar
    21    29    42   ar
    22    40    43    1
    23    40    15   ar
    24    30    31   ar
    25    43    42    1
    26    43    39    1
    27    16    15   ar
    28    16    19    1
    29    42    32   ar
    30    15     2    1
    31    31    32   ar
    32    31    34    1
    33    32     1    2
    34    35    36    1
    35    35    34    1
    36    38    36   ar
    37    39     8    1
    38    39     5    2
    39     2     8    2
    40    36    37   ar
    41     1     5    1
    42     8     7    1
    43     5     6    1
    44     7     6    2
    45     7     9    1
    46     6    10    1
    47    11    12    1
    48    11    10    1
    49    14    12   ar
    50    12    13   ar
