@<TRIPOS>MOLECULE
3uft_H4B_A_1.pdb
 17 18 0 0 0
SMALL
GASTEIGER

@<TRIPOS>ATOM
      1  N1         9.8540    2.5210   33.7620 N.2   760  H4B760     -0.2683
      2  C2        10.0180    2.1920   32.4790 C.1   760  H4B760      0.2608
      3  N2        11.2730    2.0630   31.9950 N.pl3 760  H4B760     -0.0220
      4  N3         8.9270    1.9960   31.7180 N.2   760  H4B760     -0.2474
      5  C4         7.7020    2.1390   32.2070 C.1   760  H4B760      0.2441
      6  O4         6.7430    1.9270   31.4470 O.2   760  H4B760     -0.2063
      7  C4A        7.5340    2.5170   33.5170 C.2   760  H4B760      0.2463
      8  C8A        8.6710    2.7300   34.2760 C.1   760  H4B760      0.1270
      9  N5         6.3100    2.6730   34.0750 N.2   760  H4B760     -0.2460
     10  N8         8.6530    3.1030   35.5740 N.2   760  H4B760     -0.2054
     11  C6         6.3010    3.5980   35.2060 C.3   760  H4B760      0.1627
     12  C7         7.3620    3.2500   36.2390 C.3   760  H4B760      0.1643
     13  C9         4.9340    3.7080   35.8630 C.3   760  H4B760      0.2063
     14  O9         4.4870    2.4180   36.2860 O.3   760  H4B760     -0.2183
     15  C10        4.9380    4.6450   37.0560 C.3   760  H4B760      0.1842
     16  C11        3.5250    4.7220   37.6190 C.3   760  H4B760      0.0383
     17  O10        5.3360    5.9630   36.6420 O.3   760  H4B760     -0.2204
@<TRIPOS>BOND
     1     6     5    2
     2     4     5    2
     3     4     2    2
     4     3     2    1
     5     5     7    1
     6     2     1    2
     7     7     9    2
     8     7     8    1
     9     1     8    2
    10     9    11    1
    11     8    10    2
    12    11    13    1
    13    11    12    1
    14    10    12    1
    15    13    14    1
    16    13    15    1
    17    17    15    1
    18    15    16    1
