@<TRIPOS>MOLECULE
3uft_HW7_A_1.pdb
 28 30 0 0 0
SMALL
GASTEIGER

@<TRIPOS>ATOM
      1 CL2        14.5610   -1.6510   25.5920 Cl    800  HW7800     -0.0821
      2  C25       14.0330   -0.3560   24.4330 C.ar  800  HW7800      0.0629
      3  C24       14.7380    0.0570   23.3100 C.ar  800  HW7800      0.0412
      4  C23       14.1570    1.0840   22.5350 C.ar  800  HW7800      0.1440
      5  F23       14.7160    1.5210   21.4400 F     800  HW7800     -0.2040
      6  C22       12.9690    1.7230   22.8290 C.ar  800  HW7800      0.0666
      7  C26       12.8040    0.2600   24.7280 C.ar  800  HW7800      0.0484
      8  C21       12.2960    1.2960   23.9500 C.ar  800  HW7800      0.1416
      9  O14       11.1080    1.8750   24.3000 O.3   800  HW7800     -0.4754
     10  C13        9.9580    1.0680   24.4370 C.3   800  HW7800      0.2055
     11  C12        8.8550    2.0820   24.6810 C.3   800  HW7800      0.0499
     12  C11        7.5900    1.4610   24.1360 C.3   800  HW7800      0.0359
     13  C10        7.0250    0.6530   25.2710 C.3   800  HW7800      0.1422
     14  O09        6.4340    1.6540   26.0820 O.3   800  HW7800     -0.3547
     15  C3'        5.3770    1.1460   26.9110 C.3   800  HW7800      0.1343
     16  C2'        5.9810    0.5010   28.1560 C.3   800  HW7800      0.1182
     17  C4'        4.6570    2.3870   27.4040 C.3   800  HW7800      0.0531
     18  C5'        5.5740    2.8790   28.5330 C.3   800  HW7800      0.0916
     19  N1'        6.3650    1.6970   28.8890 N.3   800  HW7800     -0.2154
     20  C08        4.4600    3.4380   26.2940 C.3   800  HW7800      0.0629
     21  C06        4.0640    4.7840   26.8790 C.2   800  HW7800      0.1098
     22  N01        4.9570    5.8210   26.8850 N.2   800  HW7800     -0.3924
     23  C05        2.7920    4.9550   27.4040 C.2   800  HW7800      0.0196
     24  C04        2.4210    6.1990   27.9470 C.2   800  HW7800     -0.0332
     25  C07        0.9980    6.3680   28.5110 C.3   800  HW7800      0.0269
     26  C03        3.3680    7.2420   27.9660 C.3   800  HW7800      0.1001
     27  C02        4.6710    7.0410   27.4280 C.2   800  HW7800      0.2001
     28  N02        5.6450    8.0250   27.4150 N.pl3 800  HW7800     -0.0977
@<TRIPOS>BOND
     1     5     4    1
     2     4     6   ar
     3     4     3   ar
     4     6     8   ar
     5     3     2   ar
     6     8     9    1
     7     8     7   ar
     8    12    11    1
     9    12    13    1
    10     9    10    1
    11     2     7   ar
    12     2     1    1
    13    10    11    1
    14    13    14    1
    15    14    15    1
    16    20    21    1
    17    20    17    1
    18    21    22    2
    19    21    23    1
    20    22    27    2
    21    15    17    1
    22    15    16    1
    23    17    18    1
    24    23    24    2
    25    28    27    1
    26    27    26    1
    27    24    26    1
    28    24    25    1
    29    16    19    1
    30    18    19    1
