@<TRIPOS>MOLECULE
3ufu_HEM_A_1.pdb
 43 50 0 0 0
SMALL
GASTEIGER

@<TRIPOS>ATOM
      1  CHA       13.1060    4.6520   26.6120 C.2   750  HEM750      0.0000
      2  CHB       16.9220    1.7350   26.1680 C.2   750  HEM750      0.0000
      3  CHC       17.7470    3.5650   21.7690 C.2   750  HEM750      0.0000
      4  CHD       14.7050    7.2200   22.7450 C.2   750  HEM750      0.0000
      5  C1A       13.9700    3.6110   26.7500 C.2   750  HEM750      0.0000
      6  C2A       13.7790    2.5240   27.6680 C.2   750  HEM750      0.0000
      7  C3A       14.8100    1.6880   27.5950 C.2   750  HEM750      0.0000
      8  C4A       15.7100    2.2350   26.5820 C.2   750  HEM750      0.0000
      9  CMA       14.9880    0.3640   28.4330 C.3   750  HEM750      0.0000
     10  CAA       12.5230    2.3980   28.5460 C.3   750  HEM750      0.0000
     11  CBA       11.6290    1.4710   27.7320 C.3   750  HEM750      0.0000
     12  CGA       10.3630    1.0910   28.4570 C.2   750  HEM750      0.0000
     13  O1A       10.4090    0.7930   29.6680 O.co2 750  HEM750      0.0000
     14  O2A        9.2980    1.0810   27.7920 O.co2 750  HEM750      0.0000
     15  C1B       17.4360    1.9140   24.9130 C.ar  750  HEM750      0.0000
     16  C2B       18.4840    1.1220   24.3030 C.ar  750  HEM750      0.0000
     17  C3B       18.7100    1.6230   23.0940 C.ar  750  HEM750      0.0000
     18  C4B       17.8440    2.7780   22.8990 C.ar  750  HEM750      0.0000
     19  CMB       19.1870   -0.1260   24.9240 C.3   750  HEM750      0.0000
     20  CAB       19.7280    0.9960   22.1220 C.2   750  HEM750      0.0000
     21  CBB       20.4480    1.7210   21.2610 C.2   750  HEM750      0.0000
     22  C1C       16.9530    4.6900   21.6230 C.2   750  HEM750      0.0000
     23  C2C       16.9070    5.5270   20.4350 C.2   750  HEM750      0.0000
     24  C3C       16.0810    6.5540   20.7050 C.2   750  HEM750      0.0000
     25  C4C       15.5810    6.3930   22.0600 C.2   750  HEM750      0.0000
     26  CMC       17.6970    5.1840   19.1580 C.3   750  HEM750      0.0000
     27  CAC       15.6900    7.7450   19.8110 C.2   750  HEM750      0.0000
     28  CBC       16.3750    7.9380   18.6710 C.2   750  HEM750      0.0000
     29  C1D       13.9390    6.8430   23.8320 C.ar  750  HEM750      0.0000
     30  C2D       12.7800    7.5400   24.3090 C.ar  750  HEM750      0.0000
     31  C3D       12.2930    6.7380   25.5050 C.ar  750  HEM750      0.0000
     32  C4D       13.1950    5.6330   25.6430 C.ar  750  HEM750      0.0000
     33  CMD       12.1740    8.8660   23.7460 C.3   750  HEM750      0.0000
     34  CAD       11.0430    7.0330   26.3610 C.3   750  HEM750      0.0000
     35  CBD        9.9400    6.3640   25.5300 C.3   750  HEM750      0.0000
     36  CGD        8.5620    6.5720   26.1040 C.2   750  HEM750      0.0000
     37  O1D        8.3370    7.5920   26.7980 O.co2 750  HEM750      0.0000
     38  O2D        7.7030    5.6990   25.8620 O.co2 750  HEM750      0.0000
     39  NA        15.1930    3.4510   26.1370 N.2   750  HEM750      0.0000
     40  NB        17.1360    2.9930   24.0810 N.ar  750  HEM750      0.0000
     41  NC        16.1630    5.2810   22.5890 N.2   750  HEM750      0.0000
     42  ND        14.2080    5.7610   24.6910 N.ar  750  HEM750      0.0000
     43 FE         15.7760    4.4520   24.4710 Fe    750  HEM750      0.0000
@<TRIPOS>BOND
     1    28    27    2
     2    26    23    1
     3    27    24    1
     4    23    24    2
     5    23    22    1
     6    24    25    1
     7    21    20    2
     8    22     3    2
     9    22    41    1
    10     3    18    1
    11    25    41    2
    12    25     4    1
    13    20    17    1
    14    41    43    1
    15     4    29    2
    16    18    17   ar
    17    18    40   ar
    18    17    16   ar
    19    33    30    1
    20    29    30   ar
    21    29    42   ar
    22    40    43    1
    23    40    15   ar
    24    16    15   ar
    25    16    19    1
    26    30    31   ar
    27    43    42    1
    28    43    39    1
    29    42    32   ar
    30    15     2    1
    31    31    32   ar
    32    31    34    1
    33    35    36    1
    34    35    34    1
    35    32     1    2
    36    38    36   ar
    37    36    37   ar
    38    39     8    1
    39    39     5    2
    40     2     8    2
    41     8     7    1
    42     1     5    1
    43     5     6    1
    44     7     6    2
    45     7     9    1
    46     6    10    1
    47    11    12    1
    48    11    10    1
    49    14    12   ar
    50    12    13   ar
