@<TRIPOS>MOLECULE
3ufu_H4B_A_1.pdb
 17 18 0 0 0
SMALL
GASTEIGER

@<TRIPOS>ATOM
      1  N1         9.9420    2.4900   33.7550 N.2   760  H4B760     -0.2683
      2  C2        10.1180    2.1640   32.4600 C.1   760  H4B760      0.2608
      3  N2        11.3910    2.0660   31.9300 N.pl3 760  H4B760     -0.0220
      4  N3         9.0380    1.9330   31.7000 N.2   760  H4B760     -0.2474
      5  C4         7.7700    2.0170   32.2060 C.1   760  H4B760      0.2441
      6  O4         6.8020    1.7510   31.4380 O.2   760  H4B760     -0.2063
      7  C4A        7.5870    2.4070   33.5310 C.2   760  H4B760      0.2463
      8  C8A        8.7260    2.6430   34.2990 C.1   760  H4B760      0.1270
      9  N5         6.3520    2.5260   34.1260 N.2   760  H4B760     -0.2460
     10  N8         8.6500    3.0160   35.6030 N.2   760  H4B760     -0.2054
     11  C6         6.2780    3.3960   35.2810 C.3   760  H4B760      0.1627
     12  C7         7.3690    3.1020   36.3060 C.3   760  H4B760      0.1643
     13  C9         4.8640    3.4870   35.8640 C.3   760  H4B760      0.2063
     14  O9         4.4800    2.1670   36.2320 O.3   760  H4B760     -0.2183
     15  C10        4.7850    4.4480   37.0300 C.3   760  H4B760      0.1842
     16  C11        3.3500    4.5850   37.5030 C.3   760  H4B760      0.0383
     17  O10        5.2250    5.7300   36.5620 O.3   760  H4B760     -0.2204
@<TRIPOS>BOND
     1     6     5    2
     2     4     5    2
     3     4     2    2
     4     3     2    1
     5     5     7    1
     6     2     1    2
     7     7     9    2
     8     7     8    1
     9     1     8    2
    10     9    11    1
    11     8    10    2
    12    11    13    1
    13    11    12    1
    14    10    12    1
    15    13    14    1
    16    13    15    1
    17    17    15    1
    18    15    16    1
