@<TRIPOS>MOLECULE
3ufu_HW8_A_1.pdb
 26 28 0 0 0
SMALL
GASTEIGER

@<TRIPOS>ATOM
      1  N02        5.6590    8.1540   27.6210 N.pl3 800  HW8800     -0.0977
      2  C02        4.8120    7.0780   27.5840 C.2   800  HW8800      0.2001
      3  C03        3.5410    7.1800   28.1660 C.3   800  HW8800      0.1001
      4  C04        2.6740    6.0820   28.1420 C.2   800  HW8800     -0.0332
      5  C07        1.2930    6.1920   28.7570 C.3   800  HW8800      0.0269
      6  C05        3.0870    4.8830   27.5410 C.2   800  HW8800      0.0196
      7  C06        4.3640    4.8100   26.9880 C.2   800  HW8800      0.1098
      8  N01        5.1750    5.8940   27.0140 N.2   800  HW8800     -0.3924
      9  C08        4.8390    3.5190   26.3400 C.3   800  HW8800      0.0629
     10  C4'        5.0530    2.4220   27.3880 C.3   800  HW8800      0.0531
     11  C5'        6.0620    2.8460   28.4630 C.3   800  HW8800      0.0916
     12  N1'        6.8610    1.6480   28.7500 N.3   800  HW8800     -0.2154
     13  C3'        5.6630    1.1510   26.8200 C.3   800  HW8800      0.1343
     14  C2'        6.3750    0.4940   28.0150 C.3   800  HW8800      0.1182
     15  O09        6.6140    1.5410   25.8210 O.3   800  HW8800     -0.3547
     16  C10        7.1690    0.3920   25.1820 C.3   800  HW8800      0.1421
     17  C11        8.0270    0.8330   24.0070 C.3   800  HW8800      0.0321
     18  C12        9.3470    1.1670   24.6520 C.3   800  HW8800      0.0030
     19  C13       10.5130    0.6530   23.8640 C.3   800  HW8800      0.0064
     20  C14       11.5610    1.6490   24.2730 C.3   800  HW8800      0.0458
     21  C26       12.8760    1.2810   23.6330 C.ar  800  HW8800      0.0590
     22  N21       13.5800    0.2000   24.0920 N.ar  800  HW8800     -0.2482
     23  C22       14.7740   -0.1360   23.6090 C.ar  800  HW8800      0.0984
     24  C23       15.2660    0.6220   22.5430 C.ar  800  HW8800      0.0207
     25  C24       14.5540    1.7020   22.0250 C.ar  800  HW8800      0.0028
     26  C25       13.3300    2.0660   22.5740 C.ar  800  HW8800      0.0147
@<TRIPOS>BOND
     1    25    24   ar
     2    25    26   ar
     3    24    23   ar
     4    26    21   ar
     5    23    22   ar
     6    21    22   ar
     7    21    20    1
     8    19    20    1
     9    19    18    1
    10    17    18    1
    11    17    16    1
    12    16    15    1
    13    15    13    1
    14     9     7    1
    15     9    10    1
    16    13    10    1
    17    13    14    1
    18     7     8    2
    19     7     6    1
    20     8     2    2
    21    10    11    1
    22     6     4    2
    23     2     1    1
    24     2     3    1
    25    14    12    1
    26     4     3    1
    27     4     5    1
    28    11    12    1
