@<TRIPOS>MOLECULE
3ufv_HEM_A_1.pdb
 43 50 0 0 0
SMALL
GASTEIGER

@<TRIPOS>ATOM
      1  CHA       13.0130    4.6910   26.4220 C.2   750  HEM750      0.0000
      2  CHB       16.8360    1.7750   26.1200 C.2   750  HEM750      0.0000
      3  CHC       17.7280    3.6020   21.7390 C.2   750  HEM750      0.0000
      4  CHD       14.7330    7.3490   22.6720 C.2   750  HEM750      0.0000
      5  C1A       13.8460    3.6320   26.6320 C.2   750  HEM750      0.0000
      6  C2A       13.6690    2.5640   27.5870 C.2   750  HEM750      0.0000
      7  C3A       14.7320    1.7570   27.5130 C.2   750  HEM750      0.0000
      8  C4A       15.6120    2.2780   26.4930 C.2   750  HEM750      0.0000
      9  CMA       14.9920    0.4740   28.3420 C.3   750  HEM750      0.0000
     10  CAA       12.4600    2.3790   28.5110 C.3   750  HEM750      0.0000
     11  CBA       11.3270    1.9560   27.5670 C.3   750  HEM750      0.0000
     12  CGA       10.2250    1.3010   28.3150 C.2   750  HEM750      0.0000
     13  O1A       10.4950    0.9780   29.5040 O.co2 750  HEM750      0.0000
     14  O2A        9.1020    1.1260   27.7220 O.co2 750  HEM750      0.0000
     15  C1B       17.3730    1.9510   24.8770 C.ar  750  HEM750      0.0000
     16  C2B       18.4270    1.1610   24.3070 C.ar  750  HEM750      0.0000
     17  C3B       18.6910    1.6470   23.1020 C.ar  750  HEM750      0.0000
     18  C4B       17.8190    2.7900   22.8630 C.ar  750  HEM750      0.0000
     19  CMB       19.0870   -0.0640   24.9940 C.3   750  HEM750      0.0000
     20  CAB       19.7240    0.9940   22.1620 C.2   750  HEM750      0.0000
     21  CBB       20.4890    1.6790   21.3190 C.2   750  HEM750      0.0000
     22  C1C       16.9420    4.7440   21.5860 C.2   750  HEM750      0.0000
     23  C2C       16.8950    5.5740   20.3910 C.2   750  HEM750      0.0000
     24  C3C       16.0580    6.6120   20.6460 C.2   750  HEM750      0.0000
     25  C4C       15.5810    6.4900   22.0060 C.2   750  HEM750      0.0000
     26  CMC       17.6360    5.2160   19.0590 C.3   750  HEM750      0.0000
     27  CAC       15.6240    7.7660   19.7250 C.2   750  HEM750      0.0000
     28  CBC       16.3700    8.1160   18.6680 C.2   750  HEM750      0.0000
     29  C1D       13.9020    6.9610   23.7130 C.ar  750  HEM750      0.0000
     30  C2D       12.7560    7.6600   24.2010 C.ar  750  HEM750      0.0000
     31  C3D       12.2790    6.8320   25.3880 C.ar  750  HEM750      0.0000
     32  C4D       13.1430    5.6920   25.4720 C.ar  750  HEM750      0.0000
     33  CMD       12.1590    9.0040   23.6730 C.3   750  HEM750      0.0000
     34  CAD       11.0160    7.0700   26.2590 C.3   750  HEM750      0.0000
     35  CBD        9.8710    6.4290   25.4530 C.3   750  HEM750      0.0000
     36  CGD        8.5350    6.7380   26.0980 C.2   750  HEM750      0.0000
     37  O1D        8.4080    7.7260   26.8550 O.co2 750  HEM750      0.0000
     38  O2D        7.5870    5.9580   25.8770 O.co2 750  HEM750      0.0000
     39  NA        15.0810    3.4660   26.0450 N.2   750  HEM750      0.0000
     40  NB        17.0950    3.0150   24.0250 N.ar  750  HEM750      0.0000
     41  NC        16.1640    5.3760   22.5500 N.2   750  HEM750      0.0000
     42  ND        14.1490    5.8470   24.5300 N.ar  750  HEM750      0.0000
     43 FE         15.7150    4.5120   24.3450 Fe    750  HEM750      0.0000
@<TRIPOS>BOND
     1    28    27    2
     2    26    23    1
     3    27    24    1
     4    23    24    2
     5    23    22    1
     6    24    25    1
     7    21    20    2
     8    22     3    2
     9    22    41    1
    10     3    18    1
    11    25    41    2
    12    25     4    1
    13    20    17    1
    14    41    43    1
    15     4    29    2
    16    18    17   ar
    17    18    40   ar
    18    17    16   ar
    19    33    30    1
    20    29    30   ar
    21    29    42   ar
    22    40    43    1
    23    40    15   ar
    24    30    31   ar
    25    16    15   ar
    26    16    19    1
    27    43    42    1
    28    43    39    1
    29    42    32   ar
    30    15     2    1
    31    31    32   ar
    32    31    34    1
    33    35    36    1
    34    35    34    1
    35    32     1    2
    36    38    36   ar
    37    39     8    1
    38    39     5    2
    39    36    37   ar
    40     2     8    2
    41     1     5    1
    42     8     7    1
    43     5     6    1
    44     7     6    2
    45     7     9    1
    46    11    12    1
    47    11    10    1
    48     6    10    1
    49    14    12   ar
    50    12    13   ar
