@<TRIPOS>MOLECULE
3ufv_H4B_A_1.pdb
 17 18 0 0 0
SMALL
GASTEIGER

@<TRIPOS>ATOM
      1  N1         9.8910    2.5500   33.6270 N.2   760  H4B760     -0.2683
      2  C2        10.0310    2.1890   32.3270 C.1   760  H4B760      0.2608
      3  N2        11.2720    2.0970   31.7610 N.pl3 760  H4B760     -0.0220
      4  N3         8.9360    1.9870   31.5680 N.2   760  H4B760     -0.2474
      5  C4         7.6970    2.0850   32.0820 C.1   760  H4B760      0.2441
      6  O4         6.7560    1.8040   31.2960 O.2   760  H4B760     -0.2063
      7  C4A        7.5430    2.4690   33.4330 C.2   760  H4B760      0.2463
      8  C8A        8.6890    2.7230   34.1860 C.1   760  H4B760      0.1270
      9  N5         6.3480    2.6150   34.0480 N.2   760  H4B760     -0.2460
     10  N8         8.6440    3.0850   35.4940 N.2   760  H4B760     -0.2054
     11  C6         6.3090    3.5410   35.1690 C.3   760  H4B760      0.1627
     12  C7         7.3750    3.2100   36.2030 C.3   760  H4B760      0.1643
     13  C9         4.9120    3.6070   35.7730 C.3   760  H4B760      0.2063
     14  O9         4.5420    2.2920   36.2060 O.3   760  H4B760     -0.2183
     15  C10        4.8530    4.5860   36.9210 C.3   760  H4B760      0.1842
     16  C11        3.4290    4.7140   37.4520 C.3   760  H4B760      0.0383
     17  O10        5.2710    5.8720   36.4610 O.3   760  H4B760     -0.2204
@<TRIPOS>BOND
     1     6     5    2
     2     4     5    2
     3     4     2    2
     4     3     2    1
     5     5     7    1
     6     2     1    2
     7     7     9    2
     8     7     8    1
     9     1     8    2
    10     9    11    1
    11     8    10    2
    12    11    13    1
    13    11    12    1
    14    10    12    1
    15    13    14    1
    16    13    15    1
    17    17    15    1
    18    15    16    1
