@<TRIPOS>MOLECULE
3ufv_HW9_A_1.pdb
 27 29 0 0 0
SMALL
GASTEIGER

@<TRIPOS>ATOM
      1  N02        5.8960    9.1370   27.5330 N.pl3 800  HW9800     -0.0977
      2  C02        5.0180    8.1080   27.4900 C.2   800  HW9800      0.2001
      3  C03        3.7000    8.2100   27.9940 C.3   800  HW9800      0.1001
      4  C04        2.8170    7.1060   27.9080 C.2   800  HW9800     -0.0332
      5  C05        3.2570    5.9260   27.3320 C.2   800  HW9800      0.0196
      6  C07        1.3920    7.1330   28.4210 C.3   800  HW9800      0.0269
      7  N01        5.3940    6.9390   26.9270 N.2   800  HW9800     -0.3924
      8  C06        4.5560    5.8710   26.8490 C.2   800  HW9800      0.1098
      9  C08        5.0350    4.6010   26.2230 C.3   800  HW9800      0.0629
     10  C4'        4.3000    3.3870   26.7740 C.3   800  HW9800      0.0531
     11  C3'        4.7880    2.1020   26.1360 C.3   800  HW9800      0.1343
     12  C2'        4.3160    1.0110   27.1030 C.3   800  HW9800      0.1182
     13  N1'        4.3220    1.7010   28.3860 N.3   800  HW9800     -0.2154
     14  C5'        4.5150    3.1410   28.2690 C.3   800  HW9800      0.0916
     15  O09        6.2230    2.1650   26.0470 O.3   800  HW9800     -0.3547
     16  C10        6.7800    1.1720   25.1960 C.3   800  HW9800      0.1421
     17  C11        7.7850    1.8560   24.2930 C.3   800  HW9800      0.0321
     18  C12        8.8150    0.8460   23.8650 C.3   800  HW9800      0.0030
     19  C13       10.2050    1.3610   24.1820 C.3   800  HW9800      0.0064
     20  C14       11.1020    0.2170   23.7600 C.3   800  HW9800      0.0458
     21  C26       12.5100    0.5900   23.2940 C.ar  800  HW9800      0.0587
     22  N21       13.5880   -0.0210   23.8640 N.ar  800  HW9800     -0.2482
     23  C22       14.8380    0.2290   23.4640 C.ar  800  HW9800      0.0981
     24  C23       15.0420    1.1360   22.4360 C.ar  800  HW9800      0.0164
     25  C24       13.9710    1.7850   21.8340 C.ar  800  HW9800     -0.0191
     26  C25       12.6800    1.5040   22.2430 C.ar  800  HW9800      0.0105
     27  C27       14.2000    2.7600   20.6970 C.3   800  HW9800      0.0311
@<TRIPOS>BOND
     1    27    25    1
     2    25    26   ar
     3    25    24   ar
     4    26    21   ar
     5    24    23   ar
     6    21    20    1
     7    21    22   ar
     8    23    22   ar
     9    20    19    1
    10    18    19    1
    11    18    17    1
    12    17    16    1
    13    16    15    1
    14    15    11    1
    15    11    10    1
    16    11    12    1
    17     9    10    1
    18     9     8    1
    19    10    14    1
    20     8     7    2
    21     8     5    1
    22     7     2    2
    23    12    13    1
    24     5     4    2
    25     2     1    1
    26     2     3    1
    27     4     3    1
    28     4     6    1
    29    14    13    1
