@<TRIPOS>MOLECULE
3ufw_HW0_A_1.pdb
 27 29 0 0 0
SMALL
GASTEIGER

@<TRIPOS>ATOM
      1  N22       15.2260   -0.7310   23.7880 N.pl3 800  HW0800     -0.0977
      2  C22       14.4550    0.2770   23.3580 C.2   800  HW0800      0.2004
      3  C23       14.8500    1.0120   22.2530 C.3   800  HW0800      0.1041
      4  C24       14.0630    2.0660   21.7900 C.2   800  HW0800     -0.0149
      5  C25       12.9060    2.3760   22.4700 C.2   800  HW0800      0.0235
      6  N21       13.2760    0.5500   23.9990 N.2   800  HW0800     -0.3924
      7  C26       12.5150    1.6120   23.5730 C.2   800  HW0800      0.1100
      8  C14       11.2240    1.9810   24.2780 C.3   800  HW0800      0.0590
      9  C13       10.3370    0.7500   24.2960 C.3   800  HW0800      0.0075
     10  C12        9.0610    0.9500   23.5250 C.3   800  HW0800      0.0030
     11  C11        8.0930    1.7240   24.3820 C.3   800  HW0800      0.0321
     12  C10        7.0820    0.7800   25.0120 C.3   800  HW0800      0.1421
     13  O09        6.2890    1.6660   25.7940 O.3   800  HW0800     -0.3547
     14  C4'        5.4730    1.0570   26.8060 C.3   800  HW0800      0.1343
     15  C5'        6.3110    0.3920   27.9160 C.3   800  HW0800      0.1182
     16  N1'        6.5790    1.4920   28.8200 N.3   800  HW0800     -0.2154
     17  C2'        5.7150    2.6630   28.5620 C.3   800  HW0800      0.0916
     18  C3'        4.7750    2.2640   27.4160 C.3   800  HW0800      0.0531
     19  C08        4.6060    3.3470   26.3310 C.3   800  HW0800      0.0629
     20  C06        4.2290    4.6960   26.8980 C.2   800  HW0800      0.1098
     21  N01        5.0960    5.7570   26.9280 N.2   800  HW0800     -0.3924
     22  C02        4.7420    6.9710   27.4630 C.2   800  HW0800      0.2001
     23  N02        5.6150    8.0410   27.5180 N.pl3 800  HW0800     -0.0977
     24  C03        3.4300    7.1110   27.9690 C.3   800  HW0800      0.1001
     25  C04        2.5230    6.0380   27.9310 C.2   800  HW0800     -0.0332
     26  C05        2.9380    4.8210   27.3960 C.2   800  HW0800      0.0196
     27  C07        1.0950    6.1480   28.4600 C.3   800  HW0800      0.0269
@<TRIPOS>BOND
     1     4     3    1
     2     4     5    2
     3     3     2    1
     4     5     7    1
     5     2     1    1
     6     2     6    2
     7    10     9    1
     8    10    11    1
     9     7     6    2
    10     7     8    1
    11     8     9    1
    12    11    12    1
    13    12    13    1
    14    13    14    1
    15    19    20    1
    16    19    18    1
    17    14    18    1
    18    14    15    1
    19    20    21    2
    20    20    26    1
    21    21    22    2
    22    26    25    2
    23    18    17    1
    24    22    23    1
    25    22    24    1
    26    15    16    1
    27    25    24    1
    28    25    27    1
    29    17    16    1
