@<TRIPOS>MOLECULE
3ufw_H4B_A_1.pdb
 17 18 0 0 0
SMALL
GASTEIGER

@<TRIPOS>ATOM
      1  N1         9.8580    2.4610   33.7500 N.2   760  H4B760     -0.2683
      2  C2        10.0500    2.0690   32.4810 C.1   760  H4B760      0.2608
      3  N2        11.3280    1.9210   32.0140 N.pl3 760  H4B760     -0.0220
      4  N3         9.0050    1.8510   31.6900 N.2   760  H4B760     -0.2474
      5  C4         7.7460    2.0020   32.1460 C.1   760  H4B760      0.2441
      6  O4         6.8050    1.7530   31.3640 O.2   760  H4B760     -0.2063
      7  C4A        7.5420    2.4370   33.4590 C.2   760  H4B760      0.2463
      8  C8A        8.6590    2.6760   34.2440 C.1   760  H4B760      0.1270
      9  N5         6.3340    2.6330   34.0000 N.2   760  H4B760     -0.2460
     10  N8         8.5860    3.0780   35.5300 N.2   760  H4B760     -0.2054
     11  C6         6.2670    3.5770   35.1120 C.3   760  H4B760      0.1627
     12  C7         7.3050    3.2500   36.1760 C.3   760  H4B760      0.1643
     13  C9         4.8980    3.6010   35.7630 C.3   760  H4B760      0.2063
     14  O9         4.6470    2.2780   36.2070 O.3   760  H4B760     -0.2183
     15  C10        4.8520    4.5440   36.9600 C.3   760  H4B760      0.1842
     16  C11        3.4390    4.5960   37.5300 C.3   760  H4B760      0.0383
     17  O10        5.1870    5.8750   36.5610 O.3   760  H4B760     -0.2204
@<TRIPOS>BOND
     1     6     5    2
     2     4     5    2
     3     4     2    2
     4     3     2    1
     5     5     7    1
     6     2     1    2
     7     7     9    2
     8     7     8    1
     9     1     8    2
    10     9    11    1
    11     8    10    2
    12    11    13    1
    13    11    12    1
    14    10    12    1
    15    13    14    1
    16    13    15    1
    17    17    15    1
    18    15    16    1
