@<TRIPOS>MOLECULE
3ufw_HEM_A_1.pdb
 43 50 0 0 0
SMALL
GASTEIGER

@<TRIPOS>ATOM
      1  CHA       13.0090    4.6400   26.5150 C.2   750  HEM750      0.0000
      2  CHB       16.8400    1.6880   26.2100 C.2   750  HEM750      0.0000
      3  CHC       17.7380    3.4560   21.7980 C.2   750  HEM750      0.0000
      4  CHD       14.7390    7.2020   22.7700 C.2   750  HEM750      0.0000
      5  C1A       13.8630    3.6010   26.7230 C.2   750  HEM750      0.0000
      6  C2A       13.6770    2.5850   27.7130 C.2   750  HEM750      0.0000
      7  C3A       14.7310    1.7450   27.6420 C.2   750  HEM750      0.0000
      8  C4A       15.6210    2.2220   26.5960 C.2   750  HEM750      0.0000
      9  CMA       14.9730    0.4790   28.5040 C.3   750  HEM750      0.0000
     10  CAA       12.4390    2.5080   28.6220 C.3   750  HEM750      0.0000
     11  CBA       11.5120    1.6300   27.7800 C.3   750  HEM750      0.0000
     12  CGA       10.3380    1.0680   28.5170 C.2   750  HEM750      0.0000
     13  O1A       10.5390    0.5620   29.6440 O.co2 750  HEM750      0.0000
     14  O2A        9.2110    1.1040   27.9250 O.co2 750  HEM750      0.0000
     15  C1B       17.4140    1.8500   24.9720 C.ar  750  HEM750      0.0000
     16  C2B       18.5220    1.0850   24.4190 C.ar  750  HEM750      0.0000
     17  C3B       18.7730    1.5860   23.2080 C.ar  750  HEM750      0.0000
     18  C4B       17.8530    2.6830   22.9430 C.ar  750  HEM750      0.0000
     19  CMB       19.2850   -0.1000   25.0860 C.3   750  HEM750      0.0000
     20  CAB       19.8660    1.0090   22.2940 C.2   750  HEM750      0.0000
     21  CBB       20.4350    1.6380   21.2790 C.2   750  HEM750      0.0000
     22  C1C       16.9220    4.5790   21.6520 C.2   750  HEM750      0.0000
     23  C2C       16.8830    5.4230   20.4690 C.2   750  HEM750      0.0000
     24  C3C       16.0540    6.4430   20.7390 C.2   750  HEM750      0.0000
     25  C4C       15.5850    6.3190   22.1030 C.2   750  HEM750      0.0000
     26  CMC       17.6070    5.1080   19.1350 C.3   750  HEM750      0.0000
     27  CAC       15.6590    7.6140   19.8080 C.2   750  HEM750      0.0000
     28  CBC       16.4280    7.9180   18.7640 C.2   750  HEM750      0.0000
     29  C1D       13.9040    6.8460   23.8000 C.ar  750  HEM750      0.0000
     30  C2D       12.6960    7.5170   24.2260 C.ar  750  HEM750      0.0000
     31  C3D       12.1950    6.6830   25.3890 C.ar  750  HEM750      0.0000
     32  C4D       13.1480    5.6210   25.5440 C.ar  750  HEM750      0.0000
     33  CMD       12.0490    8.8330   23.6750 C.3   750  HEM750      0.0000
     34  CAD       10.9150    6.9050   26.2510 C.3   750  HEM750      0.0000
     35  CBD        9.7640    6.2370   25.4680 C.3   750  HEM750      0.0000
     36  CGD        8.4420    6.6000   26.0770 C.2   750  HEM750      0.0000
     37  O1D        8.3310    7.6520   26.7640 O.co2 750  HEM750      0.0000
     38  O2D        7.5180    5.8090   25.8740 O.co2 750  HEM750      0.0000
     39  NA        15.1090    3.4110   26.1290 N.2   750  HEM750      0.0000
     40  NB        17.0880    2.8640   24.0770 N.ar  750  HEM750      0.0000
     41  NC        16.1540    5.2090   22.6380 N.2   750  HEM750      0.0000
     42  ND        14.1830    5.7730   24.6330 N.ar  750  HEM750      0.0000
     43 FE         15.7360    4.4060   24.4050 Fe    750  HEM750      0.0000
@<TRIPOS>BOND
     1    28    27    2
     2    26    23    1
     3    27    24    1
     4    23    24    2
     5    23    22    1
     6    24    25    1
     7    21    20    2
     8    22     3    2
     9    22    41    1
    10     3    18    1
    11    25    41    2
    12    25     4    1
    13    20    17    1
    14    41    43    1
    15     4    29    2
    16    18    17   ar
    17    18    40   ar
    18    17    16   ar
    19    33    30    1
    20    29    30   ar
    21    29    42   ar
    22    40    43    1
    23    40    15   ar
    24    30    31   ar
    25    43    42    1
    26    43    39    1
    27    16    15   ar
    28    16    19    1
    29    42    32   ar
    30    15     2    1
    31    31    32   ar
    32    31    34    1
    33    35    36    1
    34    35    34    1
    35    32     1    2
    36    38    36   ar
    37    36    37   ar
    38    39     8    1
    39    39     5    2
    40     2     8    2
    41     1     5    1
    42     8     7    1
    43     5     6    1
    44     7     6    2
    45     7     9    1
    46     6    10    1
    47    11    12    1
    48    11    10    1
    49    14    12   ar
    50    12    13   ar
