@<TRIPOS>MOLECULE
3ufx_GDP_B_1.pdb
 28 30 0 0 0
SMALL
GASTEIGER

@<TRIPOS>ATOM
      1  PB        47.5340   -2.8730  103.8070 P.3   398  GDP398      0.5373
      2  O1B       48.2960   -4.0530  103.2590 O.2   398  GDP398     -0.2221
      3  O2B       48.5450   -1.9090  104.3610 O.3   398  GDP398     -0.1143
      4  O3B       46.6470   -3.2760  104.9590 O.3   398  GDP398     -0.1143
      5  O3A       46.7200   -2.1600  102.5940 O.3   398  GDP398     -0.2261
      6  PA        45.2600   -1.4560  102.7120 P.3   398  GDP398      0.2231
      7  O1A       44.5950   -1.3340  101.3670 O.2   398  GDP398     -0.5169
      8  O2A       44.3450   -2.1520  103.6900 O.3   398  GDP398     -0.4370
      9  O5'       45.6000   -0.0050  103.3100 O.3   398  GDP398     -0.3111
     10  C5'       45.6550    0.0940  104.7390 C.3   398  GDP398      0.1813
     11  C4'       44.7260    1.1780  105.2750 C.3   398  GDP398      0.1799
     12  O4'       44.5430    2.2420  104.3230 O.3   398  GDP398     -0.3326
     13  C3'       43.3560    0.6200  105.6340 C.3   398  GDP398      0.2158
     14  O3'       43.2250    0.4950  107.0660 O.3   398  GDP398     -0.2175
     15  C2'       42.3760    1.6400  105.0710 C.3   398  GDP398      0.2310
     16  O2'       41.6750    2.2640  106.1470 O.3   398  GDP398     -0.2158
     17  C1'       43.1890    2.6980  104.3310 C.3   398  GDP398      0.2293
     18  N9        42.6580    2.8650  102.9500 N.pl3 398  GDP398     -0.2354
     19  C8        42.8600    2.0300  101.9090 C.3   398  GDP398      0.2246
     20  N7        42.2260    2.4770  100.7910 N.2   398  GDP398     -0.2322
     21  C5        41.5960    3.6230  101.1090 C.2   398  GDP398      0.2182
     22  C6        40.7410    4.6160  100.4050 C.1   398  GDP398      0.2372
     23  O6        40.4440    4.4760   99.2020 O.2   398  GDP398     -0.2069
     24  N1        40.2860    5.6740  101.1000 N.2   398  GDP398     -0.2485
     25  C2        40.5830    5.8540  102.4070 C.1   398  GDP398      0.2531
     26  N2        40.0940    6.9430  103.0530 N.pl3 398  GDP398     -0.0226
     27  N3        41.3600    4.9790  103.1080 N.2   398  GDP398     -0.3074
     28  C4        41.8840    3.8710  102.5300 C.2   398  GDP398      0.2300
@<TRIPOS>BOND
     1    23    22    2
     2    22    24    2
     3    22    21    1
     4    20    21    2
     5    20    19    1
     6    24    25    2
     7    21    28    1
     8     7     6    2
     9    19    18    1
    10    25    26    1
    11    25    27    2
    12    28    18    1
    13    28    27    2
    14     5     6    1
    15     5     1    1
    16     6     9    1
    17     6     8    1
    18    18    17    1
    19     2     1    2
    20     9    10    1
    21     1     3    1
    22     1     4    1
    23    12    17    1
    24    12    11    1
    25    17    15    1
    26    10    11    1
    27    15    13    1
    28    15    16    1
    29    11    13    1
    30    13    14    1
