@<TRIPOS>MOLECULE
3ufy_NPX_A_1.pdb
 17 18 0 0 0
SMALL
GASTEIGER

@<TRIPOS>ATOM
      1  C1         1.7420   -9.9660   15.6050 C.ar  701  NPX701      0.1387
      2  O2         1.7450  -11.3050   15.7960 O.3   701  NPX701     -0.4714
      3  C2         1.4570   -9.1620   16.6840 C.ar  701  NPX701      0.0369
      4  C3         1.3750   -7.7900   16.5570 C.ar  701  NPX701      0.0031
      5  C4         1.6200   -7.2090   15.3370 C.ar  701  NPX701     -0.0001
      6  C5         1.9470   -8.0030   14.2450 C.ar  701  NPX701      0.0030
      7  C6         1.9840   -9.3880   14.3680 C.ar  701  NPX701      0.0369
      8  C7         1.5670   -5.8110   15.2410 C.ar  701  NPX701     -0.0037
      9  C8         1.7970   -5.1950   14.0260 C.ar  701  NPX701     -0.0118
     10  C9         1.6970   -3.7070   13.9500 C.3   701  NPX701      0.1256
     11  C10        2.9540   -3.0100   13.3820 C.3   701  NPX701      0.0166
     12  C13        2.2120   -7.3830   12.9930 C.ar  701  NPX701     -0.0002
     13  C11        2.1140   -5.9860   12.8630 C.ar  701  NPX701     -0.0037
     14  C12        2.1250  -12.2480   14.7410 C.3   701  NPX701      0.2525
     15  O         -0.6850   -3.4460   13.7440 O.co2 701  NPX701     -0.2453
     16  OXT        0.5260   -2.7440   12.0250 O.co2 701  NPX701     -0.2453
     17  C15        0.4660   -3.2980   13.1760 C.2   701  NPX701      0.3683
@<TRIPOS>BOND
     1    16    17   ar
     2    13    12   ar
     3    13     9   ar
     4    12     6   ar
     5    17    15   ar
     6    17    10    1
     7    11    10    1
     8    10     9    1
     9     9     8   ar
    10     6     7   ar
    11     6     5   ar
    12     7     1   ar
    13    14     2    1
    14     8     5   ar
    15     5     4   ar
    16     1     2    1
    17     1     3   ar
    18     4     3   ar
