@<TRIPOS>MOLECULE
3ufy_NAP_A_1.pdb
 48 52 0 0 0
SMALL
GASTEIGER

@<TRIPOS>ATOM
      1  PA        -1.9270   -3.6760    2.9580 P.3   700  NAP700      0.2189
      2  O1A       -3.3690   -3.3710    3.1140 O.3   700  NAP700     -0.4371
      3  O2A       -1.4390   -5.1480    2.8550 O.2   700  NAP700     -0.5170
      4  O5B       -1.1950   -2.8270    1.7960 O.3   700  NAP700     -0.3112
      5  C5B        0.1340   -3.1150    1.3520 C.3   700  NAP700      0.1813
      6  C4B        0.5030   -2.0010    0.3700 C.3   700  NAP700      0.1820
      7  O4B       -0.4920   -2.1000   -0.7310 O.3   700  NAP700     -0.3136
      8  C3B        0.2300   -0.5930    0.9140 C.3   700  NAP700      0.2157
      9  O3B        1.3910    0.0150    1.5200 O.3   700  NAP700     -0.2175
     10  C2B       -0.2720    0.2240   -0.3390 C.3   700  NAP700      0.2314
     11  O2B        0.6820    1.1520   -0.8640 O.3   700  NAP700     -0.2630
     12  C1B       -0.4710   -0.8280   -1.4020 C.3   700  NAP700      0.3158
     13  N9A       -1.7460   -0.7300   -2.1510 N.pl3 700  NAP700     -0.1439
     14  C8A       -2.9590   -0.4010   -1.6470 C.3   700  NAP700      0.3377
     15  N7A       -3.8730   -0.4470   -2.6470 N.2   700  NAP700     -0.2095
     16  C5A       -3.2420   -0.7810   -3.7640 C.2   700  NAP700      0.2526
     17  C6A       -3.7130   -0.9420   -5.0720 C.2   700  NAP700      0.4393
     18  N6A       -5.0480   -0.7530   -5.4000 N.pl3 700  NAP700      0.2180
     19  N1A       -2.7900   -1.2650   -6.0050 N.2   700  NAP700      0.0021
     20  C2A       -1.4630   -1.4330   -5.7170 C.3   700  NAP700      0.5254
     21  N3A       -0.9620   -1.3100   -4.4620 N.2   700  NAP700     -0.0055
     22  C4A       -1.8700   -0.9650   -3.4610 C.2   700  NAP700      0.3518
     23  O3        -1.1360   -3.0060    4.1980 O.3   700  NAP700     -0.2703
     24  PN        -0.9970   -3.2090    5.8030 P.3   700  NAP700      0.2189
     25  O1N       -0.7600   -1.8310    6.3130 O.3   700  NAP700     -0.4371
     26  O2N        0.0680   -4.2460    6.0140 O.2   700  NAP700     -0.5170
     27  O5D       -2.4140   -3.8310    6.2670 O.3   700  NAP700     -0.3112
     28  C5D       -3.6190   -2.9840    6.1840 C.3   700  NAP700      0.1813
     29  C4D       -3.9780   -2.4900    7.6090 C.3   700  NAP700      0.1799
     30  O4D       -4.2020   -3.6130    8.5190 O.3   700  NAP700     -0.3327
     31  C3D       -2.9210   -1.7060    8.3230 C.3   700  NAP700      0.2158
     32  O3D       -2.8440   -0.3570    7.8440 O.3   700  NAP700     -0.2175
     33  C2D       -3.4510   -1.6940    9.7790 C.3   700  NAP700      0.2309
     34  O2D       -4.6820   -0.8790    9.7800 O.3   700  NAP700     -0.2158
     35  C1D       -3.9300   -3.1640    9.8830 C.3   700  NAP700      0.2263
     36  N1N       -2.8630   -4.1060   10.4100 N.pl3 700  NAP700     -0.2787
     37  C2N       -3.1200   -4.6550   11.6310 C.3   700  NAP700      0.1244
     38  C3N       -2.1860   -5.5270   12.2130 C.2   700  NAP700      0.0544
     39  C7N       -2.4860   -6.1740   13.5360 C.2   700  NAP700      0.2818
     40  O7N       -1.5490   -6.6550   14.1850 O.2   700  NAP700     -0.2670
     41  N7N       -3.8140   -6.2400   13.8630 N.am  700  NAP700     -0.0839
     42  C4N       -0.9690   -5.7210   11.6100 C.2   700  NAP700      0.0033
     43  C5N       -0.6940   -5.1620   10.3460 C.2   700  NAP700      0.0157
     44  C6N       -1.6220   -4.3510    9.7010 C.2   700  NAP700      0.0633
     45  P2B        0.2390    2.7550   -1.0300 P.3   700  NAP700      0.5328
     46  O1X        0.0080    3.3190    0.3730 O.3   700  NAP700     -0.1145
     47  O2X        1.4070    3.3310   -1.7600 O.3   700  NAP700     -0.1145
     48  O3X       -1.0450    2.7090   -2.0020 O.2   700  NAP700     -0.2224
@<TRIPOS>BOND
     1    19    20    1
     2    19    17    2
     3    20    21    1
     4    18    17    1
     5    17    16    1
     6    21    22    2
     7    16    22    1
     8    16    15    2
     9    22    13    1
    10    15    14    1
    11    13    14    1
    12    13    12    1
    13    48    45    2
    14    47    45    1
    15    12     7    1
    16    12    10    1
    17    45    11    1
    18    45    46    1
    19    11    10    1
    20     7     6    1
    21    10     8    1
    22     6     8    1
    23     6     5    1
    24     8     9    1
    25     5     4    1
    26     4     1    1
    27     3     1    2
    28     1     2    1
    29     1    23    1
    30    23    24    1
    31    24    26    2
    32    24    27    1
    33    24    25    1
    34    28    27    1
    35    28    29    1
    36    29    31    1
    37    29    30    1
    38    32    31    1
    39    31    33    1
    40    30    35    1
    41    44    43    2
    42    44    36    1
    43    33    34    1
    44    33    35    1
    45    35    36    1
    46    43    42    1
    47    36    37    1
    48    42    38    2
    49    37    38    1
    50    38    39    1
    51    39    41   am
    52    39    40    2
