@<TRIPOS>MOLECULE
3ug2_IRE_A_1.pdb
 31 34 0 0 0
SMALL
GASTEIGER

@<TRIPOS>ATOM
      1  CAO        3.4040   46.1170   14.5070 C.3     1  IRE1        0.1046
      2  CAL        4.3860   44.9380   14.3750 C.3     1  IRE1        0.1595
      3  OAU        3.6900   43.6880   14.5540 O.3     1  IRE1       -0.3508
      4  CAM        3.0800   43.4440   15.8490 C.3     1  IRE1        0.1595
      5  CAP        2.7940   44.7300   16.6440 C.3     1  IRE1        0.1046
      6  NBE        2.5950   45.8870   15.7230 N.3     1  IRE1       -0.2683
      7  CAN        1.5560   46.8550   16.0410 C.3     1  IRE1        0.0761
      8  CAJ        1.9860   47.4510   17.3890 C.3     1  IRE1        0.0646
      9  CAK        0.7930   47.7880   18.2910 C.3     1  IRE1        0.2070
     10  OAV       -0.0010   48.8270   17.6860 O.2     1  IRE1       -0.4727
     11  CBA       -0.5460   49.8840   18.3700 C.2     1  IRE1        0.1687
     12  CAZ       -1.1750   50.8290   17.5810 C.2     1  IRE1        0.1558
     13  CAH       -1.7490   51.9430   18.1780 C.3     1  IRE1        0.1127
     14  OAT       -1.2170   50.6790   16.2200 O.2     1  IRE1       -0.4723
     15  CAA       -2.3380   51.2600   15.5080 C.3     1  IRE1        0.2521
     16  CAI       -0.5160   50.0310   19.7780 C.2     1  IRE1        0.0484
     17  C5        -1.1300   51.1410   20.3560 C.2     1  IRE1        0.1027
     18  C4        -1.7470   52.0880   19.5480 C.2     1  IRE1        0.0732
     19  N3        -2.3440   53.1660   20.0860 N.2     1  IRE1       -0.2223
     20  C2        -2.3130   53.3880   21.3930 C.3     1  IRE1        0.3917
     21  N1        -1.7230   52.5050   22.1960 N.2     1  IRE1       -0.0327
     22  C6        -1.1370   51.3830   21.7250 C.2     1  IRE1        0.3643
     23  NAS       -0.5500   50.5160   22.5680 N.pl3   1  IRE1       -0.0060
     24  CAY       -0.7890   50.3540   23.9050 C.ar    1  IRE1        0.1844
     25  CAG       -2.0680   50.5030   24.4450 C.ar    1  IRE1        0.0581
     26  CAX       -2.2860   50.3360   25.8070 C.ar    1  IRE1        0.0886
     27 CL         -3.8770   50.5280   26.6050 Cl      1  IRE1       -0.0798
     28  CAW       -1.2480   49.9960   26.6110 C.ar    1  IRE1        0.1508
     29  FAB       -1.5490   49.8410   27.9240 F       1  IRE1       -0.2033
     30  CAD        0.0430   49.8020   26.0870 C.ar    1  IRE1        0.0342
     31  CAE        0.2670   49.9660   24.7340 C.ar    1  IRE1        0.0468
@<TRIPOS>BOND
     1     2     1    1
     2     2     3    1
     3     1     6    1
     4     3     4    1
     5    15    14    1
     6     6     7    1
     7     6     5    1
     8     4     5    1
     9     7     8    1
    10    14    12    1
    11     8     9    1
    12    12    13    1
    13    12    11    2
    14    10     9    1
    15    10    11    1
    16    13    18    1
    17    11    16    1
    18    18    19    2
    19    18    17    1
    20    16    17    2
    21    19    20    1
    22    17    22    1
    23    20    21    1
    24    22    21    2
    25    22    23    1
    26    23    24    1
    27    24    25   ar
    28    24    31   ar
    29    25    26   ar
    30    31    30   ar
    31    26    27    1
    32    26    28   ar
    33    30    28   ar
    34    28    29    1
