@<TRIPOS>MOLECULE
3ug4_AHR_A_1.pdb
 10 10 0 0 0
SMALL
GASTEIGER

@<TRIPOS>ATOM
      1  O5'       56.9510   39.8520   34.3580 O.3   487  AHR487     -0.2176
      2  C5'       58.4060   39.7790   34.5160 C.3   487  AHR487      0.2142
      3  C4'       58.8610   38.4170   35.0310 C.3   487  AHR487      0.1837
      4  O4'       58.8120   37.5080   33.9000 O.3   487  AHR487     -0.3236
      5  C3'       57.9280   37.7230   36.0540 C.3   487  AHR487      0.2169
      6  O3'       58.2750   38.1700   37.3840 O.3   487  AHR487     -0.2175
      7  C2'       58.3420   36.2620   35.8700 C.3   487  AHR487      0.2433
      8  O2'       57.3120   35.3530   36.2200 O.3   487  AHR487     -0.2148
      9  C1'       58.7270   36.1700   34.3770 C.3   487  AHR487      0.3024
     10  O1'       60.1160   35.6850   34.2600 O.3   487  AHR487     -0.1869
@<TRIPOS>BOND
     1     4     9    1
     2     4     3    1
     3    10     9    1
     4     1     2    1
     5     9     7    1
     6     2     3    1
     7     3     5    1
     8     7     5    1
     9     7     8    1
    10     5     6    1
