@<TRIPOS>MOLECULE
3ug5_XYP_A_1.pdb
 10 10 0 0 0
SMALL
GASTEIGER

@<TRIPOS>ATOM
      1  O4A       64.8920   36.8530   35.3380 O.3   487  XYP487     -0.1869
      2  C1B       64.5330   35.8290   34.4020 C.3   487  XYP487      0.3024
      3  C2B       63.0580   36.0610   33.9850 C.3   487  XYP487      0.2434
      4  C3B       62.6540   34.9710   32.9850 C.3   487  XYP487      0.2199
      5  C4B       63.5950   34.9890   31.7700 C.3   487  XYP487      0.2143
      6  C5B       65.0780   34.9290   32.1590 C.3   487  XYP487      0.1804
      7  O2B       62.1660   36.0990   35.1160 O.3   487  XYP487     -0.2148
      8  O3B       61.2650   35.0410   32.5520 O.3   487  XYP487     -0.2174
      9  O4B       63.3020   33.8140   31.0640 O.3   487  XYP487     -0.2176
     10  O5B       65.3970   35.8640   33.2300 O.3   487  XYP487     -0.3237
@<TRIPOS>BOND
     1     9     5    1
     2     5     6    1
     3     5     4    1
     4     6    10    1
     5     8     4    1
     6     4     3    1
     7    10     2    1
     8     3     2    1
     9     3     7    1
    10     2     1    1
