@<TRIPOS>MOLECULE
3ug6_ADP_A_1.pdb
 27 29 0 0 0
SMALL
GASTEIGER

@<TRIPOS>ATOM
      1  PB       -44.0170  120.1750   73.8780 P.3   401  ADP401      0.5373
      2  O1B      -44.6000  120.9360   72.6810 O.2   401  ADP401     -0.2221
      3  O2B      -42.6080  119.5450   73.5790 O.3   401  ADP401     -0.1143
      4  O3B      -45.0900  119.4060   74.6670 O.3   401  ADP401     -0.1143
      5  PA       -43.3650  121.3840   76.4730 P.3   401  ADP401      0.2231
      6  O1A      -41.9060  121.7340   76.4100 O.2   401  ADP401     -0.5169
      7  O2A      -43.7410  120.1150   77.1190 O.3   401  ADP401     -0.4370
      8  O3A      -43.7950  121.4100   74.8990 O.3   401  ADP401     -0.2261
      9  O5'      -44.0510  122.5700   77.3140 O.3   401  ADP401     -0.3111
     10  C5'      -43.7890  123.8830   76.8170 C.3   401  ADP401      0.1813
     11  C4'      -43.5900  124.9540   77.8750 C.3   401  ADP401      0.1821
     12  O4'      -44.5030  124.7750   78.9530 O.3   401  ADP401     -0.3135
     13  C3'      -42.1930  124.8790   78.4500 C.3   401  ADP401      0.2184
     14  O3'      -41.7010  126.2160   78.5800 O.3   401  ADP401     -0.2174
     15  C2'      -42.4090  124.2550   79.8100 C.3   401  ADP401      0.2570
     16  O2'      -41.3600  124.5820   80.7300 O.3   401  ADP401     -0.2130
     17  C1'      -43.7630  124.8390   80.1650 C.3   401  ADP401      0.3186
     18  N9       -44.4250  124.0780   81.2400 N.pl3 401  ADP401     -0.1439
     19  C8       -44.8550  122.8120   81.2160 C.3   401  ADP401      0.3377
     20  N7       -45.4180  122.4510   82.3970 N.2   401  ADP401     -0.2095
     21  C5       -45.3320  123.5220   83.1880 C.2   401  ADP401      0.2526
     22  C6       -45.7280  123.8510   84.5630 C.2   401  ADP401      0.4393
     23  N6       -46.3300  122.9230   85.3310 N.pl3 401  ADP401      0.2180
     24  N1       -45.4780  125.1000   85.0180 N.2   401  ADP401      0.0021
     25  C2       -44.8740  126.0270   84.2400 C.3   401  ADP401      0.5254
     26  N3       -44.4810  125.7940   82.9770 N.2   401  ADP401     -0.0055
     27  C4       -44.6840  124.5840   82.4220 C.2   401  ADP401      0.3518
@<TRIPOS>BOND
     1     2     1    2
     2     3     1    1
     3     1     4    1
     4     1     8    1
     5     8     5    1
     6     6     5    2
     7     5     7    1
     8     5     9    1
     9    10     9    1
    10    10    11    1
    11    11    13    1
    12    11    12    1
    13    13    14    1
    14    13    15    1
    15    12    17    1
    16    15    17    1
    17    15    16    1
    18    17    18    1
    19    19    18    1
    20    19    20    1
    21    18    27    1
    22    20    21    2
    23    27    26    2
    24    27    21    1
    25    26    25    1
    26    21    22    1
    27    25    24    1
    28    22    24    2
    29    22    23    1
