@<TRIPOS>MOLECULE
3ug7_ADP_A_1.pdb
 27 29 0 0 0
SMALL
GASTEIGER

@<TRIPOS>ATOM
      1  PB       -30.8200   18.5860   -1.6240 P.3   401  ADP401      0.5373
      2  O1B      -30.6300   18.0980   -3.0390 O.2   401  ADP401     -0.2221
      3  O2B      -29.7340   19.5000   -1.1030 O.3   401  ADP401     -0.1143
      4  O3B      -32.2310   19.0360   -1.3290 O.3   401  ADP401     -0.1143
      5  PA       -29.3100   16.4010   -0.7130 P.3   401  ADP401      0.2231
      6  O1A      -28.5490   16.6640   -1.9890 O.2   401  ADP401     -0.5169
      7  O2A      -28.6530   16.6770    0.6180 O.3   401  ADP401     -0.4370
      8  O3A      -30.6770   17.2460   -0.7490 O.3   401  ADP401     -0.2261
      9  O5'      -29.8590   14.8880   -0.7250 O.3   401  ADP401     -0.3111
     10  C5'      -30.8900   14.5100    0.1850 C.3   401  ADP401      0.1813
     11  C4'      -30.5550   13.1600    0.8020 C.3   401  ADP401      0.1821
     12  O4'      -30.5610   12.1300   -0.1890 O.3   401  ADP401     -0.3135
     13  C3'      -29.1660   13.1940    1.4180 C.3   401  ADP401      0.2184
     14  O3'      -29.2570   12.8250    2.7960 O.3   401  ADP401     -0.2174
     15  C2'      -28.3630   12.1590    0.6570 C.3   401  ADP401      0.2570
     16  O2'      -27.5420   11.3970    1.5470 O.3   401  ADP401     -0.2130
     17  C1'      -29.4170   11.2930   -0.0110 C.3   401  ADP401      0.3186
     18  N9       -28.9440   10.7630   -1.3140 N.pl3 401  ADP401     -0.1439
     19  C8       -28.7420   11.4730   -2.4400 C.3   401  ADP401      0.3377
     20  N7       -28.3070   10.6740   -3.4480 N.2   401  ADP401     -0.2095
     21  C5       -28.2260    9.4200   -2.9650 C.2   401  ADP401      0.2526
     22  C6       -27.8380    8.0890   -3.4920 C.2   401  ADP401      0.4393
     23  N6       -27.4350    7.9310   -4.7760 N.pl3 401  ADP401      0.2180
     24  N1       -27.8970    7.0350   -2.6470 N.2   401  ADP401      0.0021
     25  C2       -28.2930    7.1730   -1.3680 C.3   401  ADP401      0.5254
     26  N3       -28.6590    8.3460   -0.8240 N.2   401  ADP401     -0.0055
     27  C4       -28.6460    9.4860   -1.5580 C.2   401  ADP401      0.3518
@<TRIPOS>BOND
     1    23    22    1
     2    22    21    1
     3    22    24    2
     4    20    21    2
     5    20    19    1
     6     2     1    2
     7    21    27    1
     8    24    25    1
     9    19    18    1
    10     6     5    2
    11     1     4    1
    12     1     3    1
    13     1     8    1
    14    27    18    1
    15    27    26    2
    16    25    26    1
    17    18    17    1
    18     8     5    1
    19     9     5    1
    20     9    10    1
    21     5     7    1
    22    12    17    1
    23    12    11    1
    24    17    15    1
    25    10    11    1
    26    15    13    1
    27    15    16    1
    28    11    13    1
    29    13    14    1
