@<TRIPOS>MOLECULE
3ug8_NAP_A_1.pdb
 48 52 0 0 0
SMALL
GASTEIGER

@<TRIPOS>ATOM
      1  PA        -1.1220    3.3150   -3.2550 P.3   1001  NAP1001     0.2189
      2  O1A       -0.6360    4.6310   -2.9560 O.3   1001  NAP1001    -0.4371
      3  O2A       -2.4860    2.9790   -3.1950 O.2   1001  NAP1001    -0.5170
      4  O5B       -0.5460    2.3700   -2.1630 O.3   1001  NAP1001    -0.3112
      5  C5B        0.8500    2.4210   -1.6830 C.3   1001  NAP1001     0.1813
      6  C4B        1.0820    1.2540   -0.7130 C.3   1001  NAP1001     0.1820
      7  O4B        0.2290    1.4080    0.3910 O.3   1001  NAP1001    -0.3136
      8  C3B        0.6780   -0.1140   -1.3270 C.3   1001  NAP1001     0.2157
      9  O3B        1.8600   -0.6590   -1.8480 O.3   1001  NAP1001    -0.2175
     10  C2B        0.3390   -0.9220   -0.0520 C.3   1001  NAP1001     0.2314
     11  O2B        1.3690   -1.8710    0.2910 O.3   1001  NAP1001    -0.2630
     12  C1B        0.2650    0.1480    1.0860 C.3   1001  NAP1001     0.3158
     13  N9A       -1.0010    0.1080    1.8900 N.pl3 1001  NAP1001    -0.1439
     14  C8A       -2.2420   -0.1120    1.3480 C.3   1001  NAP1001     0.3377
     15  N7A       -3.0810   -0.0910    2.3570 N.2   1001  NAP1001    -0.2095
     16  C5A       -2.4000    0.2430    3.4850 C.2   1001  NAP1001     0.2526
     17  C6A       -2.7510    0.3630    4.8120 C.2   1001  NAP1001     0.4393
     18  N6A       -4.0280    0.2780    5.2090 N.pl3 1001  NAP1001     0.2180
     19  N1A       -1.7820    0.5610    5.7100 N.2   1001  NAP1001     0.0021
     20  C2A       -0.4710    0.7140    5.3890 C.3   1001  NAP1001     0.5254
     21  N3A       -0.0760    0.5730    4.1020 N.2   1001  NAP1001    -0.0055
     22  C4A       -1.0780    0.3530    3.1800 C.2   1001  NAP1001     0.3518
     23  O3        -0.3460    2.6060   -4.4920 O.3   1001  NAP1001    -0.2703
     24  PN        -0.3780    2.9730   -6.0530 P.3   1001  NAP1001     0.2189
     25  O1N       -0.0790    1.7480   -6.7650 O.2   1001  NAP1001    -0.5170
     26  O2N        0.6250    4.0510   -6.2790 O.3   1001  NAP1001    -0.4371
     27  O5D       -1.7410    3.5500   -6.4290 O.3   1001  NAP1001    -0.3112
     28  C5D       -3.0020    2.6920   -6.4100 C.3   1001  NAP1001     0.1813
     29  C4D       -3.4970    2.1400   -7.8110 C.3   1001  NAP1001     0.1799
     30  O4D       -3.7230    3.2810   -8.6000 O.3   1001  NAP1001    -0.3327
     31  C3D       -2.4410    1.3340   -8.6050 C.3   1001  NAP1001     0.2158
     32  O3D       -2.3010   -0.0730   -8.1160 O.3   1001  NAP1001    -0.2175
     33  C2D       -3.0690    1.3960   -9.9940 C.3   1001  NAP1001     0.2309
     34  O2D       -4.3430    0.6880   -9.9260 O.3   1001  NAP1001    -0.2158
     35  C1D       -3.5020    2.9230   -9.9790 C.3   1001  NAP1001     0.2263
     36  N1N       -2.4320    3.8260  -10.5400 N.pl3 1001  NAP1001    -0.2787
     37  C2N       -2.6480    4.4450  -11.7600 C.3   1001  NAP1001     0.1244
     38  C3N       -1.6970    5.2740  -12.2660 C.2   1001  NAP1001     0.0544
     39  C7N       -1.9500    5.9290  -13.6320 C.2   1001  NAP1001     0.2818
     40  O7N       -0.9880    6.3950  -14.2270 O.2   1001  NAP1001    -0.2670
     41  N7N       -3.2460    6.0190  -13.9940 N.am  1001  NAP1001    -0.0839
     42  C4N       -0.4500    5.4260  -11.5810 C.2   1001  NAP1001     0.0033
     43  C5N       -0.2740    4.8370  -10.2960 C.2   1001  NAP1001     0.0157
     44  C6N       -1.3010    4.0690   -9.7470 C.2   1001  NAP1001     0.0633
     45  P2B        0.8720   -3.4420    0.5510 P.3   1001  NAP1001     0.5328
     46  O1X        0.5430   -3.9950   -0.7940 O.2   1001  NAP1001    -0.2224
     47  O2X        2.1680   -4.0540    1.2510 O.3   1001  NAP1001    -0.1145
     48  O3X       -0.3340   -3.2530    1.5010 O.3   1001  NAP1001    -0.1145
@<TRIPOS>BOND
     1    40    39    2
     2    41    39   am
     3    39    38    1
     4    38    37    1
     5    38    42    2
     6    37    36    1
     7    42    43    1
     8    36    35    1
     9    36    44    1
    10    43    44    2
    11    33    35    1
    12    33    34    1
    13    33    31    1
    14    35    30    1
    15    31    32    1
    16    31    29    1
    17    30    29    1
    18    29    28    1
    19    25    24    2
    20    27    28    1
    21    27    24    1
    22    26    24    1
    23    24    23    1
    24    23     1    1
    25     1     3    2
    26     1     2    1
    27     1     4    1
    28     4     5    1
    29     9     8    1
    30     5     6    1
    31     8     6    1
    32     8    10    1
    33    46    45    2
    34     6     7    1
    35    10    11    1
    36    10    12    1
    37    11    45    1
    38     7    12    1
    39    45    47    1
    40    45    48    1
    41    12    13    1
    42    14    13    1
    43    14    15    1
    44    13    22    1
    45    15    16    2
    46    22    16    1
    47    22    21    2
    48    16    17    1
    49    21    20    1
    50    17    18    1
    51    17    19    2
    52    20    19    1
