@<TRIPOS>MOLECULE
3ug8_IMN_A_1.pdb
 25 27 0 0 0
SMALL
GASTEIGER

@<TRIPOS>ATOM
      1  C          3.0260    6.1480  -13.1700 C.ar  2001  IMN2001     0.0664
      2  C1         2.7640    5.0290  -12.4310 C.ar  2001  IMN2001     0.0169
      3  C2         2.9020    5.0570  -11.0790 C.ar  2001  IMN2001     0.0381
      4  C3         3.2440    6.1940  -10.3670 C.ar  2001  IMN2001     0.1388
      5  C4         3.4770    7.3570  -11.0970 C.ar  2001  IMN2001     0.0384
      6  C5         3.3840    7.2880  -12.5100 C.ar  2001  IMN2001     0.0207
      7  C6         3.7430    7.3470   -8.3490 C.3   2001  IMN2001     0.2525
      8  C7         2.4260    4.0430  -13.2850 C.ar  2001  IMN2001     0.0027
      9  C8         2.4830    4.5250  -14.5230 C.ar  2001  IMN2001     0.0411
     10  C9         3.0180    6.6400  -15.5860 C.2   2001  IMN2001     0.2644
     11  C10        3.2190    8.0060  -15.4430 C.ar  2001  IMN2001     0.0565
     12  C11        2.1550    8.7870  -15.0570 C.ar  2001  IMN2001     0.0056
     13  C12        2.3200   10.1400  -14.9060 C.ar  2001  IMN2001     0.0115
     14  C13        3.5280   10.7050  -15.1460 C.ar  2001  IMN2001     0.0577
     15  C14        4.6270    9.9390  -15.5570 C.ar  2001  IMN2001     0.0115
     16  C15        4.4840    8.5500  -15.7090 C.ar  2001  IMN2001     0.0056
     17  C16        2.1740    3.7140  -15.8230 C.3   2001  IMN2001     0.0501
     18  C17        2.0520    2.6200  -12.8230 C.3   2001  IMN2001     0.1415
     19  C18        0.5510    2.5250  -12.7350 C.2   2001  IMN2001     0.3693
     20  N          2.8520    5.8310  -14.4780 N.ar  2001  IMN2001    -0.2785
     21  O          3.3200    6.1410   -8.9970 O.3   2001  IMN2001    -0.4714
     22  O1         3.1670    6.1760  -16.7330 O.2   2001  IMN2001    -0.2666
     23  O2         0.1170    2.0050  -11.6690 O.co2 2001  IMN2001    -0.2453
     24  O3        -0.1380    3.0030  -13.6950 O.co2 2001  IMN2001    -0.2453
     25 CL          3.5970   12.3330  -14.9380 Cl    2001  IMN2001    -0.0822
@<TRIPOS>BOND
     1    22    10    2
     2    17     9    1
     3    16    15   ar
     4    16    11   ar
     5    10    11    1
     6    10    20   am
     7    15    14   ar
     8    11    12   ar
     9    14    25    1
    10    14    13   ar
    11    12    13   ar
    12     9    20   ar
    13     9     8   ar
    14    20     1   ar
    15    24    19   ar
    16     8    18    1
    17     8     2   ar
    18     1     6   ar
    19     1     2   ar
    20    18    19    1
    21    19    23   ar
    22     6     5   ar
    23     2     3   ar
    24     5     4   ar
    25     3     4   ar
    26     4    21    1
    27    21     7    1
