@<TRIPOS>MOLECULE
3ug9_RET_A_1.pdb
 20 20 0 0 0
SMALL
GASTEIGER

@<TRIPOS>ATOM
      1  C1        -0.5910   32.4920   10.4500 C.3   401  RET401      0.0183
      2  C2        -1.7860   31.6130   10.1050 C.3   401  RET401      0.0044
      3  C3        -3.0740   32.4150   10.0160 C.3   401  RET401      0.0047
      4  C4        -2.9590   33.3690    8.8540 C.3   401  RET401      0.0217
      5  C5        -1.8170   34.2930    9.1630 C.2   401  RET401     -0.0479
      6  C6        -0.7550   33.9130    9.8930 C.2   401  RET401     -0.0307
      7  C7         0.2480   34.9880   10.0640 C.2   401  RET401     -0.0052
      8  C8         1.3680   34.9060   10.7700 C.2   401  RET401     -0.0049
      9  C9         2.3070   36.0420   10.8300 C.2   401  RET401     -0.0258
     10  C10        3.4760   35.8260   11.4440 C.2   401  RET401     -0.0257
     11  C11        4.5450   36.8000   11.6130 C.3   401  RET401      0.0510
     12  C12        5.6590   36.3110   12.1470 C.2   401  RET401     -0.0299
     13  C13        6.8840   37.0890   12.4080 C.2   401  RET401     -0.0478
     14  C14        7.8730   36.5000   13.0940 C.3   401  RET401      0.0217
     15  C15        9.1250   37.1780   13.4170 C.3   401  RET401      0.0047
     16  C16        0.6490   31.8310    9.8440 C.3   401  RET401      0.0043
     17  C17       -0.5140   32.4780   11.9780 C.3   401  RET401      0.0043
     18  C18       -1.8940   35.6930    8.6390 C.3   401  RET401      0.0260
     19  C19        1.9720   37.3630   10.2060 C.3   401  RET401      0.0307
     20  C20        7.0480   38.4830   11.8940 C.3   401  RET401      0.0260
@<TRIPOS>BOND
     1    18     5    1
     2     4     5    1
     3     4     3    1
     4     5     6    2
     5    16     1    1
     6     6     7    1
     7     6     1    1
     8     3     2    1
     9     7     8    2
    10     2     1    1
    11    19     9    1
    12     1    17    1
    13     8     9    1
    14     9    10    2
    15    10    11    1
    16    11    12    1
    17    20    13    1
    18    12    13    2
    19    13    14    1
    20    14    15    1
