@<TRIPOS>MOLECULE
3ugc_046_A_1.pdb
 41 45 0 0 0
SMALL
GASTEIGER

@<TRIPOS>ATOM
      1  F1        23.2040  -17.8200  -13.1770 F     1201  0461201    -0.1659
      2  C2        23.3030  -18.9780  -13.8660 C.3   1201  0461201     0.4184
      3  F3        24.2100  -19.7150  -13.2050 F     1201  0461201    -0.1659
      4  F4        22.1430  -19.6200  -13.7860 F     1201  0461201    -0.1659
      5  C5        23.7170  -18.6820  -15.2910 C.ar  1201  0461201     0.0701
      6  C6        25.0240  -18.2990  -15.5910 C.ar  1201  0461201    -0.0022
      7  C7        25.3390  -18.0200  -16.9280 C.ar  1201  0461201    -0.0016
      8  C9        24.3850  -18.1430  -17.9460 C.ar  1201  0461201     0.0164
      9  C11       23.0970  -18.5460  -17.6170 C.ar  1201  0461201     0.0751
     10  C12       22.7720  -18.8480  -16.2960 C.ar  1201  0461201     0.0202
     11  N14       22.1800  -18.6790  -18.6960 N.am  1201  0461201    -0.1596
     12  C16       20.8360  -18.5630  -18.5920 C.2   1201  0461201     0.3435
     13  O17       20.2380  -18.3620  -17.5360 O.2   1201  0461201    -0.2470
     14  N18       20.1120  -18.7560  -19.7090 N.ar  1201  0461201    -0.2596
     15  C19       20.6690  -19.3950  -20.9030 C.ar  1201  0461201     0.0843
     16  C22       19.4810  -19.5010  -21.8820 C.ar  1201  0461201     0.0207
     17  C25       18.3120  -18.8910  -21.1370 C.ar  1201  0461201     0.0208
     18  C26       18.7410  -18.5030  -19.8780 C.ar  1201  0461201     0.0683
     19  C27       17.8830  -17.8800  -18.9580 C.ar  1201  0461201     0.0208
     20  C29       16.5570  -17.6820  -19.3710 C.ar  1201  0461201     0.0390
     21  C31       16.1410  -18.0930  -20.6360 C.ar  1201  0461201     0.1469
     22  C32       17.0150  -18.6910  -21.5370 C.ar  1201  0461201     0.0390
     23  O34       14.8270  -17.8770  -21.0130 O.3   1201  0461201    -0.4395
     24  C35       13.8310  -18.6020  -20.4360 C.2   1201  0461201     0.2174
     25  N36       14.0700  -19.7500  -19.8030 N.2   1201  0461201    -0.1876
     26  C37       13.0870  -20.4760  -19.2610 C.3   1201  0461201     0.3939
     27  N39       11.8220  -20.0160  -19.3410 N.2   1201  0461201    -0.0363
     28  C40       11.5470  -18.8470  -19.9210 C.2   1201  0461201     0.3516
     29  C41       12.5410  -18.0710  -20.4990 C.3   1201  0461201     0.2057
     30  N43       10.1730  -18.4790  -19.8140 N.am  1201  0461201     0.0278
     31  C45        9.6470  -17.3300  -20.2790 C.2   1201  0461201     0.3527
     32  O46       10.2470  -16.4800  -20.8640 O.2   1201  0461201    -0.2429
     33  C47        8.1610  -17.1710  -20.0410 C.3   1201  0461201     0.1289
     34  C51       26.0940  -18.0920  -14.4980 C.3   1201  0461201     0.0992
     35  N54       27.1310  -17.1670  -14.9590 N.3   1201  0461201    -0.2665
     36  C55       28.3190  -17.2630  -14.1020 C.3   1201  0461201     0.0899
     37  C58       29.4080  -16.2990  -14.6270 C.3   1201  0461201     0.0897
     38  N61       28.8900  -14.9250  -14.6780 N.3   1201  0461201    -0.2691
     39  C62       27.6980  -14.8360  -15.5590 C.3   1201  0461201     0.0897
     40  C65       26.6370  -15.7910  -14.9940 C.3   1201  0461201     0.0899
     41  C68       29.9200  -13.9700  -15.1630 C.3   1201  0461201     0.0897
@<TRIPOS>BOND
     1    16    17   ar
     2    16    15   ar
     3    22    17   ar
     4    22    21   ar
     5    17    18   ar
     6    23    21    1
     7    23    24    1
     8    15    14   ar
     9    32    31    2
    10    21    20   ar
    11    29    24    1
    12    29    28    1
    13    24    25    2
    14    31    33    1
    15    31    30   am
    16    28    30    1
    17    28    27    2
    18    18    14   ar
    19    18    19   ar
    20    25    26    1
    21    14    12   am
    22    20    19   ar
    23    27    26    1
    24    11    12   am
    25    11     9    1
    26    12    13    2
    27     8     9   ar
    28     8     7   ar
    29     9    10   ar
    30     7     6   ar
    31    10     5   ar
    32     6     5   ar
    33     6    34    1
    34    39    40    1
    35    39    38    1
    36     5     2    1
    37    41    38    1
    38    40    35    1
    39    35    34    1
    40    35    36    1
    41    38    37    1
    42    37    36    1
    43     2     4    1
    44     2     3    1
    45     2     1    1
