@<TRIPOS>MOLECULE
3ugf_FUC_A_1.pdb
 10 10 0 0 0
SMALL
GASTEIGER

@<TRIPOS>ATOM
      1  C1         2.7300  -21.7700   66.0420 C.3   558  FUC558      0.1776
      2  C2         1.8160  -22.4950   67.0330 C.3   558  FUC558      0.2141
      3  C3         0.7300  -21.5690   67.5810 C.3   558  FUC558      0.2172
      4  C4        -0.0020  -20.8350   66.4570 C.3   558  FUC558      0.2116
      5  C5         1.0070  -20.1340   65.5450 C.3   558  FUC558      0.1483
      6  C6         0.3410  -19.4020   64.3820 C.3   558  FUC558      0.0349
      7  O2         2.5880  -23.0330   68.1140 O.3   558  FUC558     -0.2176
      8  O3        -0.2020  -22.3460   68.3390 O.3   558  FUC558     -0.2175
      9  O4        -0.7870  -21.7710   65.7030 O.3   558  FUC558     -0.2177
     10  O5         1.9620  -21.0860   65.0350 O.3   558  FUC558     -0.3508
@<TRIPOS>BOND
     1     6     5    1
     2    10     5    1
     3    10     1    1
     4     5     4    1
     5     9     4    1
     6     1     2    1
     7     4     3    1
     8     2     3    1
     9     2     7    1
    10     3     8    1
