@<TRIPOS>MOLECULE
3ugg_DQR_A_1.pdb
 34 36 0 0 0
SMALL
GASTEIGER

@<TRIPOS>ATOM
      1  C1        54.8450   -8.7390    1.4580 C.3   800  DQR800      0.2713
      2  C10       53.2610   -5.6550    2.1180 C.3   800  DQR800      0.2034
      3  C11       49.6830   -5.9370    1.2350 C.3   800  DQR800      0.2406
      4  C2        54.2970   -9.7220    0.4010 C.3   800  DQR800      0.2406
      5  C20       54.0070   -6.8060    2.7830 C.3   800  DQR800      0.2483
      6  C21       51.0020   -5.1640    1.2700 C.3   800  DQR800      0.2499
      7  C3        54.3770  -11.1730    0.8760 C.3   800  DQR800      0.2198
      8  C30       53.5430   -7.0080    4.2210 C.3   800  DQR800      0.2380
      9  C31       50.7130   -3.6920    1.5660 C.3   800  DQR800      0.2381
     10  C4        55.8340  -11.5110    1.1880 C.3   800  DQR800      0.2144
     11  C40       54.7980   -6.9740    5.0720 C.3   800  DQR800      0.2167
     12  C41       51.6230   -2.9090    0.6330 C.3   800  DQR800      0.2167
     13  C5        56.4430  -10.5250    2.1960 C.3   800  DQR800      0.1835
     14  C50       55.8510   -6.3100    4.1930 C.3   800  DQR800      0.1835
     15  C51       51.8740   -3.8610   -0.5290 C.3   800  DQR800      0.1835
     16  C6        57.8180  -10.0600    1.7180 C.3   800  DQR800      0.2142
     17  C60       57.2210   -6.9630    4.3470 C.3   800  DQR800      0.2142
     18  C61       53.2950   -3.7670   -1.0790 C.3   800  DQR800      0.2142
     19  O1        53.7490   -8.0090    2.0380 O.3   800  DQR800     -0.3034
     20  O10       51.8400   -5.7640    2.2810 O.3   800  DQR800     -0.3249
     21  O11       49.8150   -7.1520    0.4840 O.3   800  DQR800     -0.2149
     22  O2        52.9550   -9.4020   -0.0060 O.3   800  DQR800     -0.2149
     23  O20       55.3980   -6.4440    2.8400 O.3   800  DQR800     -0.3273
     24  O21       51.6140   -5.1860   -0.0320 O.3   800  DQR800     -0.3273
     25  O3        53.8640  -12.0580   -0.1310 O.3   800  DQR800     -0.2174
     26  O30       52.8700   -8.2620    4.3670 O.3   800  DQR800     -0.2150
     27  O31       50.9530   -3.3660    2.9380 O.3   800  DQR800     -0.2150
     28  O4        55.9520  -12.8510    1.6800 O.3   800  DQR800     -0.2176
     29  O40       54.5710   -6.2320    6.2760 O.3   800  DQR800     -0.2175
     30  O41       51.0070   -1.7000    0.1860 O.3   800  DQR800     -0.2175
     31  O5        55.5910   -9.3990    2.5060 O.3   800  DQR800     -0.3256
     32  O60       58.2290   -6.0850    3.8310 O.3   800  DQR800     -0.2176
     33  O61       53.5300   -4.8330   -2.0080 O.3   800  DQR800     -0.2176
     34  O6        58.7920  -10.2750    2.7550 O.3   800  DQR800     -0.2176
@<TRIPOS>BOND
     1    33    18    1
     2    18    15    1
     3    15    24    1
     4    15    12    1
     5    25     7    1
     6    24     6    1
     7    22     4    1
     8    30    12    1
     9     4     7    1
    10     4     1    1
    11    21     3    1
    12    12     9    1
    13     7    10    1
    14    10    28    1
    15    10    13    1
    16     3     6    1
    17     6     9    1
    18     6    20    1
    19     1    19    1
    20     1    31    1
    21     9    27    1
    22    16    13    1
    23    16    34    1
    24    19     5    1
    25     2    20    1
    26     2     5    1
    27    13    31    1
    28     5    23    1
    29     5     8    1
    30    23    14    1
    31    32    17    1
    32    14    17    1
    33    14    11    1
    34     8    26    1
    35     8    11    1
    36    11    29    1
