@<TRIPOS>MOLECULE
3ugg_FUC_A_1.pdb
 10 10 0 0 0
SMALL
GASTEIGER

@<TRIPOS>ATOM
      1  C1        38.3070  -19.2810   13.2240 C.3   559  FUC559      0.1776
      2  C2        37.7980  -18.1330   14.1170 C.3   559  FUC559      0.2141
      3  C3        38.9420  -17.2380   14.6010 C.3   559  FUC559      0.2172
      4  C4        39.7900  -16.7770   13.4190 C.3   559  FUC559      0.2116
      5  C5        40.3020  -18.0000   12.6550 C.3   559  FUC559      0.1483
      6  C6        41.1840  -17.6120   11.4700 C.3   559  FUC559      0.0349
      7  O2        37.0470  -18.6260   15.2320 O.3   559  FUC559     -0.2176
      8  O3        38.4020  -16.0930   15.2650 O.3   559  FUC559     -0.2175
      9  O4        39.0010  -15.9460   12.5530 O.3   559  FUC559     -0.2177
     10  O5        39.1940  -18.8020   12.1900 O.3   559  FUC559     -0.3508
@<TRIPOS>BOND
     1     6     5    1
     2    10     5    1
     3    10     1    1
     4     9     4    1
     5     5     4    1
     6     1     2    1
     7     4     3    1
     8     2     3    1
     9     2     7    1
    10     3     8    1
