@<TRIPOS>MOLECULE
3ugh_FUC_A_1.pdb
 10 10 0 0 0
SMALL
GASTEIGER

@<TRIPOS>ATOM
      1  C1         2.6520   21.5960  -64.9980 C.3   558  FUC558      0.1776
      2  C2         1.7140   22.3740  -65.9280 C.3   558  FUC558      0.2141
      3  C3         0.6310   21.4770  -66.5250 C.3   558  FUC558      0.2172
      4  C4        -0.0840   20.6300  -65.4680 C.3   558  FUC558      0.2116
      5  C5         0.9000   19.9510  -64.5050 C.3   558  FUC558      0.1483
      6  C6         0.1620   19.3260  -63.3260 C.3   558  FUC558      0.0349
      7  O2         2.4590   22.9560  -67.0060 O.3   558  FUC558     -0.2176
      8  O3        -0.3130   22.3030  -67.2110 O.3   558  FUC558     -0.2175
      9  O4        -1.0340   21.4290  -64.7460 O.3   558  FUC558     -0.2177
     10  O5         1.9100   20.8570  -64.0080 O.3   558  FUC558     -0.3508
@<TRIPOS>BOND
     1     8     3    1
     2     7     2    1
     3     3     2    1
     4     3     4    1
     5     2     1    1
     6     4     9    1
     7     4     5    1
     8     1    10    1
     9     5    10    1
    10     5     6    1
