@<TRIPOS>MOLECULE
3ugh_045_B_1.pdb
 34 36 0 0 0
SMALL
GASTEIGER

@<TRIPOS>ATOM
      1  C1       -15.6450    8.7530    3.2140 C.3   691  045691      0.2713
      2  O1       -15.7350    8.7030    4.6560 O.3   691  045691     -0.3033
      3  C2       -14.8920   10.0030    2.6960 C.3   691  045691      0.2406
      4  O2       -13.9910   10.4780    3.7050 O.3   691  045691     -0.2149
      5  C3       -15.7480   11.1980    2.2330 C.3   691  045691      0.2198
      6  O3       -15.0760   11.8690    1.1610 O.3   691  045691     -0.2174
      7  C4       -17.1630   10.8420    1.7850 C.3   691  045691      0.2144
      8  O4       -17.9550   12.0330    1.7580 O.3   691  045691     -0.2176
      9  C5       -17.7440    9.8380    2.7690 C.3   691  045691      0.1835
     10  O5       -16.9670    8.6440    2.6510 O.3   691  045691     -0.3256
     11  C6       -19.2230    9.5450    2.5420 C.3   691  045691      0.2142
     12  O6       -19.9420    9.9110    3.7270 O.3   691  045691     -0.2176
     13  OAA      -13.6110    7.7050    5.0690 O.3   691  045691     -0.3273
     14  OAC      -10.9310    6.9180    4.2020 O.3   691  045691     -0.3275
     15  OAD       -9.9620    7.0530    2.0780 O.3   691  045691     -0.3273
     16  OAF      -16.6710    6.1320    4.4350 O.3   691  045691     -0.2150
     17  OAG      -14.1480    4.2430    5.3460 O.3   691  045691     -0.2175
     18  OAH       -8.9950    8.1140    5.3000 O.3   691  045691     -0.2150
     19  OAI       -6.7330    7.9730    2.9570 O.3   691  045691     -0.2175
     20  OAJ      -14.2510    7.4670    7.7400 O.3   691  045691     -0.2149
     21  OAN      -11.0080    9.4440    1.6290 O.3   691  045691     -0.2149
     22  OAO       -7.1590    4.8160    1.4260 O.3   691  045691     -0.2176
     23  CAQ      -15.0020    7.7110    5.4180 C.3   691  045691      0.2516
     24  CAR      -13.1270    6.3660    4.8920 C.3   691  045691      0.1802
     25  CAS      -15.5010    6.2650    5.2550 C.3   691  045691      0.2381
     26  CAT      -14.3380    5.4830    4.6650 C.3   691  045691      0.2166
     27  CAU      -10.2780    7.7870    3.2690 C.3   691  045691      0.2499
     28  CAV       -8.9510    8.2120    3.8750 C.3   691  045691      0.2381
     29  CAW      -12.1340    6.2980    3.7420 C.3   691  045691      0.1770
     30  CAX       -7.9250    7.2600    3.2960 C.3   691  045691      0.2167
     31  CAZ       -8.5770    6.6800    2.0490 C.3   691  045691      0.1835
     32  CBA      -15.1610    8.1550    6.8730 C.3   691  045691      0.2406
     33  CBF      -11.1290    9.0260    2.9910 C.3   691  045691      0.2406
     34  CBG       -8.4340    5.1630    1.9800 C.3   691  045691      0.2142
@<TRIPOS>BOND
     1     6     5    1
     2    22    34    1
     3    21    33    1
     4     8     7    1
     5     7     5    1
     6     7     9    1
     7    34    31    1
     8    31    15    1
     9    31    30    1
    10    15    27    1
    11     5     3    1
    12    11     9    1
    13    11    12    1
    14    10     9    1
    15    10     1    1
    16     3     1    1
    17     3     4    1
    18    19    30    1
    19    33    27    1
    20     1     2    1
    21    27    28    1
    22    27    14    1
    23    30    28    1
    24    29    14    1
    25    29    24    1
    26    28    18    1
    27    16    25    1
    28     2    23    1
    29    26    24    1
    30    26    25    1
    31    26    17    1
    32    24    13    1
    33    13    23    1
    34    25    23    1
    35    23    32    1
    36    32    20    1
