@<TRIPOS>MOLECULE
3ugj_ADP_A_1.pdb
 27 29 0 0 0
SMALL
GASTEIGER

@<TRIPOS>ATOM
      1  PB        94.0310   86.2190  -53.0280 P.3   2005  ADP2005     0.5373
      2  O1B       93.6160   87.6180  -52.9960 O.3   2005  ADP2005    -0.1143
      3  O2B       93.0020   85.2990  -53.8150 O.2   2005  ADP2005    -0.2221
      4  O3B       95.4250   86.0760  -53.7820 O.3   2005  ADP2005    -0.1143
      5  PA        93.5850   84.4280  -50.8410 P.3   2005  ADP2005     0.2231
      6  O1A       94.3480   83.2400  -51.2190 O.2   2005  ADP2005    -0.5169
      7  O2A       92.1540   84.4200  -51.1670 O.3   2005  ADP2005    -0.4370
      8  O3A       94.2520   85.7110  -51.5170 O.3   2005  ADP2005    -0.2261
      9  O5'       93.7470   84.7480  -49.2850 O.3   2005  ADP2005    -0.3111
     10  C5'       92.9050   85.7330  -48.6810 C.3   2005  ADP2005     0.1813
     11  C4'       93.6280   86.4260  -47.5240 C.3   2005  ADP2005     0.1821
     12  O4'       94.1780   85.3980  -46.6790 O.3   2005  ADP2005    -0.3135
     13  C3'       94.7930   87.2870  -48.0190 C.3   2005  ADP2005     0.2184
     14  O3'       94.8660   88.5020  -47.2650 O.3   2005  ADP2005    -0.2174
     15  C2'       96.0140   86.3810  -47.8270 C.3   2005  ADP2005     0.2570
     16  O2'       97.1870   87.1730  -47.5950 O.3   2005  ADP2005    -0.2130
     17  C1'       95.6110   85.5520  -46.6070 C.3   2005  ADP2005     0.3186
     18  N9        96.2580   84.2070  -46.5970 N.pl3 2005  ADP2005    -0.1439
     19  C8        96.0240   83.2050  -47.4570 C.3   2005  ADP2005     0.3377
     20  N7        96.7760   82.1500  -47.1500 N.2   2005  ADP2005    -0.2095
     21  C5        97.5010   82.4710  -46.0850 C.2   2005  ADP2005     0.2526
     22  C6        98.4610   81.8040  -45.2990 C.2   2005  ADP2005     0.4393
     23  N6        98.8180   80.5540  -45.5870 N.pl3 2005  ADP2005     0.2180
     24  N1        99.0260   82.4550  -44.2370 N.2   2005  ADP2005     0.0021
     25  C2        98.6910   83.7100  -43.9210 C.3   2005  ADP2005     0.5254
     26  N3        97.7800   84.3680  -44.6530 N.2   2005  ADP2005    -0.0055
     27  C4        97.1730   83.7880  -45.7270 C.2   2005  ADP2005     0.3518
@<TRIPOS>BOND
     1     3     1    2
     2     4     1    1
     3     1     2    1
     4     1     8    1
     5     8     5    1
     6     6     5    2
     7     7     5    1
     8     5     9    1
     9     9    10    1
    10    10    11    1
    11    13    15    1
    12    13    11    1
    13    13    14    1
    14    15    16    1
    15    15    17    1
    16    11    12    1
    17    19    20    1
    18    19    18    1
    19    20    21    2
    20    12    17    1
    21    17    18    1
    22    18    27    1
    23    21    27    1
    24    21    22    1
    25    27    26    2
    26    23    22    1
    27    22    24    2
    28    26    25    1
    29    24    25    1
