@<TRIPOS>MOLECULE
3ugr_IMN_A_1.pdb
 25 27 0 0 0
SMALL
GASTEIGER

@<TRIPOS>ATOM
      1  C         -3.0840   -4.4930  -12.1640 C.ar  2001  IMN2001     0.0664
      2  C1        -3.4850   -4.2420  -10.8860 C.ar  2001  IMN2001     0.0169
      3  C2        -3.7020   -5.2430  -10.0140 C.ar  2001  IMN2001     0.0381
      4  C3        -3.5170   -6.5410  -10.4040 C.ar  2001  IMN2001     0.1388
      5  C4        -3.1390   -6.7780  -11.6990 C.ar  2001  IMN2001     0.0384
      6  C5        -2.9420   -5.7520  -12.5920 C.ar  2001  IMN2001     0.0207
      7  C6        -3.7580   -7.2620   -8.2540 C.3   2001  IMN2001     0.2525
      8  C7        -3.5660   -2.8920  -10.7600 C.ar  2001  IMN2001     0.0027
      9  C8        -3.2130   -2.3810  -11.9600 C.ar  2001  IMN2001     0.0411
     10  C9        -2.4810   -3.1850  -14.0390 C.2   2001  IMN2001     0.2644
     11  C10       -2.7550   -4.0180  -15.1090 C.ar  2001  IMN2001     0.0565
     12  C11       -1.7280   -4.5420  -15.8970 C.ar  2001  IMN2001     0.0056
     13  C12       -2.0050   -5.3920  -16.9390 C.ar  2001  IMN2001     0.0115
     14  C13       -3.3340   -5.6660  -17.2400 C.ar  2001  IMN2001     0.0577
     15  C14       -4.3240   -5.1340  -16.4850 C.ar  2001  IMN2001     0.0115
     16  C15       -4.0500   -4.3000  -15.4250 C.ar  2001  IMN2001     0.0056
     17  C16       -3.1770   -0.8750  -12.3260 C.3   2001  IMN2001     0.0501
     18  C17       -4.0160   -2.0620   -9.4500 C.3   2001  IMN2001     0.1415
     19  C18       -3.1040   -2.4380   -8.2480 C.2   2001  IMN2001     0.3693
     20  N         -2.9650   -3.3520  -12.8260 N.ar  2001  IMN2001    -0.2785
     21  O         -3.7010   -7.5850   -9.5850 O.3   2001  IMN2001    -0.4714
     22  O1        -1.5320   -2.4470  -14.1290 O.2   2001  IMN2001    -0.2666
     23  O2        -3.6170   -2.8230   -7.1840 O.co2 2001  IMN2001    -0.2453
     24  O3        -1.9180   -2.3740   -8.4880 O.co2 2001  IMN2001    -0.2453
     25 CL         -3.6960   -6.7430  -18.5980 Cl    2001  IMN2001    -0.0822
@<TRIPOS>BOND
     1    25    14    1
     2    14    13   ar
     3    14    15   ar
     4    13    12   ar
     5    15    16   ar
     6    12    11   ar
     7    16    11   ar
     8    11    10    1
     9    22    10    2
    10    10    20   am
    11    20     1   ar
    12    20     9   ar
    13     6     1   ar
    14     6     5   ar
    15    17     9    1
    16     1     2   ar
    17     9     8   ar
    18     5     4   ar
    19     2     8   ar
    20     2     3   ar
    21     8    18    1
    22     4     3   ar
    23     4    21    1
    24    21     7    1
    25    18    19    1
    26    24    19   ar
    27    19    23   ar
