@<TRIPOS>MOLECULE
3ugr_NAP_A_1.pdb
 48 52 0 0 0
SMALL
GASTEIGER

@<TRIPOS>ATOM
      1  PA         1.0900   -3.0910   -3.1270 P.3   1001  NAP1001     0.2189
      2  O1A        0.5340   -4.4530   -2.9890 O.3   1001  NAP1001    -0.4371
      3  O2A        2.5090   -2.8200   -3.1390 O.2   1001  NAP1001    -0.5170
      4  O5B        0.6020   -2.1640   -1.9770 O.3   1001  NAP1001    -0.3112
      5  C5B       -0.8580   -2.2000   -1.6520 C.3   1001  NAP1001     0.1813
      6  C4B       -1.1740   -1.0690   -0.5960 C.3   1001  NAP1001     0.1820
      7  O4B       -0.2750   -1.3290    0.5300 O.3   1001  NAP1001    -0.3136
      8  C3B       -0.7410    0.3190   -1.1110 C.3   1001  NAP1001     0.2157
      9  O3B       -1.8720    0.9460   -1.7320 O.3   1001  NAP1001    -0.2175
     10  C2B       -0.3150    1.0080    0.1810 C.3   1001  NAP1001     0.2314
     11  O2B       -1.1400    2.0870    0.5640 O.3   1001  NAP1001    -0.2630
     12  C1B       -0.2330   -0.0880    1.2560 C.3   1001  NAP1001     0.3158
     13  N9A        0.9990   -0.0650    2.0090 N.pl3 1001  NAP1001    -0.1439
     14  C8A        2.2590    0.1400    1.5140 C.3   1001  NAP1001     0.3377
     15  N7A        3.1100    0.0380    2.5070 N.2   1001  NAP1001    -0.2095
     16  C5A        2.4450   -0.2380    3.6330 C.2   1001  NAP1001     0.2526
     17  C6A        2.8350   -0.3770    4.9400 C.2   1001  NAP1001     0.4393
     18  N6A        4.1270   -0.3700    5.3700 N.pl3 1001  NAP1001     0.2180
     19  N1A        1.8530   -0.6590    5.8240 N.2   1001  NAP1001     0.0021
     20  C2A        0.5350   -0.7080    5.4980 C.3   1001  NAP1001     0.5254
     21  N3A        0.0940   -0.5830    4.2440 N.2   1001  NAP1001    -0.0055
     22  C4A        1.0840   -0.3140    3.3140 C.2   1001  NAP1001     0.3518
     23  O3         0.3850   -2.3180   -4.3470 O.3   1001  NAP1001    -0.2703
     24  PN         0.3260   -2.5320   -5.9490 P.3   1001  NAP1001     0.2189
     25  O1N        0.2520   -1.2000   -6.5070 O.2   1001  NAP1001    -0.5170
     26  O2N       -0.7230   -3.5160   -6.2360 O.3   1001  NAP1001    -0.4371
     27  O5D        1.6510   -3.2230   -6.3910 O.3   1001  NAP1001    -0.3112
     28  C5D        2.9820   -2.5040   -6.2950 C.3   1001  NAP1001     0.1813
     29  C4D        3.3900   -1.9220   -7.7000 C.3   1001  NAP1001     0.1799
     30  O4D        3.5460   -3.1580   -8.4990 O.3   1001  NAP1001    -0.3327
     31  C3D        2.4050   -1.1110   -8.4660 C.3   1001  NAP1001     0.2158
     32  O3D        2.4380    0.2100   -7.9820 O.3   1001  NAP1001    -0.2175
     33  C2D        3.0680   -1.2240   -9.8580 C.3   1001  NAP1001     0.2309
     34  O2D        4.3110   -0.5380   -9.8920 O.3   1001  NAP1001    -0.2158
     35  C1D        3.4090   -2.7260   -9.8870 C.3   1001  NAP1001     0.2263
     36  N1N        2.2670   -3.5160  -10.4610 N.pl3 1001  NAP1001    -0.2787
     37  C2N        2.5130   -4.1650  -11.6840 C.3   1001  NAP1001     0.1244
     38  C3N        1.5210   -4.8930  -12.2520 C.2   1001  NAP1001     0.0544
     39  C7N        1.7410   -5.6580  -13.5520 C.2   1001  NAP1001     0.2818
     40  O7N        0.8140   -6.1850  -14.1660 O.2   1001  NAP1001    -0.2670
     41  N7N        3.0090   -5.8190  -13.9230 N.am  1001  NAP1001    -0.0839
     42  C4N        0.2950   -4.9760  -11.6920 C.2   1001  NAP1001     0.0033
     43  C5N        0.0490   -4.3760  -10.4500 C.2   1001  NAP1001     0.0157
     44  C6N        1.0740   -3.6290   -9.8480 C.2   1001  NAP1001     0.0633
     45  P2B       -0.5930    3.6000    0.8300 P.3   1001  NAP1001     0.5328
     46  O1X       -0.1970    4.1120   -0.5340 O.2   1001  NAP1001    -0.2224
     47  O2X       -1.8970    4.2930    1.4330 O.3   1001  NAP1001    -0.1145
     48  O3X        0.6300    3.4320    1.7850 O.3   1001  NAP1001    -0.1145
@<TRIPOS>BOND
     1    40    39    2
     2    41    39   am
     3    39    38    1
     4    38    42    2
     5    38    37    1
     6    42    43    1
     7    37    36    1
     8    36    35    1
     9    36    44    1
    10    43    44    2
    11    34    33    1
    12    35    33    1
    13    35    30    1
    14    33    31    1
    15    30    29    1
    16    31    32    1
    17    31    29    1
    18    29    28    1
    19    25    24    2
    20    27    28    1
    21    27    24    1
    22    26    24    1
    23    24    23    1
    24    23     1    1
    25     3     1    2
    26     1     2    1
    27     1     4    1
    28     4     5    1
    29     9     8    1
    30     5     6    1
    31     8     6    1
    32     8    10    1
    33     6     7    1
    34    46    45    2
    35    10    11    1
    36    10    12    1
    37     7    12    1
    38    11    45    1
    39    45    47    1
    40    45    48    1
    41    12    13    1
    42    14    13    1
    43    14    15    1
    44    13    22    1
    45    15    16    2
    46    22    16    1
    47    22    21    2
    48    16    17    1
    49    21    20    1
    50    17    18    1
    51    17    19    2
    52    20    19    1
