@<TRIPOS>MOLECULE
3ugs_FFT_A_1.pdb
 20 19 0 0 0
SMALL
GASTEIGER

@<TRIPOS>ATOM
      1  O3        27.6670   21.7080   46.4010 O.3   401  FFT401     -0.1145
      2  P         27.6130   20.1960   46.6360 P.3   401  FFT401      0.5329
      3  O1        27.5810   19.7380   48.1250 O.3   401  FFT401     -0.1145
      4  O2        26.5920   19.4280   45.8460 O.2   401  FFT401     -0.2224
      5  O         29.0010   19.7210   46.0320 O.3   401  FFT401     -0.2654
      6  C14       29.7250   18.6360   46.6070 C.3   401  FFT401      0.1793
      7  C13       31.1480   18.6980   46.0680 C.2   401  FFT401     -0.0022
      8  C11       32.1780   18.3200   46.8060 C.2   401  FFT401     -0.0454
      9  C12       33.5300   18.3760   46.1860 C.3   401  FFT401      0.0261
     10  C10       31.9580   17.8090   48.2310 C.3   401  FFT401      0.0264
     11  C9        32.8520   18.4930   49.2280 C.3   401  FFT401      0.0297
     12  C8        32.5080   18.0720   50.6560 C.2   401  FFT401     -0.0342
     13  C6        33.4740   17.6870   51.5250 C.2   401  FFT401     -0.0478
     14  C7        33.1530   17.2990   52.9490 C.3   401  FFT401      0.0260
     15  C5        34.9030   17.6430   51.0510 C.3   401  FFT401      0.0263
     16  C4        35.8890   18.2400   52.0410 C.3   401  FFT401      0.0297
     17  C3        37.3050   17.9620   51.5460 C.2   401  FFT401     -0.0342
     18  C1        38.3280   17.6210   52.3720 C.2   401  FFT401     -0.0478
     19  C2        38.1600   17.5030   53.8680 C.3   401  FFT401      0.0260
     20  C         39.6690   17.3440   51.7700 C.3   401  FFT401      0.0260
@<TRIPOS>BOND
     1     4     2    2
     2     5     6    1
     3     5     2    1
     4     7     6    1
     5     7     8    2
     6     9     8    1
     7     1     2    1
     8     2     3    1
     9     8    10    1
    10    10    11    1
    11    11    12    1
    12    12    13    2
    13    15    13    1
    14    15    16    1
    15    13    14    1
    16    17    16    1
    17    17    18    2
    18    20    18    1
    19    18    19    1
