@<TRIPOS>MOLECULE
3ugw_III_B_1.pdb
 44 44 0 0 0
SMALL
GASTEIGER

@<TRIPOS>ATOM
      1  N        -28.3360    7.7060   35.0470 N.3   681  LEU681     -0.1231
      2  CA       -28.0770    8.7100   34.0110 C.3   681  LEU681      0.1693
      3  C        -26.5810    9.0840   33.8410 C.2   681  LEU681      0.2592
      4  O        -26.1430    9.4030   32.7280 O.2   681  LEU681     -0.2718
      5  CB       -28.9340    9.9710   34.2580 C.3   681  LEU681      0.0284
      6  CG       -30.4760    9.8900   34.3010 C.3   681  LEU681      0.0019
      7  CD1      -31.0740   11.1350   34.9510 C.3   681  LEU681      0.0001
      8  CD2      -31.0870    9.6590   32.9230 C.3   681  LEU681      0.0001
      9  N        -25.8080    9.0340   34.9320 N.am  682  GLU682     -0.1966
     10  CA       -24.4280    9.5640   34.9550 C.3   682  GLU682      0.1733
     11  C        -23.5260    8.9240   36.0200 C.2   682  GLU682      0.2616
     12  O        -23.9740    8.6710   37.1430 O.2   682  GLU682     -0.2715
     13  CB       -24.4240   11.1070   35.1070 C.3   682  GLU682      0.0429
     14  CG       -25.0110   11.6750   36.4120 C.3   682  GLU682      0.1163
     15  CD       -26.5370   11.7860   36.4130 C.2   682  GLU682      0.3649
     16  OE1      -27.0940   12.4770   35.5360 O.co2 682  GLU682     -0.2457
     17  OE2      -27.1910   11.1920   37.2980 O.co2 682  GLU682     -0.2457
     18  N        -22.2610    8.6800   35.6530 N.am  683  ALA683     -0.1963
     19  CA       -21.2020    8.1480   36.5440 C.3   683  ALA683      0.1728
     20  C        -20.4120    7.0220   35.8860 C.2   683  ALA683      0.2616
     21  O        -20.9560    6.2490   35.0930 O.2   683  ALA683     -0.2715
     22  CB       -21.7450    7.6890   37.9030 C.3   683  ALA683      0.0334
     23  N        -19.1300    6.9340   36.2330 N.am  684  CYS684     -0.1954
     24  CA       -18.2220    5.9730   35.6200 C.3   684  CYS684      0.1843
     25  C        -18.6040    4.5070   35.9150 C.2   684  CYS684      0.2625
     26  O        -18.8660    4.1380   37.0730 O.2   684  CYS684     -0.2714
     27  CB       -16.7740    6.2770   36.0190 C.3   684  CYS684      0.0997
     28  SG       -15.5560    5.0510   35.4940 S.3   684  CYS684     -0.0797
     29  N        -18.6140    3.6860   34.8580 N.am  685  ALA685     -0.1963
     30  CA       -18.9630    2.2430   34.9480 C.3   685  ALA685      0.1728
     31  C        -17.9230    1.3400   35.6620 C.2   685  ALA685      0.2616
     32  O        -18.0690    0.1070   35.6370 O.2   685  ALA685     -0.2715
     33  CB       -19.2850    1.6690   33.5510 C.3   685  ALA685      0.0334
     34  N        -16.8840    1.9360   36.2660 N.am  686  PHE686     -0.1974
     35  CA       -15.8100    1.1700   36.9550 C.3   686  PHE686      0.1639
     36  C        -15.5220    1.6460   38.3970 C.2   686  PHE686      0.2290
     37  O        -16.0310    2.6820   38.8340 O.2   686  PHE686     -0.2864
     38  CB       -14.5050    1.1500   36.1360 C.3   686  PHE686      0.0560
     39  CG       -14.6900    0.7250   34.7100 C.ar  686  PHE686     -0.0200
     40  CD1      -15.0340   -0.6100   34.3770 C.ar  686  PHE686     -0.0042
     41  CD2      -14.5490    1.6530   33.6810 C.ar  686  PHE686     -0.0042
     42  CE1      -15.2240   -0.9790   33.0300 C.ar  686  PHE686     -0.0003
     43  CE2      -14.7190    1.2680   32.3400 C.ar  686  PHE686     -0.0003
     44  CZ       -15.0590   -0.0340   32.0170 C.ar  686  PHE686     -0.0000
@<TRIPOS>BOND
     1    44    43   ar
     2    44    42   ar
     3    43    41   ar
     4     4     3    2
     5     8     6    1
     6    42    40   ar
     7    33    30    1
     8    41    39   ar
     9     3     2    1
    10     3     9   am
    11     2     5    1
    12     2     1    1
    13     5     6    1
    14     6     7    1
    15    40    39   ar
    16    39    38    1
    17    29    30    1
    18    29    25   am
    19     9    10    1
    20    30    31    1
    21    10    13    1
    22    10    11    1
    23    21    20    2
    24    13    14    1
    25    28    27    1
    26    16    15   ar
    27    24    25    1
    28    24    27    1
    29    24    23    1
    30    32    31    2
    31    18    11   am
    32    18    19    1
    33    31    34   am
    34    20    23   am
    35    20    19    1
    36    25    26    2
    37    11    12    2
    38    38    35    1
    39    34    35    1
    40    14    15    1
    41    15    17   ar
    42    19    22    1
    43    35    36    1
    44    36    37    2
