@<TRIPOS>MOLECULE
3ugw_DCZ_A_1.pdb
 16 17 0 0 0
SMALL
GASTEIGER

@<TRIPOS>ATOM
      1  N1       -20.4620   11.3730    4.8870 N.am  677  DCZ677     -0.1802
      2  C2       -20.1910   10.4810    3.7920 C.1   677  DCZ677      0.2756
      3  N3       -19.3610    9.4250    3.9800 N.2   677  DCZ677     -0.3024
      4  C4       -18.8060    9.1600    5.1830 C.2   677  DCZ677      0.2346
      5  C5       -19.0820   10.0140    6.2740 C.2   677  DCZ677      0.0687
      6  C6       -19.9430   11.1270    6.1210 C.2   677  DCZ677      0.0835
      7  O2       -20.6640   10.6310    2.6250 O.2   677  DCZ677     -0.1925
      8  N4       -18.0140    8.0540    5.2020 N.pl3 677  DCZ677     -0.0921
      9  C1'      -21.0310   12.7180    4.7910 C.3   677  DCZ677      0.2090
     10  C2'      -22.3380   12.2990    4.1270 C.3   677  DCZ677      0.0874
     11  C3'      -23.3210   12.4880    5.2360 C.3   677  DCZ677      0.1858
     12  C4'      -22.7840   13.7920    5.7960 C.3   677  DCZ677      0.1802
     13  O4'      -21.3910   13.4390    5.9940 O.3   677  DCZ677     -0.3338
     14  O3'      -24.5520   12.6230    4.6940 O.3   677  DCZ677     -0.2203
     15  C5'      -23.6050   14.1690    7.0210 C.3   677  DCZ677      0.2141
     16  O5'      -23.3430   15.5560    7.3700 O.3   677  DCZ677     -0.2176
@<TRIPOS>BOND
     1     7     2    2
     2     2     3    2
     3     2     1   am
     4     3     4    2
     5    10     9    1
     6    10    11    1
     7    14    11    1
     8     9     1    1
     9     9    13    1
    10     1     6    1
    11     4     8    1
    12     4     5    1
    13    11    12    1
    14    12    13    1
    15    12    15    1
    16     6     5    2
    17    15    16    1
