@<TRIPOS>MOLECULE
3ugy_HEM_A_1.pdb
 43 50 0 0 0
SMALL
GASTEIGER

@<TRIPOS>ATOM
      1  CHA       41.8790   -0.4930   17.4430 C.2   147  HEM147      0.0000
      2  CHB       39.5800   -1.9200   21.4860 C.2   147  HEM147      0.0000
      3  CHC       43.8540   -3.3730   23.3400 C.2   147  HEM147      0.0000
      4  CHD       45.9940   -2.5350   19.0400 C.2   147  HEM147      0.0000
      5  C1A       40.8840   -0.7200   18.4050 C.2   147  HEM147      0.0000
      6  C2A       39.4830   -0.3640   18.2330 C.2   147  HEM147      0.0000
      7  C3A       38.8340   -0.7530   19.3590 C.2   147  HEM147      0.0000
      8  C4A       39.8360   -1.3630   20.2290 C.2   147  HEM147      0.0000
      9  CMA       37.3450   -0.5860   19.6620 C.3   147  HEM147      0.0000
     10  CAA       38.9020    0.2330   16.9530 C.3   147  HEM147      0.0000
     11  CBA       38.6160   -0.8460   15.9160 C.3   147  HEM147      0.0000
     12  CGA       38.6250   -0.3130   14.4960 C.2   147  HEM147      0.0000
     13  O1A       37.9260    0.6830   14.2230 O.co2 147  HEM147      0.0000
     14  O2A       39.3350   -0.8950   13.6480 O.co2 147  HEM147      0.0000
     15  C1B       40.5410   -2.5020   22.3310 C.ar  147  HEM147      0.0000
     16  C2B       40.2690   -2.9850   23.6730 C.ar  147  HEM147      0.0000
     17  C3B       41.4650   -3.3260   24.2290 C.ar  147  HEM147      0.0000
     18  C4B       42.4810   -3.0830   23.2040 C.ar  147  HEM147      0.0000
     19  CMB       38.8910   -3.1430   24.3100 C.3   147  HEM147      0.0000
     20  CAB       41.6980   -3.8670   25.4980 C.3   147  HEM147      0.0000
     21  CBB       41.0720   -3.4430   26.7240 C.3   147  HEM147      0.0000
     22  C1C       44.8170   -3.2640   22.3280 C.2   147  HEM147      0.0000
     23  C2C       46.2350   -3.5470   22.5010 C.2   147  HEM147      0.0000
     24  C3C       46.8530   -3.3170   21.2930 C.2   147  HEM147      0.0000
     25  C4C       45.7850   -2.9230   20.3690 C.2   147  HEM147      0.0000
     26  CMC       46.8940   -3.9670   23.8150 C.3   147  HEM147      0.0000
     27  CAC       48.2210   -3.2970   20.9880 C.3   147  HEM147      0.0000
     28  CBC       49.2500   -4.1330   21.5690 C.3   147  HEM147      0.0000
     29  C1D       45.0580   -1.8920   18.2250 C.ar  147  HEM147      0.0000
     30  C2D       45.3660   -1.2830   16.9420 C.ar  147  HEM147      0.0000
     31  C3D       44.2350   -0.6560   16.5340 C.ar  147  HEM147      0.0000
     32  C4D       43.2120   -0.8950   17.5440 C.ar  147  HEM147      0.0000
     33  CMD       46.6910   -1.3050   16.1850 C.3   147  HEM147      0.0000
     34  CAD       44.1100    0.1860   15.2770 C.3   147  HEM147      0.0000
     35  CBD       44.0560    1.6750   15.5750 C.3   147  HEM147      0.0000
     36  CGD       43.8510    2.5080   14.3250 C.2   147  HEM147      0.0000
     37  O1D       44.7360    2.4910   13.4450 O.co2 147  HEM147      0.0000
     38  O2D       42.8010    3.1720   14.2240 O.co2 147  HEM147      0.0000
     39  NA        41.0840   -1.3490   19.6170 N.2   147  HEM147      0.0000
     40  NB        41.8970   -2.6000   22.0430 N.ar  147  HEM147      0.0000
     41  NC        44.5620   -2.8480   21.0300 N.2   147  HEM147      0.0000
     42  ND        43.7390   -1.6290   18.5940 N.ar  147  HEM147      0.0000
     43 FE         42.8190   -2.1480   20.3060 Fe    147  HEM147      0.0000
@<TRIPOS>BOND
     1    37    36   ar
     2    14    12   ar
     3    13    12   ar
     4    38    36   ar
     5    36    35    1
     6    12    11    1
     7    34    35    1
     8    34    31    1
     9    11    10    1
    10    33    30    1
    11    31    30   ar
    12    31    32   ar
    13    30    29   ar
    14    10     6    1
    15     1    32    2
    16     1     5    1
    17    32    42   ar
    18    29    42   ar
    19    29     4    2
    20     6     5    1
    21     6     7    2
    22     5    39    2
    23    42    43    1
    24     4    25    1
    25     7     9    1
    26     7     8    1
    27    39     8    1
    28    39    43    1
    29     8     2    2
    30    43    41    1
    31    43    40    1
    32    25    41    2
    33    25    24    1
    34    27    24    1
    35    27    28    1
    36    41    22    1
    37    24    23    2
    38     2    15    1
    39    40    15   ar
    40    40    18   ar
    41    22    23    1
    42    22     3    2
    43    15    16   ar
    44    23    26    1
    45    18     3    1
    46    18    17   ar
    47    16    17   ar
    48    16    19    1
    49    17    20    1
    50    20    21    1
