@<TRIPOS>MOLECULE
3ugz_HEM_A_1.pdb
 43 50 0 0 0
SMALL
GASTEIGER

@<TRIPOS>ATOM
      1  CHA       41.8390   -0.5410   17.4490 C.2   147  HEM147      0.0000
      2  CHB       39.4590   -2.0720   21.4120 C.2   147  HEM147      0.0000
      3  CHC       43.7440   -3.4710   23.3360 C.2   147  HEM147      0.0000
      4  CHD       45.9410   -2.5780   19.0860 C.2   147  HEM147      0.0000
      5  C1A       40.8300   -0.7910   18.3890 C.2   147  HEM147      0.0000
      6  C2A       39.4380   -0.4390   18.2110 C.2   147  HEM147      0.0000
      7  C3A       38.7680   -0.8670   19.3120 C.2   147  HEM147      0.0000
      8  C4A       39.7430   -1.5060   20.1690 C.2   147  HEM147      0.0000
      9  CMA       37.2790   -0.7160   19.5900 C.3   147  HEM147      0.0000
     10  CAA       38.8700    0.1720   16.9380 C.3   147  HEM147      0.0000
     11  CBA       38.6540   -0.9100   15.8900 C.3   147  HEM147      0.0000
     12  CGA       38.5630   -0.3500   14.4850 C.2   147  HEM147      0.0000
     13  O1A       37.8220    0.6360   14.2850 O.co2 147  HEM147      0.0000
     14  O2A       39.2270   -0.8990   13.5810 O.co2 147  HEM147      0.0000
     15  C1B       40.4230   -2.6340   22.2730 C.ar  147  HEM147      0.0000
     16  C2B       40.1430   -3.1600   23.5870 C.ar  147  HEM147      0.0000
     17  C3B       41.3460   -3.4970   24.1560 C.ar  147  HEM147      0.0000
     18  C4B       42.3670   -3.2040   23.1640 C.ar  147  HEM147      0.0000
     19  CMB       38.7470   -3.3540   24.1780 C.3   147  HEM147      0.0000
     20  CAB       41.6070   -4.0780   25.3990 C.3   147  HEM147      0.0000
     21  CBB       40.8680   -3.8710   26.6150 C.3   147  HEM147      0.0000
     22  C1C       44.7220   -3.3330   22.3450 C.2   147  HEM147      0.0000
     23  C2C       46.1360   -3.6240   22.5210 C.2   147  HEM147      0.0000
     24  C3C       46.7590   -3.4050   21.3160 C.2   147  HEM147      0.0000
     25  C4C       45.7110   -2.9800   20.4050 C.2   147  HEM147      0.0000
     26  CMC       46.7820   -4.0350   23.8470 C.3   147  HEM147      0.0000
     27  CAC       48.1230   -3.4420   20.9820 C.3   147  HEM147      0.0000
     28  CBC       49.1960   -4.0390   21.7410 C.3   147  HEM147      0.0000
     29  C1D       45.0090   -1.9270   18.2780 C.ar  147  HEM147      0.0000
     30  C2D       45.3260   -1.3000   17.0160 C.ar  147  HEM147      0.0000
     31  C3D       44.1890   -0.7140   16.5700 C.ar  147  HEM147      0.0000
     32  C4D       43.1640   -0.9620   17.5620 C.ar  147  HEM147      0.0000
     33  CMD       46.6890   -1.2700   16.3330 C.3   147  HEM147      0.0000
     34  CAD       44.0410    0.1010   15.2940 C.3   147  HEM147      0.0000
     35  CBD       44.0950    1.5890   15.5820 C.3   147  HEM147      0.0000
     36  CGD       43.8240    2.4270   14.3520 C.2   147  HEM147      0.0000
     37  O1D       44.6580    2.4100   13.4210 O.co2 147  HEM147      0.0000
     38  O2D       42.7710    3.0950   14.3140 O.co2 147  HEM147      0.0000
     39  NA        41.0090   -1.4600   19.5840 N.2   147  HEM147      0.0000
     40  NB        41.7890   -2.6970   22.0090 N.ar  147  HEM147      0.0000
     41  NC        44.4770   -2.8980   21.0560 N.2   147  HEM147      0.0000
     42  ND        43.6860   -1.6870   18.6240 N.ar  147  HEM147      0.0000
     43 FE         42.7340   -2.1970   20.3160 Fe    147  HEM147      0.0000
@<TRIPOS>BOND
     1    37    36   ar
     2    14    12   ar
     3    13    12   ar
     4    38    36   ar
     5    36    35    1
     6    12    11    1
     7    34    35    1
     8    34    31    1
     9    11    10    1
    10    33    30    1
    11    31    30   ar
    12    31    32   ar
    13    10     6    1
    14    30    29   ar
    15     1    32    2
    16     1     5    1
    17    32    42   ar
    18     6     5    1
    19     6     7    2
    20    29    42   ar
    21    29     4    2
    22     5    39    2
    23    42    43    1
    24     4    25    1
    25     7     9    1
    26     7     8    1
    27    39     8    1
    28    39    43    1
    29     8     2    2
    30    43    41    1
    31    43    40    1
    32    25    41    2
    33    25    24    1
    34    27    24    1
    35    27    28    1
    36    41    22    1
    37    24    23    2
    38     2    15    1
    39    40    15   ar
    40    40    18   ar
    41    15    16   ar
    42    22    23    1
    43    22     3    2
    44    23    26    1
    45    18     3    1
    46    18    17   ar
    47    16    17   ar
    48    16    19    1
    49    17    20    1
    50    20    21    1
