@<TRIPOS>MOLECULE
3uh0_TSB_A_1.pdb
 30 32 0 0 0
SMALL
GASTEIGER

@<TRIPOS>ATOM
      1  CG2       -0.3010  -14.5280  -34.8180 C.3   1002  TSB1002     0.0376
      2  N          3.3530  -15.4440  -34.5440 N.3   1002  TSB1002    -0.1203
      3  CA         1.9320  -15.5600  -34.5140 C.3   1002  TSB1002     0.2010
      4  CB         1.1870  -14.2730  -34.8390 C.3   1002  TSB1002     0.1784
      5  OG1        1.5140  -13.2230  -33.9760 O.3   1002  TSB1002    -0.2211
      6  C          1.5790  -16.5280  -35.5470 C.2   1002  TSB1002     0.2824
      7  O          2.2270  -16.5860  -36.5790 O.2   1002  TSB1002    -0.2700
      8  N8         0.4340  -17.3980  -35.3430 N.am  1002  TSB1002    -0.0576
      9  S1        -0.0060  -18.5210  -36.5470 S.3   1002  TSB1002     0.0852
     10  O1S        1.1350  -19.4450  -36.7780 O.3   1002  TSB1002    -0.0508
     11  O2S       -1.2210  -19.2920  -36.0720 O.3   1002  TSB1002    -0.0508
     12  O5'       -0.3340  -17.8050  -37.8270 O.3   1002  TSB1002    -0.2230
     13  C5'       -1.4920  -17.0050  -37.9220 C.3   1002  TSB1002     0.2064
     14  C4'       -2.3750  -17.1470  -39.0700 C.3   1002  TSB1002     0.1842
     15  O4'       -1.6230  -17.1330  -40.3340 O.3   1002  TSB1002    -0.3135
     16  C3'       -3.0250  -18.4680  -39.0590 C.3   1002  TSB1002     0.2185
     17  O3'       -4.1410  -18.4530  -38.2700 O.3   1002  TSB1002    -0.2174
     18  C2'       -3.3780  -18.6700  -40.4680 C.3   1002  TSB1002     0.2570
     19  O2'       -4.5600  -18.0950  -40.7510 O.3   1002  TSB1002    -0.2130
     20  C1'       -2.2940  -17.9880  -41.2360 C.3   1002  TSB1002     0.3186
     21  N9        -1.3580  -18.9230  -41.8450 N.pl3 1002  TSB1002    -0.1439
     22  C8        -0.5210  -19.7150  -41.1860 C.3   1002  TSB1002     0.3377
     23  N7         0.1690  -20.4410  -42.0910 N.2   1002  TSB1002    -0.2095
     24  C5        -0.2490  -20.1030  -43.3410 C.2   1002  TSB1002     0.2526
     25  C6         0.1160  -20.5400  -44.6550 C.2   1002  TSB1002     0.4393
     26  N6         1.1260  -21.5360  -44.8320 N.pl3 1002  TSB1002     0.2180
     27  N1        -0.4900  -20.0090  -45.6830 N.2   1002  TSB1002     0.0021
     28  C2        -1.4430  -19.0620  -45.5120 C.3   1002  TSB1002     0.5254
     29  N3        -1.8050  -18.6320  -44.2970 N.2   1002  TSB1002    -0.0055
     30  C4        -1.2250  -19.1380  -43.2000 C.2   1002  TSB1002     0.3518
@<TRIPOS>BOND
     1    27    28    1
     2    27    25    2
     3    28    29    1
     4    26    25    1
     5    25    24    1
     6    29    30    2
     7    24    30    1
     8    24    23    2
     9    30    21    1
    10    23    22    1
    11    21    20    1
    12    21    22    1
    13    20    18    1
    14    20    15    1
    15    19    18    1
    16    18    16    1
    17    15    14    1
    18    14    16    1
    19    14    13    1
    20    16    17    1
    21    13    12    1
    22    12     9    1
    23    10     9    1
    24     7     6    2
    25     9    11    1
    26     9     8    1
    27     6     8   am
    28     6     3    1
    29     4     1    1
    30     4     3    1
    31     4     5    1
    32     2     3    1
