@<TRIPOS>MOLECULE
3uh1_NAI_A_1.pdb
 44 48 0 0 0
SMALL
GASTEIGER

@<TRIPOS>ATOM
      1  PA        10.5450    5.0810    3.7870 P.3   374  NAI374      0.2189
      2  O1A       10.0060    3.7940    4.2840 O.3   374  NAI374     -0.4371
      3  O2A        9.8100    5.8390    2.7290 O.2   374  NAI374     -0.5170
      4  O5B       10.5790    5.9760    5.1270 O.3   374  NAI374     -0.3112
      5  C5B       11.0070    7.3510    5.0730 C.3   374  NAI374      0.1813
      6  C4B       10.4410    8.0780    6.3060 C.3   374  NAI374      0.1821
      7  O4B       10.9140    9.4260    6.3610 O.3   374  NAI374     -0.3135
      8  C3B        8.9160    8.1770    6.1860 C.3   374  NAI374      0.2184
      9  O3B        8.2750    7.6140    7.3450 O.3   374  NAI374     -0.2174
     10  C2B        8.6130    9.6510    6.0020 C.3   374  NAI374      0.2570
     11  O2B        7.3470    9.9750    6.5780 O.3   374  NAI374     -0.2130
     12  C1B        9.7970   10.2840    6.7180 C.3   374  NAI374      0.3186
     13  N9A       10.1790   11.6460    6.2630 N.pl3 374  NAI374     -0.1439
     14  C8A       10.3170   12.0970    5.0070 C.3   374  NAI374      0.3377
     15  N7A       10.7580   13.3800    5.0420 N.2   374  NAI374     -0.2095
     16  C5A       10.8900   13.7300    6.3400 C.2   374  NAI374      0.2526
     17  C6A       11.2720   14.8940    7.0110 C.2   374  NAI374      0.4393
     18  N6A       11.6230   16.0200    6.3390 N.pl3 374  NAI374      0.2180
     19  N1A       11.2810   14.8920    8.3680 N.2   374  NAI374      0.0021
     20  C2A       10.9320   13.8250    9.0950 C.3   374  NAI374      0.5254
     21  N3A       10.5680   12.6930    8.4820 N.2   374  NAI374     -0.0055
     22  C4A       10.5480   12.6260    7.1110 C.2   374  NAI374      0.3518
     23  O3        12.0100    5.0570    3.1570 O.3   374  NAI374     -0.2703
     24  PN        13.1070    3.9360    3.4820 P.3   374  NAI374      0.2189
     25  O1N       12.7920    2.7540    2.6070 O.2   374  NAI374     -0.5170
     26  O2N       13.2270    3.8370    4.9730 O.3   374  NAI374     -0.4371
     27  O5D       14.4160    4.6630    2.9320 O.3   374  NAI374     -0.3112
     28  C5D       14.6820    5.9990    3.2730 C.3   374  NAI374      0.1813
     29  C4D       16.0060    6.4080    2.6560 C.3   374  NAI374      0.1799
     30  O4D       16.9150    5.4580    3.1830 O.3   374  NAI374     -0.3327
     31  C3D       16.0070    6.1880    1.1560 C.3   374  NAI374      0.2158
     32  O3D       16.1560    7.4160    0.4250 O.3   374  NAI374     -0.2175
     33  C2D       17.1430    5.2190    0.8870 C.3   374  NAI374      0.2309
     34  O2D       17.9170    5.6050   -0.2420 O.3   374  NAI374     -0.2158
     35  C1D       17.9390    5.1570    2.2180 C.3   374  NAI374      0.2263
     36  N1N       18.5910    3.8280    2.3780 N.pl3 374  NAI374     -0.2787
     37  C2N       19.9240    3.7190    2.6050 C.3   374  NAI374      0.1244
     38  C3N       20.5540    2.4760    2.7200 C.2   374  NAI374      0.0544
     39  C7N       22.0310    2.3440    3.0340 C.2   374  NAI374      0.2818
     40  O7N       22.6180    1.2510    2.8950 O.2   374  NAI374     -0.2670
     41  N7N       22.6470    3.3970    3.5980 N.am  374  NAI374     -0.0839
     42  C4N       19.8110    1.3110    2.5220 C.2   374  NAI374      0.0033
     43  C5N       18.4510    1.3970    2.2730 C.2   374  NAI374      0.0157
     44  C6N       17.8590    2.6800    2.2580 C.2   374  NAI374      0.0633
@<TRIPOS>BOND
     1    34    33    1
     2    32    31    1
     3    33    31    1
     4    33    35    1
     5    31    29    1
     6    35    36    1
     7    35    30    1
     8    44    43    2
     9    44    36    1
    10    43    42    1
    11    36    37    1
    12    42    38    2
    13    37    38    1
    14    25    24    2
    15    29    30    1
    16    29    28    1
    17    38    39    1
    18     3     1    2
    19    40    39    2
    20    27    28    1
    21    27    24    1
    22    39    41   am
    23    23    24    1
    24    23     1    1
    25    24    26    1
    26     1     2    1
    27     1     4    1
    28    14    15    1
    29    14    13    1
    30    15    16    2
    31     5     4    1
    32     5     6    1
    33    10     8    1
    34    10    11    1
    35    10    12    1
    36     8     6    1
    37     8     9    1
    38    13    12    1
    39    13    22    1
    40     6     7    1
    41    18    17    1
    42    16    17    1
    43    16    22    1
    44     7    12    1
    45    17    19    2
    46    22    21    2
    47    19    20    1
    48    21    20    1
