@<TRIPOS>MOLECULE
3uh1_SHR_A_1.pdb
 19 18 0 0 0
SMALL
GASTEIGER

@<TRIPOS>ATOM
      1  N1        19.3530    8.1040   -0.4070 N.3   375  SHR375     -0.1208
      2  C10       20.4450    8.0740   -1.4160 C.3   375  SHR375      0.1943
      3  C9        21.0380    6.6690   -1.5530 C.3   375  SHR375      0.0307
      4  C8        21.3870    5.9120   -0.2430 C.3   375  SHR375      0.0035
      5  C7        22.1000    4.5870   -0.5540 C.3   375  SHR375      0.0189
      6  C6        21.0690    3.5080   -0.9740 C.3   375  SHR375      0.0893
      7  N         21.5880    2.1440   -1.1390 N.3   375  SHR375     -0.2084
      8  C11       19.9090    8.4800   -2.7900 C.2   375  SHR375      0.3819
      9  O5        20.7250    8.5990   -3.7490 O.co2 375  SHR375     -0.2441
     10  O6        18.6630    8.6550   -2.9220 O.co2 375  SHR375     -0.2441
     11  C4        20.6280    1.0670   -0.8200 C.3   375  SHR375      0.1763
     12  C3        19.2890    1.1200   -1.5840 C.3   375  SHR375      0.0407
     13  C2        18.2620    0.0620   -1.1380 C.3   375  SHR375      0.1161
     14  C1        16.7900    0.4860   -1.2480 C.2   375  SHR375      0.3649
     15  O1        16.4520    1.7060   -1.3640 O.co2 375  SHR375     -0.2457
     16  O2        15.9590   -0.4560   -1.1930 O.co2 375  SHR375     -0.2457
     17  C5        21.2200   -0.2910   -0.9140 C.2   375  SHR375      0.3803
     18  O3        22.1850   -0.5360   -1.6560 O.co2 375  SHR375     -0.2441
     19  O4        20.7200   -1.1420   -0.2170 O.co2 375  SHR375     -0.2441
@<TRIPOS>BOND
     1     9     8   ar
     2    10     8   ar
     3     8     2    1
     4    18    17   ar
     5    12    13    1
     6    12    11    1
     7     3     2    1
     8     3     4    1
     9     2     1    1
    10    15    14   ar
    11    14    16   ar
    12    14    13    1
    13     7     6    1
    14     7    11    1
    15     6     5    1
    16    17    11    1
    17    17    19   ar
    18     5     4    1
