@<TRIPOS>MOLECULE
3uh2_P34_A_1.pdb
 22 24 0 0 0
SMALL
GASTEIGER

@<TRIPOS>ATOM
      1  CAA      -30.4480   -4.2670    2.9810 C.3     1  P341        0.0900
      2  N        -30.8190   -4.5140    4.3830 N.3     1  P341       -0.2625
      3  CAB      -31.9510   -3.6590    4.7510 C.3     1  P341        0.0900
      4  CA       -29.6960   -4.2150    5.3180 C.3     1  P341        0.1606
      5  C        -28.7590   -5.4020    5.6010 C.2     1  P341        0.2619
      6  O        -29.0100   -6.4790    5.0650 O.2     1  P341       -0.2715
      7  NAM      -27.7080   -5.1370    6.4170 N.am    1  P341       -0.1783
      8  CAP      -26.6600   -5.9910    6.8760 C.2     1  P341        0.0696
      9  CAK      -26.8110   -7.4010    6.9460 C.2     1  P341        0.0185
     10  CAU      -25.7380   -8.2630    7.3080 C.2     1  P341        0.0287
     11  CAT      -25.8530   -9.7430    7.3790 C.ar    1  P341        0.0141
     12  CAI      -27.0430  -10.4380    7.0030 C.ar    1  P341        0.0008
     13  CAF      -27.1380  -11.8360    7.1530 C.ar    1  P341        0.0000
     14  CAE      -26.0290  -12.5810    7.6200 C.ar    1  P341        0.0008
     15  CAH      -24.8290  -11.9240    7.9600 C.ar    1  P341        0.0127
     16  CAS      -24.7190  -10.5190    7.7960 C.ar    1  P341        0.0948
     17  CAQ      -23.4290   -9.8230    8.1540 C.1     1  P341        0.2043
     18  OAD      -22.4230  -10.4300    8.5150 O.2     1  P341       -0.2093
     19  NAN      -23.4090   -8.4880    8.0370 N.2     1  P341       -0.3370
     20  CAR      -24.4820   -7.6600    7.5980 C.2     1  P341        0.1263
     21  CAJ      -24.3200   -6.2480    7.5670 C.3     1  P341        0.0873
     22  CAG      -25.3910   -5.4120    7.1490 C.2     1  P341       -0.0020
@<TRIPOS>BOND
     1     1     2    1
     2     2     3    1
     3     2     4    1
     4     6     5    2
     5     4     5    1
     6     5     7   am
     7     7     8    1
     8     8     9    1
     9     8    22    2
    10     9    10    2
    11    12    13   ar
    12    12    11   ar
    13    22    21    1
    14    13    14   ar
    15    10    11    1
    16    10    20    1
    17    11    16   ar
    18    21    20    1
    19    20    19    2
    20    14    15   ar
    21    16    15   ar
    22    16    17    1
    23    19    17    2
    24    17    18    2
