@<TRIPOS>MOLECULE
3uh3_HEM_A_1.pdb
 43 50 0 0 0
SMALL
GASTEIGER

@<TRIPOS>ATOM
      1  CHA       41.8500   -0.3990   17.3760 C.2   147  HEM147      0.0000
      2  CHB       39.5400   -1.8120   21.4110 C.2   147  HEM147      0.0000
      3  CHC       43.7920   -3.3060   23.3120 C.2   147  HEM147      0.0000
      4  CHD       45.9860   -2.3490   19.0700 C.2   147  HEM147      0.0000
      5  C1A       40.8580   -0.6450   18.3270 C.2   147  HEM147      0.0000
      6  C2A       39.4720   -0.2550   18.1760 C.2   147  HEM147      0.0000
      7  C3A       38.8240   -0.6040   19.3010 C.2   147  HEM147      0.0000
      8  C4A       39.8070   -1.2390   20.1620 C.2   147  HEM147      0.0000
      9  CMA       37.3390   -0.3900   19.5760 C.3   147  HEM147      0.0000
     10  CAA       38.8950    0.3560   16.9130 C.3   147  HEM147      0.0000
     11  CBA       38.6070   -0.7310   15.8940 C.3   147  HEM147      0.0000
     12  CGA       38.5370   -0.1930   14.4820 C.2   147  HEM147      0.0000
     13  O1A       37.8440    0.8180   14.2710 O.co2 147  HEM147      0.0000
     14  O2A       39.1720   -0.7840   13.5840 O.co2 147  HEM147      0.0000
     15  C1B       40.4930   -2.4200   22.2430 C.ar  147  HEM147      0.0000
     16  C2B       40.2070   -2.9530   23.5530 C.ar  147  HEM147      0.0000
     17  C3B       41.4010   -3.3040   24.1190 C.ar  147  HEM147      0.0000
     18  C4B       42.4220   -3.0340   23.1360 C.ar  147  HEM147      0.0000
     19  CMB       38.8110   -3.2190   24.1040 C.3   147  HEM147      0.0000
     20  CAB       41.6600   -3.8940   25.5090 C.3   147  HEM147      0.0000
     21  CBB       40.8320   -3.6990   26.6690 C.3   147  HEM147      0.0000
     22  C1C       44.7670   -3.1590   22.3190 C.2   147  HEM147      0.0000
     23  C2C       46.1930   -3.4060   22.5040 C.2   147  HEM147      0.0000
     24  C3C       46.8080   -3.1620   21.3080 C.2   147  HEM147      0.0000
     25  C4C       45.7580   -2.7720   20.3850 C.2   147  HEM147      0.0000
     26  CMC       46.8590   -3.8040   23.8220 C.3   147  HEM147      0.0000
     27  CAC       48.3060   -3.2070   20.9640 C.3   147  HEM147      0.0000
     28  CBC       49.3250   -3.8850   21.7200 C.3   147  HEM147      0.0000
     29  C1D       45.0420   -1.7210   18.2400 C.ar  147  HEM147      0.0000
     30  C2D       45.3400   -1.1020   16.9610 C.ar  147  HEM147      0.0000
     31  C3D       44.2090   -0.4980   16.5310 C.ar  147  HEM147      0.0000
     32  C4D       43.1870   -0.7710   17.5070 C.ar  147  HEM147      0.0000
     33  CMD       46.6610   -1.1360   16.2060 C.3   147  HEM147      0.0000
     34  CAD       44.0740    0.3150   15.2540 C.3   147  HEM147      0.0000
     35  CBD       44.1710    1.8030   15.5060 C.3   147  HEM147      0.0000
     36  CGD       43.8280    2.6130   14.2750 C.2   147  HEM147      0.0000
     37  O1D       44.5820    2.5320   13.2810 O.co2 147  HEM147      0.0000
     38  O2D       42.8010    3.3220   14.3030 O.co2 147  HEM147      0.0000
     39  NA        41.0520   -1.2570   19.5460 N.2   147  HEM147      0.0000
     40  NB        41.8540   -2.5120   21.9720 N.ar  147  HEM147      0.0000
     41  NC        44.5200   -2.7350   21.0260 N.2   147  HEM147      0.0000
     42  ND        43.7140   -1.4910   18.5790 N.ar  147  HEM147      0.0000
     43 FE         42.7740   -2.0200   20.2650 Fe    147  HEM147      0.0000
@<TRIPOS>BOND
     1    37    36   ar
     2    14    12   ar
     3    13    12   ar
     4    36    38   ar
     5    36    35    1
     6    12    11    1
     7    34    35    1
     8    34    31    1
     9    11    10    1
    10    33    30    1
    11    31    30   ar
    12    31    32   ar
    13    10     6    1
    14    30    29   ar
    15     1    32    2
    16     1     5    1
    17    32    42   ar
    18     6     5    1
    19     6     7    2
    20    29    42   ar
    21    29     4    2
    22     5    39    2
    23    42    43    1
    24     4    25    1
    25     7     9    1
    26     7     8    1
    27    39     8    1
    28    39    43    1
    29     8     2    2
    30    43    41    1
    31    43    40    1
    32    25    41    2
    33    25    24    1
    34    27    24    1
    35    27    28    1
    36    41    22    1
    37    24    23    2
    38     2    15    1
    39    40    15   ar
    40    40    18   ar
    41    15    16   ar
    42    22    23    1
    43    22     3    2
    44    23    26    1
    45    18     3    1
    46    18    17   ar
    47    16    19    1
    48    16    17   ar
    49    17    20    1
    50    20    21    1
