@<TRIPOS>MOLECULE
3uh4_XAV_A_1.pdb
 21 23 0 0 0
SMALL
GASTEIGER

@<TRIPOS>ATOM
      1  N1       -23.3660   -8.5370    8.2000 N.2     1  XAV1       -0.2700
      2  C2       -24.5070   -7.9250    7.8160 C.1     1  XAV1        0.1490
      3  N3       -25.6060   -8.5920    7.4440 N.2     1  XAV1       -0.3469
      4  C4       -25.6390   -9.9290    7.5170 C.2     1  XAV1        0.1171
      5  C5       -24.5330  -10.6420    8.0540 C.3     1  XAV1        0.1783
      6  C6       -23.3850   -9.8810    8.3130 C.1     1  XAV1        0.1967
      7  O6       -22.2730  -10.5080    8.7590 O.2     1  XAV1       -0.2130
      8  FAB      -23.9010   -1.4400    7.5820 F       1  XAV1       -0.1659
      9  FAC      -23.7810   -2.0830    5.5550 F       1  XAV1       -0.1659
     10  FAD      -25.7290   -1.7220    6.3650 F       1  XAV1       -0.1659
     11  CAE      -25.4900   -5.8760    6.7380 C.ar    1  XAV1        0.0120
     12  CAF      -23.5470   -5.5850    8.2160 C.ar    1  XAV1        0.0120
     13  CAG      -25.4840   -4.5050    6.4530 C.ar    1  XAV1        0.0046
     14  CAH      -23.5510   -4.2000    7.9410 C.ar    1  XAV1        0.0046
     15  CAI      -26.8790  -12.0970    6.9370 C.3     1  XAV1        0.0647
     16  CAJ      -26.9700  -10.5630    7.0920 C.3     1  XAV1        0.0682
     17  CAK      -24.4850  -12.1530    8.2730 C.3     1  XAV1        0.0821
     18  SAN      -26.1490  -12.8390    8.4240 S.3     1  XAV1       -0.1382
     19  CAP      -24.4990   -6.4520    7.5820 C.ar    1  XAV1        0.0864
     20  CAQ      -24.5330   -3.6520    7.0720 C.ar    1  XAV1        0.0715
     21  CAU      -24.5080   -2.1850    6.6660 C.3     1  XAV1        0.4186
@<TRIPOS>BOND
     1     9    21    1
     2    10    21    1
     3    13    11   ar
     4    13    20   ar
     5    21    20    1
     6    21     8    1
     7    11    19   ar
     8    15    16    1
     9    15    18    1
    10    20    14   ar
    11    16     4    1
    12     3     4    2
    13     3     2    2
    14     4     5    1
    15    19     2    1
    16    19    12   ar
    17     2     1    2
    18    14    12   ar
    19     5    17    1
    20     5     6    1
    21     1     6    2
    22    17    18    1
    23     6     7    2
