@<TRIPOS>MOLECULE
3uh5_HEM_A_1.pdb
 43 50 0 0 0
SMALL
GASTEIGER

@<TRIPOS>ATOM
      1  CHA       41.9950   -0.5940   17.4880 C.2   147  HEM147      0.0000
      2  CHB       39.6860   -2.0010   21.5330 C.2   147  HEM147      0.0000
      3  CHC       43.9770   -3.4370   23.3850 C.2   147  HEM147      0.0000
      4  CHD       46.1370   -2.5890   19.1130 C.2   147  HEM147      0.0000
      5  C1A       40.9940   -0.8050   18.4490 C.2   147  HEM147      0.0000
      6  C2A       39.6010   -0.4290   18.2910 C.2   147  HEM147      0.0000
      7  C3A       38.9500   -0.8040   19.4200 C.2   147  HEM147      0.0000
      8  C4A       39.9440   -1.4330   20.2840 C.2   147  HEM147      0.0000
      9  CMA       37.4630   -0.6120   19.7180 C.3   147  HEM147      0.0000
     10  CAA       39.0110    0.1460   17.0120 C.3   147  HEM147      0.0000
     11  CBA       38.7270   -0.9640   16.0070 C.3   147  HEM147      0.0000
     12  CGA       38.6530   -0.4540   14.5810 C.2   147  HEM147      0.0000
     13  O1A       37.9110    0.5180   14.3300 O.co2 147  HEM147      0.0000
     14  O2A       39.3360   -1.0280   13.7090 O.co2 147  HEM147      0.0000
     15  C1B       40.6560   -2.5810   22.3760 C.ar  147  HEM147      0.0000
     16  C2B       40.3920   -3.0780   23.7090 C.ar  147  HEM147      0.0000
     17  C3B       41.6020   -3.4250   24.2590 C.ar  147  HEM147      0.0000
     18  C4B       42.6100   -3.1550   23.2450 C.ar  147  HEM147      0.0000
     19  CMB       39.0140   -3.2110   24.3520 C.3   147  HEM147      0.0000
     20  CAB       41.8650   -3.9650   25.5200 C.3   147  HEM147      0.0000
     21  CBB       41.2010   -3.5970   26.7410 C.3   147  HEM147      0.0000
     22  C1C       44.9410   -3.3240   22.3880 C.2   147  HEM147      0.0000
     23  C2C       46.3420   -3.6550   22.5590 C.2   147  HEM147      0.0000
     24  C3C       46.9520   -3.4890   21.3380 C.2   147  HEM147      0.0000
     25  C4C       45.9140   -2.9970   20.4340 C.2   147  HEM147      0.0000
     26  CMC       46.9970   -4.0670   23.8800 C.3   147  HEM147      0.0000
     27  CAC       48.2770   -3.7470   20.9670 C.3   147  HEM147      0.0000
     28  CBC       49.4400   -3.8730   21.8280 C.3   147  HEM147      0.0000
     29  C1D       45.1870   -1.9560   18.2910 C.ar  147  HEM147      0.0000
     30  C2D       45.4660   -1.4130   16.9720 C.ar  147  HEM147      0.0000
     31  C3D       44.3390   -0.7960   16.5640 C.ar  147  HEM147      0.0000
     32  C4D       43.3300   -0.9970   17.5900 C.ar  147  HEM147      0.0000
     33  CMD       46.7470   -1.5610   16.1610 C.3   147  HEM147      0.0000
     34  CAD       44.1990    0.0250   15.3020 C.3   147  HEM147      0.0000
     35  CBD       44.2610    1.5160   15.5870 C.3   147  HEM147      0.0000
     36  CGD       44.0490    2.3520   14.3390 C.2   147  HEM147      0.0000
     37  O1D       44.9010    2.2970   13.4300 O.co2 147  HEM147      0.0000
     38  O2D       43.0240    3.0600   14.2660 O.co2 147  HEM147      0.0000
     39  NA        41.1940   -1.4240   19.6740 N.2   147  HEM147      0.0000
     40  NB        42.0180   -2.6620   22.0930 N.ar  147  HEM147      0.0000
     41  NC        44.6900   -2.8940   21.0930 N.2   147  HEM147      0.0000
     42  ND        43.8690   -1.6870   18.6590 N.ar  147  HEM147      0.0000
     43 FE         42.9370   -2.1890   20.3720 Fe    147  HEM147      0.0000
@<TRIPOS>BOND
     1    37    36   ar
     2    14    12   ar
     3    38    36   ar
     4    13    12   ar
     5    36    35    1
     6    12    11    1
     7    34    35    1
     8    34    31    1
     9    11    10    1
    10    33    30    1
    11    31    30   ar
    12    31    32   ar
    13    30    29   ar
    14    10     6    1
    15     1    32    2
    16     1     5    1
    17    32    42   ar
    18     6     5    1
    19     6     7    2
    20    29    42   ar
    21    29     4    2
    22     5    39    2
    23    42    43    1
    24     4    25    1
    25     7     9    1
    26     7     8    1
    27    39     8    1
    28    39    43    1
    29     8     2    2
    30    43    41    1
    31    43    40    1
    32    25    41    2
    33    25    24    1
    34    27    24    1
    35    27    28    1
    36    41    22    1
    37    24    23    2
    38     2    15    1
    39    40    15   ar
    40    40    18   ar
    41    15    16   ar
    42    22    23    1
    43    22     3    2
    44    23    26    1
    45    18     3    1
    46    18    17   ar
    47    16    17   ar
    48    16    19    1
    49    17    20    1
    50    20    21    1
