@<TRIPOS>MOLECULE
3uh6_HEM_A_1.pdb
 43 50 0 0 0
SMALL
GASTEIGER

@<TRIPOS>ATOM
      1  CHA       41.7620   -0.5400   17.3940 C.2   147  HEM147      0.0000
      2  CHB       39.4300   -1.8790   21.4550 C.2   147  HEM147      0.0000
      3  CHC       43.6850   -3.3170   23.3670 C.2   147  HEM147      0.0000
      4  CHD       45.8710   -2.5130   19.0810 C.2   147  HEM147      0.0000
      5  C1A       40.7610   -0.7280   18.3610 C.2   147  HEM147      0.0000
      6  C2A       39.3620   -0.3690   18.1750 C.2   147  HEM147      0.0000
      7  C3A       38.7070   -0.7400   19.3170 C.2   147  HEM147      0.0000
      8  C4A       39.7070   -1.3190   20.2040 C.2   147  HEM147      0.0000
      9  CMA       37.2190   -0.6160   19.6150 C.3   147  HEM147      0.0000
     10  CAA       38.8200    0.2750   16.8970 C.3   147  HEM147      0.0000
     11  CBA       38.6030   -0.7800   15.8180 C.3   147  HEM147      0.0000
     12  CGA       38.5750   -0.1890   14.4200 C.2   147  HEM147      0.0000
     13  O1A       37.8060    0.7710   14.1890 O.co2 147  HEM147      0.0000
     14  O2A       39.3240   -0.6910   13.5510 O.co2 147  HEM147      0.0000
     15  C1B       40.3780   -2.4690   22.2990 C.ar  147  HEM147      0.0000
     16  C2B       40.0920   -2.9540   23.6330 C.ar  147  HEM147      0.0000
     17  C3B       41.2890   -3.3150   24.1750 C.ar  147  HEM147      0.0000
     18  C4B       42.3140   -3.0460   23.1890 C.ar  147  HEM147      0.0000
     19  CMB       38.7130   -3.0280   24.2900 C.3   147  HEM147      0.0000
     20  CAB       41.5460   -3.9260   25.5470 C.3   147  HEM147      0.0000
     21  CBB       40.9690   -3.3880   26.7450 C.3   147  HEM147      0.0000
     22  C1C       44.6630   -3.2110   22.3700 C.2   147  HEM147      0.0000
     23  C2C       46.0760   -3.5440   22.5320 C.2   147  HEM147      0.0000
     24  C3C       46.6850   -3.3280   21.3210 C.2   147  HEM147      0.0000
     25  C4C       45.6380   -2.8960   20.4080 C.2   147  HEM147      0.0000
     26  CMC       46.7280   -4.0390   23.8220 C.3   147  HEM147      0.0000
     27  CAC       48.1640   -3.4160   20.9280 C.3   147  HEM147      0.0000
     28  CBC       49.2540   -3.8930   21.7410 C.3   147  HEM147      0.0000
     29  C1D       44.9490   -1.8630   18.2570 C.ar  147  HEM147      0.0000
     30  C2D       45.2650   -1.2850   16.9610 C.ar  147  HEM147      0.0000
     31  C3D       44.1300   -0.6910   16.5160 C.ar  147  HEM147      0.0000
     32  C4D       43.1010   -0.9250   17.5180 C.ar  147  HEM147      0.0000
     33  CMD       46.5940   -1.3220   16.2130 C.3   147  HEM147      0.0000
     34  CAD       43.9830    0.1170   15.2290 C.3   147  HEM147      0.0000
     35  CBD       44.1400    1.6080   15.4730 C.3   147  HEM147      0.0000
     36  CGD       43.7750    2.4410   14.2560 C.2   147  HEM147      0.0000
     37  O1D       44.5170    2.3950   13.2530 O.co2 147  HEM147      0.0000
     38  O2D       42.7370    3.1330   14.3070 O.co2 147  HEM147      0.0000
     39  NA        40.9530   -1.3180   19.6020 N.2   147  HEM147      0.0000
     40  NB        41.7360   -2.5600   22.0270 N.ar  147  HEM147      0.0000
     41  NC        44.4110   -2.8000   21.0650 N.2   147  HEM147      0.0000
     42  ND        43.6260   -1.6140   18.6010 N.ar  147  HEM147      0.0000
     43 FE         42.6770   -2.1040   20.3140 Fe    147  HEM147      0.0000
@<TRIPOS>BOND
     1    37    36   ar
     2    14    12   ar
     3    13    12   ar
     4    36    38   ar
     5    36    35    1
     6    12    11    1
     7    34    35    1
     8    34    31    1
     9    11    10    1
    10    33    30    1
    11    31    30   ar
    12    31    32   ar
    13    10     6    1
    14    30    29   ar
    15     1    32    2
    16     1     5    1
    17    32    42   ar
    18     6     5    1
    19     6     7    2
    20    29    42   ar
    21    29     4    2
    22     5    39    2
    23    42    43    1
    24     4    25    1
    25     7     9    1
    26     7     8    1
    27    39     8    1
    28    39    43    1
    29     8     2    2
    30    43    41    1
    31    43    40    1
    32    25    41    2
    33    25    24    1
    34    27    24    1
    35    27    28    1
    36    41    22    1
    37    24    23    2
    38     2    15    1
    39    40    15   ar
    40    40    18   ar
    41    15    16   ar
    42    22    23    1
    43    22     3    2
    44    23    26    1
    45    18     3    1
    46    18    17   ar
    47    16    17   ar
    48    16    19    1
    49    17    20    1
    50    20    21    1
