@<TRIPOS>MOLECULE
3uh7_HEM_A_1.pdb
 43 50 0 0 0
SMALL
GASTEIGER

@<TRIPOS>ATOM
      1  CHA       41.8650   -0.5770   17.4370 C.2   147  HEM147      0.0000
      2  CHB       39.5090   -1.9770   21.4480 C.2   147  HEM147      0.0000
      3  CHC       43.7780   -3.4170   23.3490 C.2   147  HEM147      0.0000
      4  CHD       45.9860   -2.5440   19.0900 C.2   147  HEM147      0.0000
      5  C1A       40.8570   -0.8150   18.3760 C.2   147  HEM147      0.0000
      6  C2A       39.4610   -0.4710   18.1850 C.2   147  HEM147      0.0000
      7  C3A       38.7860   -0.8500   19.3030 C.2   147  HEM147      0.0000
      8  C4A       39.7840   -1.4330   20.1940 C.2   147  HEM147      0.0000
      9  CMA       37.2850   -0.7490   19.5680 C.3   147  HEM147      0.0000
     10  CAA       38.9200    0.1430   16.9020 C.3   147  HEM147      0.0000
     11  CBA       38.7200   -0.9200   15.8350 C.3   147  HEM147      0.0000
     12  CGA       38.6270   -0.3340   14.4420 C.2   147  HEM147      0.0000
     13  O1A       37.8660    0.6380   14.2560 O.co2 147  HEM147      0.0000
     14  O2A       39.3120   -0.8490   13.5340 O.co2 147  HEM147      0.0000
     15  C1B       40.4650   -2.5500   22.3020 C.ar  147  HEM147      0.0000
     16  C2B       40.1800   -3.0290   23.6480 C.ar  147  HEM147      0.0000
     17  C3B       41.3820   -3.3680   24.2160 C.ar  147  HEM147      0.0000
     18  C4B       42.4030   -3.1280   23.1980 C.ar  147  HEM147      0.0000
     19  CMB       38.7870   -3.1930   24.2530 C.3   147  HEM147      0.0000
     20  CAB       41.6340   -3.8950   25.4870 C.3   147  HEM147      0.0000
     21  CBB       40.9780   -3.5330   26.7180 C.3   147  HEM147      0.0000
     22  C1C       44.7570   -3.3070   22.3500 C.2   147  HEM147      0.0000
     23  C2C       46.1680   -3.6240   22.5270 C.2   147  HEM147      0.0000
     24  C3C       46.8030   -3.3960   21.3270 C.2   147  HEM147      0.0000
     25  C4C       45.7560   -2.9500   20.4100 C.2   147  HEM147      0.0000
     26  CMC       46.7890   -4.0620   23.8520 C.3   147  HEM147      0.0000
     27  CAC       48.1680   -3.4190   21.0030 C.3   147  HEM147      0.0000
     28  CBC       49.2330   -4.0850   21.7200 C.3   147  HEM147      0.0000
     29  C1D       45.0480   -1.8990   18.2750 C.ar  147  HEM147      0.0000
     30  C2D       45.3510   -1.3150   16.9860 C.ar  147  HEM147      0.0000
     31  C3D       44.2170   -0.7120   16.5540 C.ar  147  HEM147      0.0000
     32  C4D       43.2020   -0.9490   17.5590 C.ar  147  HEM147      0.0000
     33  CMD       46.6750   -1.3880   16.2380 C.3   147  HEM147      0.0000
     34  CAD       44.0630    0.0990   15.2800 C.3   147  HEM147      0.0000
     35  CBD       44.0340    1.5900   15.5650 C.3   147  HEM147      0.0000
     36  CGD       43.7760    2.4110   14.3200 C.2   147  HEM147      0.0000
     37  O1D       44.6420    2.4170   13.4210 O.co2 147  HEM147      0.0000
     38  O2D       42.7030    3.0440   14.2390 O.co2 147  HEM147      0.0000
     39  NA        41.0460   -1.4190   19.6010 N.2   147  HEM147      0.0000
     40  NB        41.8270   -2.6450   22.0270 N.ar  147  HEM147      0.0000
     41  NC        44.5230   -2.8680   21.0580 N.2   147  HEM147      0.0000
     42  ND        43.7320   -1.6530   18.6280 N.ar  147  HEM147      0.0000
     43 FE         42.7830   -2.1740   20.3240 Fe    147  HEM147      0.0000
@<TRIPOS>BOND
     1    37    36   ar
     2    14    12   ar
     3    38    36   ar
     4    13    12   ar
     5    36    35    1
     6    12    11    1
     7    34    35    1
     8    34    31    1
     9    11    10    1
    10    33    30    1
    11    31    30   ar
    12    31    32   ar
    13    10     6    1
    14    30    29   ar
    15     1    32    2
    16     1     5    1
    17    32    42   ar
    18     6     5    1
    19     6     7    2
    20    29    42   ar
    21    29     4    2
    22     5    39    2
    23    42    43    1
    24     4    25    1
    25     7     9    1
    26     7     8    1
    27    39     8    1
    28    39    43    1
    29     8     2    2
    30    43    41    1
    31    43    40    1
    32    25    41    2
    33    25    24    1
    34    27    24    1
    35    27    28    1
    36    41    22    1
    37    24    23    2
    38     2    15    1
    39    40    15   ar
    40    40    18   ar
    41    15    16   ar
    42    22    23    1
    43    22     3    2
    44    23    26    1
    45    18     3    1
    46    18    17   ar
    47    16    17   ar
    48    16    19    1
    49    17    20    1
    50    20    21    1
