@<TRIPOS>MOLECULE
3uha_NAD_A_1.pdb
 44 48 0 0 0
SMALL
GASTEIGER

@<TRIPOS>ATOM
      1  PA        10.9150   12.9970   24.5700 P.3   374  NAD374      0.2189
      2  O1A       11.3270   13.5230   23.2110 O.2   374  NAD374     -0.5170
      3  O2A       11.9500   13.3670   25.5750 O.3   374  NAD374     -0.4371
      4  O5B        9.5550   13.7330   25.0220 O.3   374  NAD374     -0.3112
      5  C5B        9.3340   13.7080   26.4450 C.3   374  NAD374      0.1813
      6  C4B        8.4140   14.9120   26.6680 C.3   374  NAD374      0.1821
      7  O4B        7.5440   14.7810   27.8100 O.3   374  NAD374     -0.3135
      8  C3B        9.3200   16.1570   26.8610 C.3   374  NAD374      0.2184
      9  O3B        8.8080   17.2490   26.0920 O.3   374  NAD374     -0.2174
     10  C2B        9.2750   16.3510   28.3920 C.3   374  NAD374      0.2570
     11  O2B        9.5330   17.7270   28.7680 O.3   374  NAD374     -0.2130
     12  C1B        7.8160   15.9350   28.6280 C.3   374  NAD374      0.3186
     13  N9A        7.5520   15.5570   30.0010 N.pl3 374  NAD374     -0.1439
     14  C8A        8.2830   14.7670   30.8390 C.3   374  NAD374      0.3377
     15  N7A        7.6630   14.6720   31.9910 N.2   374  NAD374     -0.2095
     16  C5A        6.5100   15.3990   31.9560 C.2   374  NAD374      0.2526
     17  C6A        5.4420   15.6660   32.8450 C.2   374  NAD374      0.4393
     18  N6A        5.4190   15.1760   34.1260 N.pl3 374  NAD374      0.2180
     19  N1A        4.4340   16.4440   32.4460 N.2   374  NAD374      0.0021
     20  C2A        4.4320   16.9360   31.2160 C.3   374  NAD374      0.5254
     21  N3A        5.3990   16.7300   30.3300 N.2   374  NAD374     -0.0055
     22  C4A        6.4290   15.9560   30.6630 C.2   374  NAD374      0.3518
     23  O3        10.6240   11.4310   24.7240 O.3   374  NAD374     -0.2703
     24  PN         9.9310   10.7050   23.4950 P.3   374  NAD374      0.2189
     25  O1N       11.0300   10.3040   22.4880 O.2   374  NAD374     -0.5170
     26  O2N        8.8750   11.5690   22.7880 O.3   374  NAD374     -0.4371
     27  O5D        9.3300    9.3130   23.9270 O.3   374  NAD374     -0.3112
     28  C5D        8.5200    9.5030   25.0760 C.3   374  NAD374      0.1813
     29  C4D        8.1340    8.1070   25.5960 C.3   374  NAD374      0.1799
     30  O4D        7.7210    7.2840   24.4920 O.3   374  NAD374     -0.3327
     31  C3D        9.3280    7.3650   26.2430 C.3   374  NAD374      0.2158
     32  O3D        8.8830    6.5600   27.3330 O.3   374  NAD374     -0.2175
     33  C2D        9.8030    6.4430   25.1010 C.3   374  NAD374      0.2309
     34  O2D       10.5420    5.3200   25.5670 O.3   374  NAD374     -0.2158
     35  C1D        8.4090    6.0040   24.6230 C.3   374  NAD374      0.2263
     36  N1N        8.4180    5.2620   23.3680 N.pl3 374  NAD374     -0.2787
     37  C2N        7.4070    4.4600   23.1740 C.3   374  NAD374      0.1244
     38  C3N        7.2890    3.7150   21.9940 C.2   374  NAD374      0.0544
     39  C7N        6.1190    2.8610   21.7800 C.2   374  NAD374      0.2818
     40  O7N        6.1370    2.1680   20.7890 O.2   374  NAD374     -0.2670
     41  N7N        5.0520    2.8970   22.6210 N.am  374  NAD374     -0.0839
     42  C4N        8.3010    3.7930   21.0080 C.2   374  NAD374      0.0033
     43  C5N        9.3520    4.6720   21.2850 C.2   374  NAD374      0.0157
     44  C6N        9.3760    5.4010   22.4840 C.2   374  NAD374      0.0633
@<TRIPOS>BOND
     1    40    39    2
     2    42    43    1
     3    42    38    2
     4    43    44    2
     5    39    38    1
     6    39    41   am
     7    38    37    1
     8    44    36    1
     9    25    24    2
    10    26    24    1
    11    37    36    1
    12     2     1    2
    13    36    35    1
    14    24    27    1
    15    24    23    1
    16    27    28    1
    17    30    35    1
    18    30    29    1
    19     1    23    1
    20     1     4    1
    21     1     3    1
    22    35    33    1
    23     4     5    1
    24    28    29    1
    25    33    34    1
    26    33    31    1
    27    29    31    1
    28     9     8    1
    29    31    32    1
    30     5     6    1
    31     6     8    1
    32     6     7    1
    33     8    10    1
    34     7    12    1
    35    10    12    1
    36    10    11    1
    37    12    13    1
    38    13    22    1
    39    13    14    1
    40    21    22    2
    41    21    20    1
    42    22    16    1
    43    14    15    1
    44    20    19    1
    45    16    15    2
    46    16    17    1
    47    19    17    2
    48    17    18    1
