@<TRIPOS>MOLECULE
3uhb_HEM_A_1.pdb
 43 50 0 0 0
SMALL
GASTEIGER

@<TRIPOS>ATOM
      1  CHA       41.8350   -0.5610   17.4520 C.2   147  HEM147      0.0000
      2  CHB       39.4990   -1.9140   21.5170 C.2   147  HEM147      0.0000
      3  CHC       43.7740   -3.3880   23.3960 C.2   147  HEM147      0.0000
      4  CHD       45.9620   -2.5490   19.1130 C.2   147  HEM147      0.0000
      5  C1A       40.8380   -0.7800   18.4090 C.2   147  HEM147      0.0000
      6  C2A       39.4490   -0.4000   18.2490 C.2   147  HEM147      0.0000
      7  C3A       38.8070   -0.7580   19.3910 C.2   147  HEM147      0.0000
      8  C4A       39.7720   -1.3780   20.2560 C.2   147  HEM147      0.0000
      9  CMA       37.3300   -0.5580   19.7120 C.3   147  HEM147      0.0000
     10  CAA       38.8420    0.1920   16.9810 C.3   147  HEM147      0.0000
     11  CBA       38.7060   -0.8670   15.8950 C.3   147  HEM147      0.0000
     12  CGA       38.5080   -0.2670   14.5180 C.2   147  HEM147      0.0000
     13  O1A       37.5620    0.5280   14.3430 O.co2 147  HEM147      0.0000
     14  O2A       39.3020   -0.5950   13.6100 O.co2 147  HEM147      0.0000
     15  C1B       40.4670   -2.4930   22.3670 C.ar  147  HEM147      0.0000
     16  C2B       40.1920   -2.9960   23.6970 C.ar  147  HEM147      0.0000
     17  C3B       41.3860   -3.3570   24.2680 C.ar  147  HEM147      0.0000
     18  C4B       42.4050   -3.0960   23.2540 C.ar  147  HEM147      0.0000
     19  CMB       38.7950   -3.1700   24.2890 C.3   147  HEM147      0.0000
     20  CAB       41.6320   -3.9100   25.5330 C.3   147  HEM147      0.0000
     21  CBB       40.9180   -3.6110   26.7490 C.3   147  HEM147      0.0000
     22  C1C       44.7370   -3.2680   22.3910 C.2   147  HEM147      0.0000
     23  C2C       46.1440   -3.5970   22.5590 C.2   147  HEM147      0.0000
     24  C3C       46.7700   -3.3820   21.3580 C.2   147  HEM147      0.0000
     25  C4C       45.7400   -2.9330   20.4410 C.2   147  HEM147      0.0000
     26  CMC       46.7610   -4.0660   23.8780 C.3   147  HEM147      0.0000
     27  CAC       48.1390   -3.4550   21.0310 C.3   147  HEM147      0.0000
     28  CBC       49.1850   -4.0820   21.8030 C.3   147  HEM147      0.0000
     29  C1D       45.0190   -1.9120   18.2830 C.ar  147  HEM147      0.0000
     30  C2D       45.3260   -1.3370   16.9870 C.ar  147  HEM147      0.0000
     31  C3D       44.1890   -0.7380   16.5550 C.ar  147  HEM147      0.0000
     32  C4D       43.1710   -0.9600   17.5640 C.ar  147  HEM147      0.0000
     33  CMD       46.6770   -1.3750   16.2700 C.3   147  HEM147      0.0000
     34  CAD       44.0200    0.0770   15.2850 C.3   147  HEM147      0.0000
     35  CBD       44.0710    1.5670   15.5430 C.3   147  HEM147      0.0000
     36  CGD       43.8360    2.3740   14.2840 C.2   147  HEM147      0.0000
     37  O1D       44.6560    2.2660   13.3460 O.co2 147  HEM147      0.0000
     38  O2D       42.8300    3.1090   14.2330 O.co2 147  HEM147      0.0000
     39  NA        41.0270   -1.3980   19.6400 N.2   147  HEM147      0.0000
     40  NB        41.8290   -2.5870   22.0840 N.ar  147  HEM147      0.0000
     41  NC        44.4990   -2.8270   21.0970 N.2   147  HEM147      0.0000
     42  ND        43.6990   -1.6490   18.6400 N.ar  147  HEM147      0.0000
     43 FE         42.7650   -2.1270   20.3600 Fe    147  HEM147      0.0000
@<TRIPOS>BOND
     1    37    36   ar
     2    14    12   ar
     3    38    36   ar
     4    36    35    1
     5    13    12   ar
     6    12    11    1
     7    34    35    1
     8    34    31    1
     9    11    10    1
    10    33    30    1
    11    31    30   ar
    12    31    32   ar
    13    10     6    1
    14    30    29   ar
    15     1    32    2
    16     1     5    1
    17    32    42   ar
    18     6     5    1
    19     6     7    2
    20    29    42   ar
    21    29     4    2
    22     5    39    2
    23    42    43    1
    24     4    25    1
    25     7     9    1
    26     7     8    1
    27    39     8    1
    28    39    43    1
    29     8     2    2
    30    43    41    1
    31    43    40    1
    32    25    41    2
    33    25    24    1
    34    27    24    1
    35    27    28    1
    36    41    22    1
    37    24    23    2
    38     2    15    1
    39    40    15   ar
    40    40    18   ar
    41    15    16   ar
    42    22    23    1
    43    22     3    2
    44    23    26    1
    45    18     3    1
    46    18    17   ar
    47    16    17   ar
    48    16    19    1
    49    17    20    1
    50    20    21    1
