@<TRIPOS>MOLECULE
3uhc_HEM_A_1.pdb
 43 50 0 0 0
SMALL
GASTEIGER

@<TRIPOS>ATOM
      1  CHA       41.9430   -0.6070   17.3940 C.2   147  HEM147      0.0000
      2  CHB       39.5480   -2.0260   21.4420 C.2   147  HEM147      0.0000
      3  CHC       43.8150   -3.4110   23.3720 C.2   147  HEM147      0.0000
      4  CHD       46.0190   -2.6250   19.1110 C.2   147  HEM147      0.0000
      5  C1A       40.9430   -0.8530   18.3440 C.2   147  HEM147      0.0000
      6  C2A       39.5520   -0.5100   18.1610 C.2   147  HEM147      0.0000
      7  C3A       38.8790   -0.9040   19.2750 C.2   147  HEM147      0.0000
      8  C4A       39.8450   -1.5020   20.1660 C.2   147  HEM147      0.0000
      9  CMA       37.3820   -0.7930   19.5250 C.3   147  HEM147      0.0000
     10  CAA       39.0220    0.0960   16.8740 C.3   147  HEM147      0.0000
     11  CBA       38.7560   -0.9700   15.8270 C.3   147  HEM147      0.0000
     12  CGA       38.6720   -0.3930   14.4310 C.2   147  HEM147      0.0000
     13  O1A       37.8830    0.5520   14.2270 O.co2 147  HEM147      0.0000
     14  O2A       39.3920   -0.8870   13.5380 O.co2 147  HEM147      0.0000
     15  C1B       40.5100   -2.5970   22.3020 C.ar  147  HEM147      0.0000
     16  C2B       40.2340   -3.0890   23.6380 C.ar  147  HEM147      0.0000
     17  C3B       41.4300   -3.4090   24.2120 C.ar  147  HEM147      0.0000
     18  C4B       42.4470   -3.1400   23.1980 C.ar  147  HEM147      0.0000
     19  CMB       38.8470   -3.3180   24.2310 C.3   147  HEM147      0.0000
     20  CAB       41.6620   -4.0000   25.4490 C.3   147  HEM147      0.0000
     21  CBB       41.1890   -3.5280   26.7120 C.3   147  HEM147      0.0000
     22  C1C       44.7810   -3.3370   22.3680 C.2   147  HEM147      0.0000
     23  C2C       46.1900   -3.6490   22.5520 C.2   147  HEM147      0.0000
     24  C3C       46.8220   -3.4510   21.3520 C.2   147  HEM147      0.0000
     25  C4C       45.7830   -3.0200   20.4320 C.2   147  HEM147      0.0000
     26  CMC       46.8420   -4.0890   23.8690 C.3   147  HEM147      0.0000
     27  CAC       48.2000   -3.5520   21.0490 C.3   147  HEM147      0.0000
     28  CBC       49.2270   -4.3190   21.7480 C.3   147  HEM147      0.0000
     29  C1D       45.0970   -1.9990   18.2720 C.ar  147  HEM147      0.0000
     30  C2D       45.4430   -1.4010   16.9930 C.ar  147  HEM147      0.0000
     31  C3D       44.3180   -0.7990   16.5360 C.ar  147  HEM147      0.0000
     32  C4D       43.2730   -1.0320   17.5230 C.ar  147  HEM147      0.0000
     33  CMD       46.7950   -1.4090   16.2790 C.3   147  HEM147      0.0000
     34  CAD       44.1850    0.0040   15.2440 C.3   147  HEM147      0.0000
     35  CBD       44.1790    1.5030   15.5020 C.3   147  HEM147      0.0000
     36  CGD       43.9100    2.3100   14.2490 C.2   147  HEM147      0.0000
     37  O1D       44.7360    2.2590   13.3140 O.co2 147  HEM147      0.0000
     38  O2D       42.8660    2.9920   14.1980 O.co2 147  HEM147      0.0000
     39  NA        41.1020   -1.4760   19.5640 N.2   147  HEM147      0.0000
     40  NB        41.8790   -2.6790   22.0250 N.ar  147  HEM147      0.0000
     41  NC        44.5300   -2.9160   21.0650 N.2   147  HEM147      0.0000
     42  ND        43.7600   -1.7480   18.5960 N.ar  147  HEM147      0.0000
     43 FE         42.8050   -2.2380   20.3060 Fe    147  HEM147      0.0000
@<TRIPOS>BOND
     1    37    36   ar
     2    14    12   ar
     3    38    36   ar
     4    13    12   ar
     5    36    35    1
     6    12    11    1
     7    34    35    1
     8    34    31    1
     9    11    10    1
    10    33    30    1
    11    31    30   ar
    12    31    32   ar
    13    10     6    1
    14    30    29   ar
    15     1    32    2
    16     1     5    1
    17    32    42   ar
    18     6     5    1
    19     6     7    2
    20    29    42   ar
    21    29     4    2
    22     5    39    2
    23    42    43    1
    24     4    25    1
    25     7     9    1
    26     7     8    1
    27    39     8    1
    28    39    43    1
    29     8     2    2
    30    43    41    1
    31    43    40    1
    32    25    41    2
    33    25    24    1
    34    27    24    1
    35    27    28    1
    36    41    22    1
    37    24    23    2
    38     2    15    1
    39    40    15   ar
    40    40    18   ar
    41    15    16   ar
    42    22    23    1
    43    22     3    2
    44    23    26    1
    45    18     3    1
    46    18    17   ar
    47    16    17   ar
    48    16    19    1
    49    17    20    1
    50    20    21    1
