@<TRIPOS>MOLECULE
3uhd_HEM_A_1.pdb
 43 50 0 0 0
SMALL
GASTEIGER

@<TRIPOS>ATOM
      1  CHA       42.0420   -0.5000   17.5960 C.2   147  HEM147      0.0000
      2  CHB       39.7210   -2.0160   21.6180 C.2   147  HEM147      0.0000
      3  CHC       44.0110   -3.4190   23.4800 C.2   147  HEM147      0.0000
      4  CHD       46.1650   -2.5450   19.1840 C.2   147  HEM147      0.0000
      5  C1A       41.0440   -0.7720   18.5490 C.2   147  HEM147      0.0000
      6  C2A       39.6540   -0.4330   18.3740 C.2   147  HEM147      0.0000
      7  C3A       38.9930   -0.8230   19.4960 C.2   147  HEM147      0.0000
      8  C4A       39.9800   -1.4450   20.3630 C.2   147  HEM147      0.0000
      9  CMA       37.5010   -0.6690   19.7620 C.3   147  HEM147      0.0000
     10  CAA       39.0880    0.1340   17.0780 C.3   147  HEM147      0.0000
     11  CBA       38.7200   -0.9570   16.0850 C.3   147  HEM147      0.0000
     12  CGA       38.7030   -0.4610   14.6540 C.2   147  HEM147      0.0000
     13  O1A       38.0820    0.5910   14.3940 O.co2 147  HEM147      0.0000
     14  O2A       39.3090   -1.1260   13.7880 O.co2 147  HEM147      0.0000
     15  C1B       40.6850   -2.6000   22.4550 C.ar  147  HEM147      0.0000
     16  C2B       40.4200   -3.0930   23.7920 C.ar  147  HEM147      0.0000
     17  C3B       41.6230   -3.4370   24.3450 C.ar  147  HEM147      0.0000
     18  C4B       42.6360   -3.1640   23.3320 C.ar  147  HEM147      0.0000
     19  CMB       39.0440   -3.2780   24.4260 C.3   147  HEM147      0.0000
     20  CAB       41.8430   -4.0430   25.5840 C.3   147  HEM147      0.0000
     21  CBB       41.3030   -3.5940   26.8440 C.3   147  HEM147      0.0000
     22  C1C       44.9780   -3.2920   22.4740 C.2   147  HEM147      0.0000
     23  C2C       46.3960   -3.5600   22.6490 C.2   147  HEM147      0.0000
     24  C3C       47.0130   -3.3450   21.4400 C.2   147  HEM147      0.0000
     25  C4C       45.9520   -2.9460   20.5170 C.2   147  HEM147      0.0000
     26  CMC       47.0540   -3.9710   23.9650 C.3   147  HEM147      0.0000
     27  CAC       48.3730   -3.4080   21.1040 C.3   147  HEM147      0.0000
     28  CBC       49.4470   -4.0300   21.8450 C.3   147  HEM147      0.0000
     29  C1D       45.2130   -1.9220   18.3640 C.ar  147  HEM147      0.0000
     30  C2D       45.5070   -1.3040   17.0870 C.ar  147  HEM147      0.0000
     31  C3D       44.3890   -0.6660   16.6790 C.ar  147  HEM147      0.0000
     32  C4D       43.3710   -0.9140   17.6850 C.ar  147  HEM147      0.0000
     33  CMD       46.8240   -1.3590   16.3270 C.3   147  HEM147      0.0000
     34  CAD       44.2590    0.1580   15.4060 C.3   147  HEM147      0.0000
     35  CBD       44.3140    1.6570   15.6500 C.3   147  HEM147      0.0000
     36  CGD       44.1270    2.4570   14.3780 C.2   147  HEM147      0.0000
     37  O1D       44.9800    2.3460   13.4710 O.co2 147  HEM147      0.0000
     38  O2D       43.1240    3.1940   14.2840 O.co2 147  HEM147      0.0000
     39  NA        41.2320   -1.4350   19.7520 N.2   147  HEM147      0.0000
     40  NB        42.0460   -2.6860   22.1670 N.ar  147  HEM147      0.0000
     41  NC        44.7220   -2.8880   21.1710 N.2   147  HEM147      0.0000
     42  ND        43.8940   -1.6730   18.7230 N.ar  147  HEM147      0.0000
     43 FE         42.9770   -2.1840   20.4430 Fe    147  HEM147      0.0000
@<TRIPOS>BOND
     1    37    36   ar
     2    14    12   ar
     3    38    36   ar
     4    36    35    1
     5    13    12   ar
     6    12    11    1
     7    34    35    1
     8    34    31    1
     9    11    10    1
    10    33    30    1
    11    31    30   ar
    12    31    32   ar
    13    10     6    1
    14    30    29   ar
    15     1    32    2
    16     1     5    1
    17    32    42   ar
    18    29    42   ar
    19    29     4    2
    20     6     5    1
    21     6     7    2
    22     5    39    2
    23    42    43    1
    24     4    25    1
    25     7     9    1
    26     7     8    1
    27    39     8    1
    28    39    43    1
    29     8     2    2
    30    43    41    1
    31    43    40    1
    32    25    41    2
    33    25    24    1
    34    27    24    1
    35    27    28    1
    36    41    22    1
    37    24    23    2
    38     2    15    1
    39    40    15   ar
    40    40    18   ar
    41    15    16   ar
    42    22    23    1
    43    22     3    2
    44    23    26    1
    45    18     3    1
    46    18    17   ar
    47    16    17   ar
    48    16    19    1
    49    17    20    1
    50    20    21    1
