@<TRIPOS>MOLECULE
3uhe_HEM_A_1.pdb
 43 50 0 0 0
SMALL
GASTEIGER

@<TRIPOS>ATOM
      1  CHA       41.7780   -0.6240   17.3870 C.2   147  HEM147      0.0000
      2  CHB       39.4610   -1.9150   21.4820 C.2   147  HEM147      0.0000
      3  CHC       43.7100   -3.3980   23.3610 C.2   147  HEM147      0.0000
      4  CHD       45.8710   -2.5770   19.0860 C.2   147  HEM147      0.0000
      5  C1A       40.7770   -0.8220   18.3480 C.2   147  HEM147      0.0000
      6  C2A       39.3950   -0.4690   18.1800 C.2   147  HEM147      0.0000
      7  C3A       38.7370   -0.8210   19.3150 C.2   147  HEM147      0.0000
      8  C4A       39.7170   -1.4080   20.2010 C.2   147  HEM147      0.0000
      9  CMA       37.2570   -0.6110   19.5910 C.3   147  HEM147      0.0000
     10  CAA       38.8130    0.1320   16.9170 C.3   147  HEM147      0.0000
     11  CBA       38.4880   -0.9340   15.8930 C.3   147  HEM147      0.0000
     12  CGA       38.5050   -0.3870   14.4860 C.2   147  HEM147      0.0000
     13  O1A       37.8140    0.6230   14.2300 O.co2 147  HEM147      0.0000
     14  O2A       39.2140   -0.9640   13.6340 O.co2 147  HEM147      0.0000
     15  C1B       40.4250   -2.4470   22.3570 C.ar  147  HEM147      0.0000
     16  C2B       40.1490   -2.9220   23.7050 C.ar  147  HEM147      0.0000
     17  C3B       41.3450   -3.2970   24.2560 C.ar  147  HEM147      0.0000
     18  C4B       42.3580   -3.0670   23.2340 C.ar  147  HEM147      0.0000
     19  CMB       38.7620   -3.1220   24.3040 C.3   147  HEM147      0.0000
     20  CAB       41.5590   -3.9130   25.4840 C.3   147  HEM147      0.0000
     21  CBB       40.9940   -3.4760   26.7390 C.3   147  HEM147      0.0000
     22  C1C       44.6710   -3.2790   22.3620 C.2   147  HEM147      0.0000
     23  C2C       46.0680   -3.6400   22.5320 C.2   147  HEM147      0.0000
     24  C3C       46.6960   -3.3950   21.3280 C.2   147  HEM147      0.0000
     25  C4C       45.6570   -2.9190   20.4260 C.2   147  HEM147      0.0000
     26  CMC       46.7170   -4.0960   23.8480 C.3   147  HEM147      0.0000
     27  CAC       48.0630   -3.4310   21.0250 C.3   147  HEM147      0.0000
     28  CBC       49.1130   -4.1830   21.6950 C.3   147  HEM147      0.0000
     29  C1D       44.9480   -1.9540   18.2480 C.ar  147  HEM147      0.0000
     30  C2D       45.2960   -1.3470   16.9680 C.ar  147  HEM147      0.0000
     31  C3D       44.1660   -0.7340   16.5380 C.ar  147  HEM147      0.0000
     32  C4D       43.1150   -0.9960   17.5120 C.ar  147  HEM147      0.0000
     33  CMD       46.6330   -1.4010   16.2260 C.3   147  HEM147      0.0000
     34  CAD       44.0470    0.1120   15.2830 C.3   147  HEM147      0.0000
     35  CBD       44.0550    1.6000   15.5620 C.3   147  HEM147      0.0000
     36  CGD       43.8130    2.4210   14.3110 C.2   147  HEM147      0.0000
     37  O1D       44.6300    2.3290   13.3700 O.co2 147  HEM147      0.0000
     38  O2D       42.8030    3.1560   14.2720 O.co2 147  HEM147      0.0000
     39  NA        40.9660   -1.4060   19.5960 N.2   147  HEM147      0.0000
     40  NB        41.7780   -2.5670   22.0710 N.ar  147  HEM147      0.0000
     41  NC        44.4360   -2.8180   21.0790 N.2   147  HEM147      0.0000
     42  ND        43.6290   -1.6930   18.5900 N.ar  147  HEM147      0.0000
     43 FE         42.6780   -2.1770   20.3090 Fe    147  HEM147      0.0000
@<TRIPOS>BOND
     1    37    36   ar
     2    14    12   ar
     3    13    12   ar
     4    38    36   ar
     5    36    35    1
     6    12    11    1
     7    34    35    1
     8    34    31    1
     9    11    10    1
    10    33    30    1
    11    31    30   ar
    12    31    32   ar
    13    10     6    1
    14    30    29   ar
    15     1    32    2
    16     1     5    1
    17    32    42   ar
    18     6     5    1
    19     6     7    2
    20    29    42   ar
    21    29     4    2
    22     5    39    2
    23    42    43    1
    24     4    25    1
    25     7     9    1
    26     7     8    1
    27    39     8    1
    28    39    43    1
    29     8     2    2
    30    43    41    1
    31    43    40    1
    32    25    41    2
    33    25    24    1
    34    27    24    1
    35    27    28    1
    36    41    22    1
    37    24    23    2
    38     2    15    1
    39    40    15   ar
    40    40    18   ar
    41    15    16   ar
    42    22    23    1
    43    22     3    2
    44    23    26    1
    45    18     3    1
    46    18    17   ar
    47    16    17   ar
    48    16    19    1
    49    17    20    1
    50    20    21    1
