@<TRIPOS>MOLECULE
3uhf_DGL_A_1.pdb
 10 9 0 0 0
SMALL
GASTEIGER

@<TRIPOS>ATOM
      1  N          9.3090    8.9790   30.4270 N.3   260  DGL260     -0.1208
      2  CA         8.5770    7.7320   30.6700 C.3   260  DGL260      0.1949
      3  C          8.4280    6.9500   29.3750 C.2   260  DGL260      0.3819
      4  O          9.1760    7.1640   28.4110 O.co2 260  DGL260     -0.2441
      5  CB         9.3020    6.8640   31.6980 C.3   260  DGL260      0.0424
      6  CG         9.2750    7.4490   33.1090 C.3   260  DGL260      0.1161
      7  CD         7.8510    7.6180   33.5950 C.2   260  DGL260      0.3649
      8  OE1        7.3590    8.7690   33.6160 O.co2 260  DGL260     -0.2457
      9  OE2        7.2130    6.5930   33.9170 O.co2 260  DGL260     -0.2457
     10  OXT        7.5820    6.0690   29.2900 O.co2 260  DGL260     -0.2441
@<TRIPOS>BOND
     1     4     3   ar
     2    10     3   ar
     3     3     2    1
     4     1     2    1
     5     2     5    1
     6     5     6    1
     7     6     7    1
     8     7     8   ar
     9     7     9   ar
