@<TRIPOS>MOLECULE
3uhg_HEM_A_1.pdb
 43 50 0 0 0
SMALL
GASTEIGER

@<TRIPOS>ATOM
      1  CHA       41.9040   -0.5670   17.4570 C.2   147  HEM147      0.0000
      2  CHB       39.5610   -1.9930   21.4730 C.2   147  HEM147      0.0000
      3  CHC       43.8210   -3.4740   23.3570 C.2   147  HEM147      0.0000
      4  CHD       46.0170   -2.5990   19.0870 C.2   147  HEM147      0.0000
      5  C1A       40.8930   -0.8030   18.4020 C.2   147  HEM147      0.0000
      6  C2A       39.4960   -0.4630   18.2260 C.2   147  HEM147      0.0000
      7  C3A       38.8300   -0.8270   19.3500 C.2   147  HEM147      0.0000
      8  C4A       39.8300   -1.4180   20.2310 C.2   147  HEM147      0.0000
      9  CMA       37.3330   -0.6890   19.6130 C.3   147  HEM147      0.0000
     10  CAA       38.9210    0.1340   16.9450 C.3   147  HEM147      0.0000
     11  CBA       38.6730   -0.9350   15.8900 C.3   147  HEM147      0.0000
     12  CGA       38.5710   -0.3610   14.4910 C.2   147  HEM147      0.0000
     13  O1A       37.8070    0.6080   14.3000 O.co2 147  HEM147      0.0000
     14  O2A       39.2530   -0.8850   13.5840 O.co2 147  HEM147      0.0000
     15  C1B       40.5150   -2.6020   22.3120 C.ar  147  HEM147      0.0000
     16  C2B       40.2360   -3.0720   23.6460 C.ar  147  HEM147      0.0000
     17  C3B       41.4340   -3.4540   24.2010 C.ar  147  HEM147      0.0000
     18  C4B       42.4500   -3.2030   23.1890 C.ar  147  HEM147      0.0000
     19  CMB       38.8530   -3.1680   24.2790 C.3   147  HEM147      0.0000
     20  CAB       41.6710   -4.0480   25.4460 C.3   147  HEM147      0.0000
     21  CBB       40.9510   -3.8370   26.6790 C.3   147  HEM147      0.0000
     22  C1C       44.8010   -3.3390   22.3620 C.2   147  HEM147      0.0000
     23  C2C       46.2070   -3.6450   22.5430 C.2   147  HEM147      0.0000
     24  C3C       46.8390   -3.4170   21.3400 C.2   147  HEM147      0.0000
     25  C4C       45.7900   -2.9820   20.4170 C.2   147  HEM147      0.0000
     26  CMC       46.8420   -4.1060   23.8550 C.3   147  HEM147      0.0000
     27  CAC       48.2020   -3.4470   21.0190 C.3   147  HEM147      0.0000
     28  CBC       49.2740   -4.1330   21.6990 C.3   147  HEM147      0.0000
     29  C1D       45.0710   -1.9580   18.2650 C.ar  147  HEM147      0.0000
     30  C2D       45.3800   -1.3560   16.9790 C.ar  147  HEM147      0.0000
     31  C3D       44.2520   -0.7490   16.5460 C.ar  147  HEM147      0.0000
     32  C4D       43.2310   -0.9750   17.5580 C.ar  147  HEM147      0.0000
     33  CMD       46.7320   -1.3490   16.2770 C.3   147  HEM147      0.0000
     34  CAD       44.1220    0.0870   15.2770 C.3   147  HEM147      0.0000
     35  CBD       44.1560    1.5750   15.5670 C.3   147  HEM147      0.0000
     36  CGD       43.9100    2.4180   14.3290 C.2   147  HEM147      0.0000
     37  O1D       44.7450    2.3710   13.4030 O.co2 147  HEM147      0.0000
     38  O2D       42.8810    3.1200   14.2880 O.co2 147  HEM147      0.0000
     39  NA        41.0870   -1.4140   19.6290 N.2   147  HEM147      0.0000
     40  NB        41.8760   -2.7030   22.0260 N.ar  147  HEM147      0.0000
     41  NC        44.5590   -2.8960   21.0620 N.2   147  HEM147      0.0000
     42  ND        43.7570   -1.6960   18.6280 N.ar  147  HEM147      0.0000
     43 FE         42.8120   -2.2120   20.3220 Fe    147  HEM147      0.0000
@<TRIPOS>BOND
     1    37    36   ar
     2    14    12   ar
     3    38    36   ar
     4    13    12   ar
     5    36    35    1
     6    12    11    1
     7    34    35    1
     8    34    31    1
     9    11    10    1
    10    33    30    1
    11    31    30   ar
    12    31    32   ar
    13    10     6    1
    14    30    29   ar
    15     1    32    2
    16     1     5    1
    17    32    42   ar
    18     6     5    1
    19     6     7    2
    20    29    42   ar
    21    29     4    2
    22     5    39    2
    23    42    43    1
    24     4    25    1
    25     7     9    1
    26     7     8    1
    27    39     8    1
    28    39    43    1
    29     8     2    2
    30    43    41    1
    31    43    40    1
    32    25    41    2
    33    25    24    1
    34    27    24    1
    35    27    28    1
    36    41    22    1
    37    24    23    2
    38     2    15    1
    39    40    15   ar
    40    40    18   ar
    41    15    16   ar
    42    22    23    1
    43    22     3    2
    44    23    26    1
    45    18     3    1
    46    18    17   ar
    47    16    17   ar
    48    16    19    1
    49    17    20    1
    50    20    21    1
