@<TRIPOS>MOLECULE
3uhh_HEM_A_1.pdb
 43 50 0 0 0
SMALL
GASTEIGER

@<TRIPOS>ATOM
      1  CHA       41.8770   -0.5270   17.4460 C.2   147  HEM147      0.0000
      2  CHB       39.5140   -1.9310   21.4620 C.2   147  HEM147      0.0000
      3  CHC       43.7790   -3.4290   23.3460 C.2   147  HEM147      0.0000
      4  CHD       45.9930   -2.4980   19.0980 C.2   147  HEM147      0.0000
      5  C1A       40.8780   -0.7680   18.3910 C.2   147  HEM147      0.0000
      6  C2A       39.4910   -0.3960   18.2100 C.2   147  HEM147      0.0000
      7  C3A       38.8400   -0.7410   19.3450 C.2   147  HEM147      0.0000
      8  C4A       39.8000   -1.3720   20.2180 C.2   147  HEM147      0.0000
      9  CMA       37.3720   -0.4840   19.6660 C.3   147  HEM147      0.0000
     10  CAA       38.9090    0.1810   16.9250 C.3   147  HEM147      0.0000
     11  CBA       38.7110   -0.9060   15.8780 C.3   147  HEM147      0.0000
     12  CGA       38.5280   -0.3450   14.4840 C.2   147  HEM147      0.0000
     13  O1A       37.7010    0.5760   14.3190 O.co2 147  HEM147      0.0000
     14  O2A       39.2090   -0.8300   13.5550 O.co2 147  HEM147      0.0000
     15  C1B       40.4690   -2.5380   22.3020 C.ar  147  HEM147      0.0000
     16  C2B       40.1950   -3.0330   23.6320 C.ar  147  HEM147      0.0000
     17  C3B       41.4020   -3.3890   24.1920 C.ar  147  HEM147      0.0000
     18  C4B       42.4070   -3.1490   23.1770 C.ar  147  HEM147      0.0000
     19  CMB       38.8010   -3.1850   24.2410 C.3   147  HEM147      0.0000
     20  CAB       41.6780   -3.9070   25.4640 C.3   147  HEM147      0.0000
     21  CBB       40.9650   -3.6360   26.6870 C.3   147  HEM147      0.0000
     22  C1C       44.7560   -3.2760   22.3590 C.2   147  HEM147      0.0000
     23  C2C       46.1570   -3.6030   22.5290 C.2   147  HEM147      0.0000
     24  C3C       46.7830   -3.3760   21.3300 C.2   147  HEM147      0.0000
     25  C4C       45.7610   -2.9110   20.4210 C.2   147  HEM147      0.0000
     26  CMC       46.7780   -4.0580   23.8520 C.3   147  HEM147      0.0000
     27  CAC       48.1380   -3.5040   20.9830 C.3   147  HEM147      0.0000
     28  CBC       49.1630   -4.2100   21.7150 C.3   147  HEM147      0.0000
     29  C1D       45.0530   -1.8520   18.2810 C.ar  147  HEM147      0.0000
     30  C2D       45.3540   -1.2660   16.9950 C.ar  147  HEM147      0.0000
     31  C3D       44.2160   -0.6650   16.5660 C.ar  147  HEM147      0.0000
     32  C4D       43.2050   -0.9110   17.5680 C.ar  147  HEM147      0.0000
     33  CMD       46.6880   -1.3190   16.2540 C.3   147  HEM147      0.0000
     34  CAD       44.0470    0.1540   15.2940 C.3   147  HEM147      0.0000
     35  CBD       44.0760    1.6450   15.5580 C.3   147  HEM147      0.0000
     36  CGD       43.8150    2.4530   14.3060 C.2   147  HEM147      0.0000
     37  O1D       44.6570    2.4130   13.3820 O.co2 147  HEM147      0.0000
     38  O2D       42.7610    3.1160   14.2440 O.co2 147  HEM147      0.0000
     39  NA        41.0610   -1.3870   19.6160 N.2   147  HEM147      0.0000
     40  NB        41.8290   -2.6360   22.0200 N.ar  147  HEM147      0.0000
     41  NC        44.5250   -2.8150   21.0750 N.2   147  HEM147      0.0000
     42  ND        43.7290   -1.6040   18.6340 N.ar  147  HEM147      0.0000
     43 FE         42.7920   -2.1110   20.3400 Fe    147  HEM147      0.0000
@<TRIPOS>BOND
     1    37    36   ar
     2    14    12   ar
     3    38    36   ar
     4    36    35    1
     5    13    12   ar
     6    12    11    1
     7    34    35    1
     8    34    31    1
     9    11    10    1
    10    33    30    1
    11    31    30   ar
    12    31    32   ar
    13    10     6    1
    14    30    29   ar
    15     1    32    2
    16     1     5    1
    17    32    42   ar
    18     6     5    1
    19     6     7    2
    20    29    42   ar
    21    29     4    2
    22     5    39    2
    23    42    43    1
    24     4    25    1
    25     7     9    1
    26     7     8    1
    27    39     8    1
    28    39    43    1
    29     8     2    2
    30    43    41    1
    31    43    40    1
    32    25    41    2
    33    25    24    1
    34    27    24    1
    35    27    28    1
    36    41    22    1
    37    24    23    2
    38     2    15    1
    39    40    15   ar
    40    40    18   ar
    41    15    16   ar
    42    22    23    1
    43    22     3    2
    44    23    26    1
    45    18     3    1
    46    18    17   ar
    47    16    17   ar
    48    16    19    1
    49    17    20    1
    50    20    21    1
