@<TRIPOS>MOLECULE
3uhi_HEM_A_1.pdb
 43 50 0 0 0
SMALL
GASTEIGER

@<TRIPOS>ATOM
      1  CHA       28.2140   -0.0550   14.3070 C.2   147  HEM147      0.0000
      2  CHB       32.9020   -1.2910   14.0360 C.2   147  HEM147      0.0000
      3  CHC       32.2160   -2.9710    9.5170 C.2   147  HEM147      0.0000
      4  CHD       27.4810   -1.7910    9.8250 C.2   147  HEM147      0.0000
      5  C1A       29.5720   -0.2220   14.6160 C.2   147  HEM147      0.0000
      6  C2A       30.2140    0.2640   15.8200 C.2   147  HEM147      0.0000
      7  C3A       31.5130   -0.1130   15.7710 C.2   147  HEM147      0.0000
      8  C4A       31.7030   -0.7480   14.4830 C.2   147  HEM147      0.0000
      9  CMA       32.5380    0.0290   16.8980 C.3   147  HEM147      0.0000
     10  CAA       29.5640    1.1760   16.8400 C.3   147  HEM147      0.0000
     11  CBA       29.2520    0.5160   18.1630 C.3   147  HEM147      0.0000
     12  CGA       28.2130    1.2880   18.9460 C.2   147  HEM147      0.0000
     13  O1A       28.4230    2.5020   19.1710 O.co2 147  HEM147      0.0000
     14  O2A       27.1860    0.6820   19.3310 O.co2 147  HEM147      0.0000
     15  C1B       33.0890   -1.9610   12.8250 C.ar  147  HEM147      0.0000
     16  C2B       34.3560   -2.5110   12.4050 C.ar  147  HEM147      0.0000
     17  C3B       34.1950   -2.9510   11.1400 C.ar  147  HEM147      0.0000
     18  C4B       32.7980   -2.6880   10.7680 C.ar  147  HEM147      0.0000
     19  CMB       35.6120   -2.6570   13.2590 C.3   147  HEM147      0.0000
     20  CAB       35.1800   -3.5460   10.3730 C.3   147  HEM147      0.0000
     21  CBB       36.3820   -2.8440   10.0090 C.3   147  HEM147      0.0000
     22  C1C       30.8590   -2.8010    9.1920 C.2   147  HEM147      0.0000
     23  C2C       30.2490   -3.1510    7.9150 C.2   147  HEM147      0.0000
     24  C3C       28.9260   -2.7950    7.9800 C.2   147  HEM147      0.0000
     25  C4C       28.7130   -2.2830    9.3320 C.2   147  HEM147      0.0000
     26  CMC       30.9620   -3.7870    6.7280 C.3   147  HEM147      0.0000
     27  CAC       27.9610   -2.7710    6.9560 C.3   147  HEM147      0.0000
     28  CBC       27.8270   -3.6750    5.8330 C.3   147  HEM147      0.0000
     29  C1D       27.2720   -1.1720   11.0700 C.ar  147  HEM147      0.0000
     30  C2D       26.0300   -0.5490   11.5030 C.ar  147  HEM147      0.0000
     31  C3D       26.2540   -0.0520   12.7440 C.ar  147  HEM147      0.0000
     32  C4D       27.6150   -0.3850   13.0960 C.ar  147  HEM147      0.0000
     33  CMD       24.7440   -0.3820   10.7050 C.3   147  HEM147      0.0000
     34  CAD       25.3200    0.8340   13.5640 C.3   147  HEM147      0.0000
     35  CBD       25.4950    2.3130   13.2390 C.3   147  HEM147      0.0000
     36  CGD       24.7330    3.2190   14.1900 C.2   147  HEM147      0.0000
     37  O1D       23.4940    3.0730   14.2950 O.co2 147  HEM147      0.0000
     38  O2D       25.3750    4.0800   14.8340 O.co2 147  HEM147      0.0000
     39  NA        30.5030   -0.8210   13.7840 N.2   147  HEM147      0.0000
     40  NB        32.1200   -2.1280   11.8420 N.ar  147  HEM147      0.0000
     41  NC        29.9010   -2.2840   10.0580 N.2   147  HEM147      0.0000
     42  ND        28.2470   -1.0350   12.0540 N.ar  147  HEM147      0.0000
     43 FE         30.1690   -1.6270   11.9600 Fe    147  HEM147      0.0000
@<TRIPOS>BOND
     1    28    27    1
     2    26    23    1
     3    27    24    1
     4    23    24    2
     5    23    22    1
     6    24    25    1
     7    22     3    2
     8    22    41    1
     9    25     4    1
    10    25    41    2
    11     3    18    1
    12     4    29    2
    13    21    20    1
    14    41    43    1
    15    20    17    1
    16    33    30    1
    17    18    17   ar
    18    18    40   ar
    19    29    30   ar
    20    29    42   ar
    21    17    16   ar
    22    30    31   ar
    23    40    43    1
    24    40    15   ar
    25    43    42    1
    26    43    39    1
    27    42    32   ar
    28    16    15   ar
    29    16    19    1
    30    31    32   ar
    31    31    34    1
    32    15     2    1
    33    32     1    2
    34    35    34    1
    35    35    36    1
    36    39     8    1
    37    39     5    2
    38     2     8    2
    39    36    37   ar
    40    36    38   ar
    41     1     5    1
    42     8     7    1
    43     5     6    1
    44     7     6    2
    45     7     9    1
    46     6    10    1
    47    10    11    1
    48    11    12    1
    49    12    13   ar
    50    12    14   ar
