@<TRIPOS>MOLECULE
3uhk_HEM_A_1.pdb
 43 50 0 0 0
SMALL
GASTEIGER

@<TRIPOS>ATOM
      1  CHA       28.4690    0.6880   15.0640 C.2   147  HEM147      0.0000
      2  CHB       33.0850   -0.7200   14.5550 C.2   147  HEM147      0.0000
      3  CHC       32.0800   -2.3290   10.0710 C.2   147  HEM147      0.0000
      4  CHD       27.4220   -1.0980   10.6700 C.2   147  HEM147      0.0000
      5  C1A       29.7670    0.3150   15.3820 C.2   147  HEM147      0.0000
      6  C2A       30.4520    0.7000   16.6060 C.2   147  HEM147      0.0000
      7  C3A       31.7490    0.3500   16.4410 C.2   147  HEM147      0.0000
      8  C4A       31.8790   -0.2560   15.1220 C.2   147  HEM147      0.0000
      9  CMA       32.8560    0.5770   17.4650 C.3   147  HEM147      0.0000
     10  CAA       29.8870    1.3920   17.8470 C.3   147  HEM147      0.0000
     11  CBA       29.4860    0.4150   18.9480 C.3   147  HEM147      0.0000
     12  CGA       28.2140   -0.3390   18.6170 C.2   147  HEM147      0.0000
     13  O1A       27.1390    0.2950   18.5930 O.co2 147  HEM147      0.0000
     14  O2A       28.2850   -1.5600   18.3710 O.co2 147  HEM147      0.0000
     15  C1B       33.2110   -1.3380   13.3000 C.ar  147  HEM147      0.0000
     16  C2B       34.4590   -1.8670   12.7350 C.ar  147  HEM147      0.0000
     17  C3B       34.1770   -2.3100   11.4740 C.ar  147  HEM147      0.0000
     18  C4B       32.7610   -2.0530   11.2680 C.ar  147  HEM147      0.0000
     19  CMB       35.7920   -1.9830   13.4640 C.3   147  HEM147      0.0000
     20  CAB       34.9950   -2.9590   10.5450 C.3   147  HEM147      0.0000
     21  CBB       36.4250   -3.1120   10.5640 C.3   147  HEM147      0.0000
     22  C1C       30.7040   -2.2130    9.8700 C.2   147  HEM147      0.0000
     23  C2C       30.0230   -2.5810    8.6420 C.2   147  HEM147      0.0000
     24  C3C       28.6930   -2.2630    8.8060 C.2   147  HEM147      0.0000
     25  C4C       28.5790   -1.7130   10.1590 C.2   147  HEM147      0.0000
     26  CMC       30.7140   -3.1750    7.4150 C.3   147  HEM147      0.0000
     27  CAC       27.6120   -2.3840    7.9150 C.3   147  HEM147      0.0000
     28  CBC       27.6410   -2.8820    6.5560 C.3   147  HEM147      0.0000
     29  C1D       27.3280   -0.4520   11.8990 C.ar  147  HEM147      0.0000
     30  C2D       26.1670    0.3150   12.3300 C.ar  147  HEM147      0.0000
     31  C3D       26.4930    0.8900   13.5090 C.ar  147  HEM147      0.0000
     32  C4D       27.8270    0.4060   13.8520 C.ar  147  HEM147      0.0000
     33  CMD       24.8280    0.4270   11.6090 C.3   147  HEM147      0.0000
     34  CAD       25.6930    1.9400   14.2780 C.3   147  HEM147      0.0000
     35  CBD       26.1490    3.3600   13.9640 C.3   147  HEM147      0.0000
     36  CGD       25.4150    4.4060   14.7860 C.2   147  HEM147      0.0000
     37  O1D       24.1700    4.4060   14.7570 O.co2 147  HEM147      0.0000
     38  O2D       26.0800    5.2290   15.4550 O.co2 147  HEM147      0.0000
     39  NA        30.6310   -0.3150   14.5030 N.2   147  HEM147      0.0000
     40  NB        32.1650   -1.5300   12.4160 N.ar  147  HEM147      0.0000
     41  NC        29.8070   -1.7450   10.8170 N.2   147  HEM147      0.0000
     42  ND        28.3430   -0.3890   12.8430 N.ar  147  HEM147      0.0000
     43 FE         30.1730   -1.2690   12.7640 Fe    147  HEM147      0.0000
@<TRIPOS>BOND
     1    28    27    1
     2    26    23    1
     3    27    24    1
     4    23    24    2
     5    23    22    1
     6    24    25    1
     7    22     3    2
     8    22    41    1
     9     3    18    1
    10    25     4    1
    11    25    41    2
    12    20    21    1
    13    20    17    1
    14     4    29    2
    15    41    43    1
    16    18    17   ar
    17    18    40   ar
    18    17    16   ar
    19    33    30    1
    20    29    30   ar
    21    29    42   ar
    22    30    31   ar
    23    40    43    1
    24    40    15   ar
    25    16    15   ar
    26    16    19    1
    27    43    42    1
    28    43    39    1
    29    42    32   ar
    30    15     2    1
    31    31    32   ar
    32    31    34    1
    33    32     1    2
    34    35    34    1
    35    35    36    1
    36    39     8    1
    37    39     5    2
    38     2     8    2
    39    37    36   ar
    40    36    38   ar
    41     1     5    1
    42     8     7    1
    43     5     6    1
    44     7     6    2
    45     7     9    1
    46     6    10    1
    47    10    11    1
    48    14    12   ar
    49    13    12   ar
    50    12    11    1
