@<TRIPOS>MOLECULE
3uhm_RFN_A_1.pdb
 25 26 0 0 0
SMALL
GASTEIGER

@<TRIPOS>ATOM
      1  N1         2.0260  -10.1300   -1.6500 N.ar  303  RFN303     -0.2941
      2  C4         1.0360  -13.4800   -5.3800 C.ar  303  RFN303      0.0000
      3  C5         0.3830  -13.1080   -4.2110 C.ar  303  RFN303      0.0002
      4  C6        -0.8810  -13.6280   -3.9510 C.ar  303  RFN303      0.0000
      5  C7         0.9660  -12.0960   -3.2940 C.ar  303  RFN303      0.0062
      6  C8         0.1360  -11.1090   -2.6590 C.ar  303  RFN303      0.0189
      7  C10        2.9070  -11.0510   -2.1960 C.ar  303  RFN303      0.2610
      8  C13        2.7500   -7.8330   -1.8140 C.3   303  RFN303      0.0526
      9  C15        2.6030   -6.0720   -0.0040 C.2   303  RFN303      0.1066
     10  C17        4.8490   -6.7760   -0.8760 C.3   303  RFN303      0.0302
     11  C1        -1.4660  -14.5430   -4.8240 C.ar  303  RFN303      0.0000
     12  C2        -0.7770  -14.9140   -5.9580 C.ar  303  RFN303      0.0000
     13  C3         0.4710  -14.4030   -6.2620 C.ar  303  RFN303      0.0000
     14  C9         0.6730  -10.1710   -1.8810 C.ar  303  RFN303      0.0783
     15  C11        2.3000  -12.0760   -3.0740 C.ar  303  RFN303      0.0608
     16  O1         4.1210  -11.0280   -2.0030 O.2   303  RFN303     -0.2670
     17  C12        2.5570   -9.0170   -0.8790 C.3   303  RFN303      0.1112
     18  C14        3.3830   -6.5600   -1.2220 C.3   303  RFN303      0.1519
     19  S1         3.4960   -5.3330   -2.5230 S.O2  303  RFN303     -0.0060
     20  C16        1.8320   -5.0940   -3.0960 C.3   303  RFN303      0.1764
     21  O2         4.2980   -5.8800   -3.5980 O.2   303  RFN303     -0.1727
     22  O3         3.9510   -4.0670   -1.9670 O.2   303  RFN303     -0.1727
     23  O4         1.4240   -5.7620   -0.0630 O.2   303  RFN303     -0.5380
     24  N2         3.3170   -6.0650    1.1710 N.am  303  RFN303     -0.2013
     25  O5         2.5020   -5.6080    2.2600 O.3   303  RFN303     -0.4026
@<TRIPOS>BOND
     1    13    12   ar
     2    13     2   ar
     3    12    11   ar
     4     2     3   ar
     5    11     4   ar
     6     3     4   ar
     7     3     5    1
     8    21    19    2
     9     5    15   ar
    10     5     6   ar
    11    20    19    1
    12    15     7   ar
    13     6    14   ar
    14    19    22    2
    15    19    18    1
    16     7    16    2
    17     7     1   ar
    18    14     1   ar
    19     8    18    1
    20     8    17    1
    21     1    17    1
    22    18    10    1
    23    18     9    1
    24    23     9    2
    25     9    24   am
    26    24    25    1
