@<TRIPOS>MOLECULE
3uhn_HEM_A_1.pdb
 43 50 0 0 0
SMALL
GASTEIGER

@<TRIPOS>ATOM
      1  CHA       16.8070    9.5620   17.5830 C.2   147  HEM147      0.0000
      2  CHB       14.7870    8.3870   21.8210 C.2   147  HEM147      0.0000
      3  CHC       19.0510    6.6810   23.3880 C.2   147  HEM147      0.0000
      4  CHD       20.9800    7.5450   19.0190 C.2   147  HEM147      0.0000
      5  C1A       15.8460    9.2760   18.5530 C.2   147  HEM147      0.0000
      6  C2A       14.4640    9.7080   18.4950 C.2   147  HEM147      0.0000
      7  C3A       13.9010    9.3630   19.6760 C.2   147  HEM147      0.0000
      8  C4A       14.9340    8.7400   20.4790 C.2   147  HEM147      0.0000
      9  CMA       12.4210    9.5070   20.0140 C.3   147  HEM147      0.0000
     10  CAA       13.7120   10.3620   17.3340 C.3   147  HEM147      0.0000
     11  CBA       13.0180    9.3520   16.4310 C.3   147  HEM147      0.0000
     12  CGA       13.9960    8.5190   15.6220 C.2   147  HEM147      0.0000
     13  O1A       14.6520    9.0840   14.7210 O.co2 147  HEM147      0.0000
     14  O2A       14.1150    7.3060   15.8920 O.co2 147  HEM147      0.0000
     15  C1B       15.7590    7.7750   22.6090 C.ar  147  HEM147      0.0000
     16  C2B       15.5480    7.3240   23.9840 C.ar  147  HEM147      0.0000
     17  C3B       16.7600    6.8820   24.4410 C.ar  147  HEM147      0.0000
     18  C4B       17.6900    7.0130   23.3260 C.ar  147  HEM147      0.0000
     19  CMB       14.1980    7.2240   24.6960 C.3   147  HEM147      0.0000
     20  CAB       17.0750    6.3240   25.6800 C.3   147  HEM147      0.0000
     21  CBB       16.4860    6.6720   26.9470 C.3   147  HEM147      0.0000
     22  C1C       19.9330    6.7120   22.3160 C.2   147  HEM147      0.0000
     23  C2C       21.3410    6.3650   22.4050 C.2   147  HEM147      0.0000
     24  C3C       21.9010    6.6000   21.1780 C.2   147  HEM147      0.0000
     25  C4C       20.8090    7.0660   20.3240 C.2   147  HEM147      0.0000
     26  CMC       22.0230    5.8030   23.6530 C.3   147  HEM147      0.0000
     27  CAC       23.2250    6.4360   20.7470 C.3   147  HEM147      0.0000
     28  CBC       24.3960    6.1640   21.5370 C.3   147  HEM147      0.0000
     29  C1D       20.0210    8.2150   18.2640 C.ar  147  HEM147      0.0000
     30  C2D       20.3230    8.9830   17.0670 C.ar  147  HEM147      0.0000
     31  C3D       19.1810    9.6080   16.6990 C.ar  147  HEM147      0.0000
     32  C4D       18.1460    9.1890   17.6500 C.ar  147  HEM147      0.0000
     33  CMD       21.6730    9.0770   16.3530 C.3   147  HEM147      0.0000
     34  CAD       19.0320   10.6110   15.5570 C.3   147  HEM147      0.0000
     35  CBD       19.2960   12.0380   16.0160 C.3   147  HEM147      0.0000
     36  CGD       19.0520   13.0600   14.9230 C.2   147  HEM147      0.0000
     37  O1D       19.7710   13.0260   13.9040 O.co2 147  HEM147      0.0000
     38  O2D       18.1410   13.9020   15.0830 O.co2 147  HEM147      0.0000
     39  NA        16.1020    8.6120   19.7490 N.2   147  HEM147      0.0000
     40  NB        17.0510    7.4860   22.1870 N.ar  147  HEM147      0.0000
     41  NC        19.6030    7.1090   21.0290 N.2   147  HEM147      0.0000
     42  ND        18.6900    8.3710   18.6340 N.ar  147  HEM147      0.0000
     43 FE         17.7760    7.5740   20.2750 Fe    147  HEM147      0.0000
@<TRIPOS>BOND
     1    37    36   ar
     2    13    12   ar
     3    36    38   ar
     4    36    35    1
     5    34    35    1
     6    34    31    1
     7    12    14   ar
     8    12    11    1
     9    33    30    1
    10    11    10    1
    11    31    30   ar
    12    31    32   ar
    13    30    29   ar
    14    10     6    1
    15     1    32    2
    16     1     5    1
    17    32    42   ar
    18    29    42   ar
    19    29     4    2
    20     6     5    1
    21     6     7    2
    22     5    39    2
    23    42    43    1
    24     4    25    1
    25     7     9    1
    26     7     8    1
    27    39    43    1
    28    39     8    1
    29    43    41    1
    30    43    40    1
    31    25    41    2
    32    25    24    1
    33     8     2    2
    34    27    24    1
    35    27    28    1
    36    41    22    1
    37    24    23    2
    38     2    15    1
    39    40    15   ar
    40    40    18   ar
    41    22    23    1
    42    22     3    2
    43    23    26    1
    44    15    16   ar
    45    18     3    1
    46    18    17   ar
    47    16    17   ar
    48    16    19    1
    49    17    20    1
    50    20    21    1
