@<TRIPOS>MOLECULE
3uho_DGL_A_1.pdb
 10 9 0 0 0
SMALL
GASTEIGER

@<TRIPOS>ATOM
      1  N        -26.9560   -0.8420   16.1540 N.3   260  DGL260     -0.1208
      2  CA       -27.2250   -2.1260   16.7900 C.3   260  DGL260      0.1949
      3  C        -25.9470   -2.7700   17.3120 C.2   260  DGL260      0.3819
      4  O        -24.9430   -2.0930   17.5390 O.co2 260  DGL260     -0.2441
      5  CB       -28.2260   -1.9520   17.9300 C.3   260  DGL260      0.0424
      6  CG       -29.6070   -1.5670   17.4540 C.3   260  DGL260      0.1161
      7  CD       -30.1820   -2.5960   16.5110 C.2   260  DGL260      0.3649
      8  OE1      -30.5940   -3.6770   16.9960 O.co2 260  DGL260     -0.2457
      9  OE2      -30.2060   -2.3310   15.2880 O.co2 260  DGL260     -0.2457
     10  OXT      -25.9000   -3.9830   17.5270 O.co2 260  DGL260     -0.2441
@<TRIPOS>BOND
     1     9     7   ar
     2     1     2    1
     3     7     8   ar
     4     7     6    1
     5     2     3    1
     6     2     5    1
     7     3    10   ar
     8     3     4   ar
     9     6     5    1
