@<TRIPOS>MOLECULE
3uhq_HEM_A_1.pdb
 43 50 0 0 0
SMALL
GASTEIGER

@<TRIPOS>ATOM
      1  CHA       16.6590    9.8150   17.4710 C.2   147  HEM147      0.0000
      2  CHB       14.7020    8.6440   21.7240 C.2   147  HEM147      0.0000
      3  CHC       18.9910    6.9770   23.2430 C.2   147  HEM147      0.0000
      4  CHD       20.8750    7.8970   18.9010 C.2   147  HEM147      0.0000
      5  C1A       15.7310    9.5350   18.4710 C.2   147  HEM147      0.0000
      6  C2A       14.3160    9.9170   18.4150 C.2   147  HEM147      0.0000
      7  C3A       13.7780    9.5880   19.6060 C.2   147  HEM147      0.0000
      8  C4A       14.8500    9.0080   20.4040 C.2   147  HEM147      0.0000
      9  CMA       12.3090    9.7420   20.0170 C.3   147  HEM147      0.0000
     10  CAA       13.5400   10.4930   17.2300 C.3   147  HEM147      0.0000
     11  CBA       12.8950    9.3820   16.4030 C.3   147  HEM147      0.0000
     12  CGA       13.9130    8.5590   15.6370 C.2   147  HEM147      0.0000
     13  O1A       14.5150    9.0980   14.6840 O.co2 147  HEM147      0.0000
     14  O2A       14.1190    7.3800   15.9930 O.co2 147  HEM147      0.0000
     15  C1B       15.7090    8.0710   22.4800 C.ar  147  HEM147      0.0000
     16  C2B       15.5300    7.6590   23.8700 C.ar  147  HEM147      0.0000
     17  C3B       16.7380    7.1980   24.2890 C.ar  147  HEM147      0.0000
     18  C4B       17.6460    7.3360   23.1700 C.ar  147  HEM147      0.0000
     19  CMB       14.2020    7.6620   24.6470 C.3   147  HEM147      0.0000
     20  CAB       17.0880    6.5480   25.6350 C.3   147  HEM147      0.0000
     21  CBB       16.3680    6.7530   26.8560 C.3   147  HEM147      0.0000
     22  C1C       19.8460    6.9970   22.1680 C.2   147  HEM147      0.0000
     23  C2C       21.2690    6.6250   22.2450 C.2   147  HEM147      0.0000
     24  C3C       21.7980    6.9040   21.0210 C.2   147  HEM147      0.0000
     25  C4C       20.7040    7.4200   20.2040 C.2   147  HEM147      0.0000
     26  CMC       21.9860    6.0940   23.5040 C.3   147  HEM147      0.0000
     27  CAC       23.2450    6.7510   20.5210 C.3   147  HEM147      0.0000
     28  CBC       24.3490    6.2440   21.2890 C.3   147  HEM147      0.0000
     29  C1D       19.8930    8.5230   18.1510 C.ar  147  HEM147      0.0000
     30  C2D       20.1660    9.2660   16.9250 C.ar  147  HEM147      0.0000
     31  C3D       19.0100    9.8600   16.5780 C.ar  147  HEM147      0.0000
     32  C4D       17.9990    9.4570   17.5520 C.ar  147  HEM147      0.0000
     33  CMD       21.5130    9.4410   16.2100 C.3   147  HEM147      0.0000
     34  CAD       18.8370   10.8780   15.4560 C.3   147  HEM147      0.0000
     35  CBD       19.2670   12.2770   15.8950 C.3   147  HEM147      0.0000
     36  CGD       18.9740   13.3300   14.8400 C.2   147  HEM147      0.0000
     37  O1D       19.6560   13.3390   13.7940 O.co2 147  HEM147      0.0000
     38  O2D       18.0530   14.1440   15.0550 O.co2 147  HEM147      0.0000
     39  NA        16.0330    8.8980   19.6740 N.2   147  HEM147      0.0000
     40  NB        17.0070    7.8050   22.0330 N.ar  147  HEM147      0.0000
     41  NC        19.4980    7.4320   20.9010 N.2   147  HEM147      0.0000
     42  ND        18.5590    8.6530   18.5510 N.ar  147  HEM147      0.0000
     43 FE         17.6880    7.8530   20.1650 Fe    147  HEM147      0.0000
@<TRIPOS>BOND
     1    37    36   ar
     2    13    12   ar
     3    36    38   ar
     4    36    35    1
     5    34    35    1
     6    34    31    1
     7    12    14   ar
     8    12    11    1
     9    33    30    1
    10    11    10    1
    11    31    30   ar
    12    31    32   ar
    13    30    29   ar
    14    10     6    1
    15     1    32    2
    16     1     5    1
    17    32    42   ar
    18    29    42   ar
    19    29     4    2
    20     6     5    1
    21     6     7    2
    22     5    39    2
    23    42    43    1
    24     4    25    1
    25     7     9    1
    26     7     8    1
    27    39    43    1
    28    39     8    1
    29    43    41    1
    30    43    40    1
    31    25    41    2
    32    25    24    1
    33     8     2    2
    34    27    24    1
    35    27    28    1
    36    41    22    1
    37    24    23    2
    38     2    15    1
    39    40    15   ar
    40    40    18   ar
    41    22    23    1
    42    22     3    2
    43    23    26    1
    44    15    16   ar
    45    18     3    1
    46    18    17   ar
    47    16    17   ar
    48    16    19    1
    49    17    20    1
    50    20    21    1
