@<TRIPOS>MOLECULE
3uhr_HEM_A_1.pdb
 43 50 0 0 0
SMALL
GASTEIGER

@<TRIPOS>ATOM
      1  CHA       16.5810    9.8130   17.4370 C.2   147  HEM147      0.0000
      2  CHB       14.6560    8.6180   21.6900 C.2   147  HEM147      0.0000
      3  CHC       18.9700    7.0060   23.1970 C.2   147  HEM147      0.0000
      4  CHD       20.8080    7.8580   18.8110 C.2   147  HEM147      0.0000
      5  C1A       15.6520    9.4900   18.4140 C.2   147  HEM147      0.0000
      6  C2A       14.2510    9.8920   18.3710 C.2   147  HEM147      0.0000
      7  C3A       13.7250    9.5610   19.5660 C.2   147  HEM147      0.0000
      8  C4A       14.7890    8.9660   20.3510 C.2   147  HEM147      0.0000
      9  CMA       12.2550    9.7260   19.9590 C.3   147  HEM147      0.0000
     10  CAA       13.4530   10.4970   17.2130 C.3   147  HEM147      0.0000
     11  CBA       12.7740    9.4220   16.3710 C.3   147  HEM147      0.0000
     12  CGA       13.7640    8.5850   15.5830 C.2   147  HEM147      0.0000
     13  O1A       14.3660    9.1210   14.6310 O.co2 147  HEM147      0.0000
     14  O2A       13.9460    7.3970   15.9190 O.co2 147  HEM147      0.0000
     15  C1B       15.6650    8.0520   22.4610 C.ar  147  HEM147      0.0000
     16  C2B       15.4970    7.6610   23.8570 C.ar  147  HEM147      0.0000
     17  C3B       16.7040    7.1990   24.2850 C.ar  147  HEM147      0.0000
     18  C4B       17.6130    7.3210   23.1430 C.ar  147  HEM147      0.0000
     19  CMB       14.1950    7.7180   24.6610 C.3   147  HEM147      0.0000
     20  CAB       17.0420    6.6270   25.5170 C.3   147  HEM147      0.0000
     21  CBB       16.5190    6.9580   26.8170 C.3   147  HEM147      0.0000
     22  C1C       19.8200    7.0290   22.1060 C.2   147  HEM147      0.0000
     23  C2C       21.2280    6.6590   22.1720 C.2   147  HEM147      0.0000
     24  C3C       21.7540    6.8650   20.9290 C.2   147  HEM147      0.0000
     25  C4C       20.6500    7.3750   20.1050 C.2   147  HEM147      0.0000
     26  CMC       21.9500    6.1090   23.4060 C.3   147  HEM147      0.0000
     27  CAC       23.0460    6.5860   20.4720 C.3   147  HEM147      0.0000
     28  CBC       24.2690    6.7680   21.2120 C.3   147  HEM147      0.0000
     29  C1D       19.8100    8.4870   18.0820 C.ar  147  HEM147      0.0000
     30  C2D       20.0800    9.2600   16.8820 C.ar  147  HEM147      0.0000
     31  C3D       18.9280    9.8640   16.5500 C.ar  147  HEM147      0.0000
     32  C4D       17.9180    9.4440   17.5130 C.ar  147  HEM147      0.0000
     33  CMD       21.4150    9.4600   16.1540 C.3   147  HEM147      0.0000
     34  CAD       18.7690   10.8770   15.4290 C.3   147  HEM147      0.0000
     35  CBD       19.1110   12.2890   15.8830 C.3   147  HEM147      0.0000
     36  CGD       18.8070   13.3310   14.8240 C.2   147  HEM147      0.0000
     37  O1D       19.4560   13.3100   13.7570 O.co2 147  HEM147      0.0000
     38  O2D       17.9140   14.1710   15.0580 O.co2 147  HEM147      0.0000
     39  NA        15.9590    8.8400   19.6100 N.2   147  HEM147      0.0000
     40  NB        16.9510    7.7710   21.9990 N.ar  147  HEM147      0.0000
     41  NC        19.4510    7.4170   20.8200 N.2   147  HEM147      0.0000
     42  ND        18.4740    8.6150   18.4960 N.ar  147  HEM147      0.0000
     43 FE         17.6130    7.8110   20.1170 Fe    147  HEM147      0.0000
@<TRIPOS>BOND
     1    37    36   ar
     2    13    12   ar
     3    36    38   ar
     4    36    35    1
     5    34    35    1
     6    34    31    1
     7    12    14   ar
     8    12    11    1
     9    33    30    1
    10    11    10    1
    11    31    30   ar
    12    31    32   ar
    13    30    29   ar
    14    10     6    1
    15     1    32    2
    16     1     5    1
    17    32    42   ar
    18    29    42   ar
    19    29     4    2
    20     6     5    1
    21     6     7    2
    22     5    39    2
    23    42    43    1
    24     4    25    1
    25     7     9    1
    26     7     8    1
    27    39    43    1
    28    39     8    1
    29    25    41    2
    30    25    24    1
    31    43    41    1
    32    43    40    1
    33     8     2    2
    34    27    24    1
    35    27    28    1
    36    41    22    1
    37    24    23    2
    38     2    15    1
    39    40    15   ar
    40    40    18   ar
    41    22    23    1
    42    22     3    2
    43    23    26    1
    44    15    16   ar
    45    18     3    1
    46    18    17   ar
    47    16    17   ar
    48    16    19    1
    49    17    20    1
    50    20    21    1
