@<TRIPOS>MOLECULE
3uhs_HEM_A_1.pdb
 43 50 0 0 0
SMALL
GASTEIGER

@<TRIPOS>ATOM
      1  CHA       16.6580    9.7680   17.5290 C.2   147  HEM147      0.0000
      2  CHB       14.7120    8.6140   21.7890 C.2   147  HEM147      0.0000
      3  CHC       18.9750    6.9350   23.2800 C.2   147  HEM147      0.0000
      4  CHD       20.8450    7.7600   18.9110 C.2   147  HEM147      0.0000
      5  C1A       15.7140    9.4480   18.5060 C.2   147  HEM147      0.0000
      6  C2A       14.2990    9.8390   18.4490 C.2   147  HEM147      0.0000
      7  C3A       13.7840    9.5550   19.6570 C.2   147  HEM147      0.0000
      8  C4A       14.8550    8.9840   20.4580 C.2   147  HEM147      0.0000
      9  CMA       12.3300    9.7720   20.0690 C.3   147  HEM147      0.0000
     10  CAA       13.4930   10.4170   17.2850 C.3   147  HEM147      0.0000
     11  CBA       12.8680    9.3590   16.3830 C.3   147  HEM147      0.0000
     12  CGA       13.9050    8.5610   15.6100 C.2   147  HEM147      0.0000
     13  O1A       14.5740    9.1460   14.7320 O.co2 147  HEM147      0.0000
     14  O2A       14.0550    7.3530   15.8830 O.co2 147  HEM147      0.0000
     15  C1B       15.7020    8.0050   22.5470 C.ar  147  HEM147      0.0000
     16  C2B       15.5120    7.5890   23.9340 C.ar  147  HEM147      0.0000
     17  C3B       16.7200    7.1480   24.3770 C.ar  147  HEM147      0.0000
     18  C4B       17.6320    7.2630   23.2320 C.ar  147  HEM147      0.0000
     19  CMB       14.1760    7.5550   24.6880 C.3   147  HEM147      0.0000
     20  CAB       17.0490    6.6100   25.6240 C.3   147  HEM147      0.0000
     21  CBB       16.4890    6.9640   26.9050 C.3   147  HEM147      0.0000
     22  C1C       19.8370    6.9680   22.2020 C.2   147  HEM147      0.0000
     23  C2C       21.2470    6.6050   22.2810 C.2   147  HEM147      0.0000
     24  C3C       21.7890    6.8130   21.0430 C.2   147  HEM147      0.0000
     25  C4C       20.6850    7.2840   20.2060 C.2   147  HEM147      0.0000
     26  CMC       21.9480    6.0860   23.5350 C.3   147  HEM147      0.0000
     27  CAC       23.1060    6.6540   20.5980 C.3   147  HEM147      0.0000
     28  CBC       24.2880    6.3110   21.3560 C.3   147  HEM147      0.0000
     29  C1D       19.8760    8.4540   18.1990 C.ar  147  HEM147      0.0000
     30  C2D       20.1700    9.2490   17.0250 C.ar  147  HEM147      0.0000
     31  C3D       19.0180    9.8640   16.6830 C.ar  147  HEM147      0.0000
     32  C4D       18.0040    9.4460   17.6340 C.ar  147  HEM147      0.0000
     33  CMD       21.5240    9.4220   16.3310 C.3   147  HEM147      0.0000
     34  CAD       18.8440   10.8560   15.5390 C.3   147  HEM147      0.0000
     35  CBD       19.1110   12.2720   16.0150 C.3   147  HEM147      0.0000
     36  CGD       18.9360   13.2980   14.9150 C.2   147  HEM147      0.0000
     37  O1D       19.6980   13.2480   13.9280 O.co2 147  HEM147      0.0000
     38  O2D       18.0350   14.1530   15.0340 O.co2 147  HEM147      0.0000
     39  NA        16.0230    8.8480   19.7200 N.2   147  HEM147      0.0000
     40  NB        16.9830    7.7300   22.0930 N.ar  147  HEM147      0.0000
     41  NC        19.4850    7.3550   20.9160 N.2   147  HEM147      0.0000
     42  ND        18.5530    8.6150   18.6080 N.ar  147  HEM147      0.0000
     43 FE         17.6830    7.8370   20.2190 Fe    147  HEM147      0.0000
@<TRIPOS>BOND
     1    37    36   ar
     2    13    12   ar
     3    36    38   ar
     4    36    35    1
     5    34    35    1
     6    34    31    1
     7    12    14   ar
     8    12    11    1
     9    33    30    1
    10    11    10    1
    11    31    30   ar
    12    31    32   ar
    13    30    29   ar
    14    10     6    1
    15     1    32    2
    16     1     5    1
    17    32    42   ar
    18    29    42   ar
    19    29     4    2
    20     6     5    1
    21     6     7    2
    22     5    39    2
    23    42    43    1
    24     4    25    1
    25     7     9    1
    26     7     8    1
    27    39    43    1
    28    39     8    1
    29    25    41    2
    30    25    24    1
    31    43    41    1
    32    43    40    1
    33     8     2    2
    34    27    24    1
    35    27    28    1
    36    41    22    1
    37    24    23    2
    38     2    15    1
    39    40    15   ar
    40    40    18   ar
    41    22    23    1
    42    22     3    2
    43    23    26    1
    44    15    16   ar
    45    18     3    1
    46    18    17   ar
    47    16    17   ar
    48    16    19    1
    49    17    20    1
    50    20    21    1
