@<TRIPOS>MOLECULE
3uht_HEM_A_1.pdb
 43 50 0 0 0
SMALL
GASTEIGER

@<TRIPOS>ATOM
      1  CHA       16.6510    9.8140   17.5010 C.2   147  HEM147      0.0000
      2  CHB       14.7190    8.6590   21.7400 C.2   147  HEM147      0.0000
      3  CHC       18.9840    6.9200   23.2180 C.2   147  HEM147      0.0000
      4  CHD       20.8500    7.8250   18.8620 C.2   147  HEM147      0.0000
      5  C1A       15.7150    9.5040   18.4740 C.2   147  HEM147      0.0000
      6  C2A       14.3220    9.9190   18.4310 C.2   147  HEM147      0.0000
      7  C3A       13.7950    9.6090   19.6260 C.2   147  HEM147      0.0000
      8  C4A       14.8510    9.0060   20.4090 C.2   147  HEM147      0.0000
      9  CMA       12.3310    9.7930   20.0170 C.3   147  HEM147      0.0000
     10  CAA       13.5240   10.4870   17.2620 C.3   147  HEM147      0.0000
     11  CBA       12.8710    9.3980   16.4200 C.3   147  HEM147      0.0000
     12  CGA       13.8810    8.5770   15.6410 C.2   147  HEM147      0.0000
     13  O1A       14.5020    9.1290   14.7100 O.co2 147  HEM147      0.0000
     14  O2A       14.0590    7.3840   15.9640 O.co2 147  HEM147      0.0000
     15  C1B       15.7120    8.0470   22.4920 C.ar  147  HEM147      0.0000
     16  C2B       15.5270    7.6350   23.8720 C.ar  147  HEM147      0.0000
     17  C3B       16.7210    7.1430   24.3060 C.ar  147  HEM147      0.0000
     18  C4B       17.6340    7.2580   23.1660 C.ar  147  HEM147      0.0000
     19  CMB       14.2100    7.6980   24.6470 C.3   147  HEM147      0.0000
     20  CAB       17.0290    6.5510   25.5370 C.3   147  HEM147      0.0000
     21  CBB       16.4220    6.8170   26.8190 C.3   147  HEM147      0.0000
     22  C1C       19.8410    6.9590   22.1330 C.2   147  HEM147      0.0000
     23  C2C       21.2550    6.6300   22.2210 C.2   147  HEM147      0.0000
     24  C3C       21.8050    6.9040   21.0030 C.2   147  HEM147      0.0000
     25  C4C       20.6910    7.3490   20.1560 C.2   147  HEM147      0.0000
     26  CMC       21.9490    6.0320   23.4470 C.3   147  HEM147      0.0000
     27  CAC       23.1450    6.8390   20.5990 C.3   147  HEM147      0.0000
     28  CBC       24.2300    6.1070   21.2110 C.3   147  HEM147      0.0000
     29  C1D       19.8630    8.4660   18.1340 C.ar  147  HEM147      0.0000
     30  C2D       20.1320    9.2250   16.9260 C.ar  147  HEM147      0.0000
     31  C3D       18.9890    9.8560   16.6030 C.ar  147  HEM147      0.0000
     32  C4D       17.9880    9.4480   17.5730 C.ar  147  HEM147      0.0000
     33  CMD       21.4390    9.3460   16.1470 C.3   147  HEM147      0.0000
     34  CAD       18.8430   10.8780   15.4810 C.3   147  HEM147      0.0000
     35  CBD       19.0880   12.3040   15.9540 C.3   147  HEM147      0.0000
     36  CGD       18.8840   13.3280   14.8530 C.2   147  HEM147      0.0000
     37  O1D       19.6300   13.2880   13.8530 O.co2 147  HEM147      0.0000
     38  O2D       17.9740   14.1730   14.9870 O.co2 147  HEM147      0.0000
     39  NA        16.0110    8.8590   19.6680 N.2   147  HEM147      0.0000
     40  NB        16.9880    7.7420   22.0310 N.ar  147  HEM147      0.0000
     41  NC        19.4840    7.3640   20.8530 N.2   147  HEM147      0.0000
     42  ND        18.5400    8.6170   18.5480 N.ar  147  HEM147      0.0000
     43 FE         17.6580    7.8230   20.1510 Fe    147  HEM147      0.0000
@<TRIPOS>BOND
     1    37    36   ar
     2    13    12   ar
     3    36    38   ar
     4    36    35    1
     5    34    35    1
     6    34    31    1
     7    12    14   ar
     8    12    11    1
     9    33    30    1
    10    11    10    1
    11    31    30   ar
    12    31    32   ar
    13    30    29   ar
    14    10     6    1
    15     1    32    2
    16     1     5    1
    17    32    42   ar
    18    29    42   ar
    19    29     4    2
    20     6     5    1
    21     6     7    2
    22     5    39    2
    23    42    43    1
    24     4    25    1
    25     7     9    1
    26     7     8    1
    27    39    43    1
    28    39     8    1
    29    43    41    1
    30    43    40    1
    31    25    41    2
    32    25    24    1
    33     8     2    2
    34    27    24    1
    35    27    28    1
    36    41    22    1
    37    24    23    2
    38     2    15    1
    39    40    15   ar
    40    40    18   ar
    41    22    23    1
    42    22     3    2
    43    23    26    1
    44    15    16   ar
    45    18     3    1
    46    18    17   ar
    47    16    17   ar
    48    16    19    1
    49    17    20    1
    50    20    21    1
