@<TRIPOS>MOLECULE
3uhu_HEM_A_1.pdb
 43 50 0 0 0
SMALL
GASTEIGER

@<TRIPOS>ATOM
      1  CHA       16.6770    9.7530   17.5220 C.2   147  HEM147      0.0000
      2  CHB       14.7410    8.6500   21.7700 C.2   147  HEM147      0.0000
      3  CHC       18.9970    6.8920   23.2240 C.2   147  HEM147      0.0000
      4  CHD       20.8530    7.6890   18.8400 C.2   147  HEM147      0.0000
      5  C1A       15.7310    9.4380   18.4830 C.2   147  HEM147      0.0000
      6  C2A       14.3430    9.8430   18.4320 C.2   147  HEM147      0.0000
      7  C3A       13.8090    9.5510   19.6350 C.2   147  HEM147      0.0000
      8  C4A       14.8610    8.9550   20.4230 C.2   147  HEM147      0.0000
      9  CMA       12.3620    9.7990   20.0460 C.3   147  HEM147      0.0000
     10  CAA       13.5520   10.4060   17.2560 C.3   147  HEM147      0.0000
     11  CBA       12.9130    9.3300   16.3830 C.3   147  HEM147      0.0000
     12  CGA       13.9340    8.5290   15.5950 C.2   147  HEM147      0.0000
     13  O1A       14.5730    9.1130   14.6960 O.co2 147  HEM147      0.0000
     14  O2A       14.1020    7.3220   15.8750 O.co2 147  HEM147      0.0000
     15  C1B       15.7260    8.0330   22.5170 C.ar  147  HEM147      0.0000
     16  C2B       15.5440    7.6200   23.9000 C.ar  147  HEM147      0.0000
     17  C3B       16.7380    7.1160   24.3280 C.ar  147  HEM147      0.0000
     18  C4B       17.6400    7.2100   23.1750 C.ar  147  HEM147      0.0000
     19  CMB       14.2200    7.6330   24.6620 C.3   147  HEM147      0.0000
     20  CAB       17.0820    6.5720   25.5740 C.3   147  HEM147      0.0000
     21  CBB       16.4570    6.8100   26.8560 C.3   147  HEM147      0.0000
     22  C1C       19.8550    6.9310   22.1430 C.2   147  HEM147      0.0000
     23  C2C       21.2520    6.5440   22.2110 C.2   147  HEM147      0.0000
     24  C3C       21.7830    6.7070   20.9660 C.2   147  HEM147      0.0000
     25  C4C       20.6870    7.2100   20.1360 C.2   147  HEM147      0.0000
     26  CMC       21.9820    6.0310   23.4550 C.3   147  HEM147      0.0000
     27  CAC       23.0770    6.4030   20.5060 C.3   147  HEM147      0.0000
     28  CBC       24.3040    6.2840   21.2600 C.3   147  HEM147      0.0000
     29  C1D       19.8740    8.3690   18.1220 C.ar  147  HEM147      0.0000
     30  C2D       20.1560    9.1560   16.9370 C.ar  147  HEM147      0.0000
     31  C3D       19.0130    9.7960   16.6100 C.ar  147  HEM147      0.0000
     32  C4D       18.0120    9.3770   17.5760 C.ar  147  HEM147      0.0000
     33  CMD       21.5000    9.3130   16.2260 C.3   147  HEM147      0.0000
     34  CAD       18.8420   10.8270   15.4980 C.3   147  HEM147      0.0000
     35  CBD       19.1030   12.2590   15.9560 C.3   147  HEM147      0.0000
     36  CGD       18.8490   13.2830   14.8610 C.2   147  HEM147      0.0000
     37  O1D       19.5310   13.2300   13.8180 O.co2 147  HEM147      0.0000
     38  O2D       17.9640   14.1460   15.0440 O.co2 147  HEM147      0.0000
     39  NA        16.0210    8.7970   19.6760 N.2   147  HEM147      0.0000
     40  NB        16.9920    7.7040   22.0400 N.ar  147  HEM147      0.0000
     41  NC        19.4890    7.3010   20.8530 N.2   147  HEM147      0.0000
     42  ND        18.5560    8.5380   18.5370 N.ar  147  HEM147      0.0000
     43 FE         17.6760    7.7730   20.1560 Fe    147  HEM147      0.0000
@<TRIPOS>BOND
     1    37    36   ar
     2    13    12   ar
     3    36    38   ar
     4    36    35    1
     5    34    35    1
     6    34    31    1
     7    12    14   ar
     8    12    11    1
     9    33    30    1
    10    11    10    1
    11    31    30   ar
    12    31    32   ar
    13    30    29   ar
    14    10     6    1
    15     1    32    2
    16     1     5    1
    17    32    42   ar
    18    29    42   ar
    19    29     4    2
    20     6     5    1
    21     6     7    2
    22     5    39    2
    23    42    43    1
    24     4    25    1
    25     7     9    1
    26     7     8    1
    27    39    43    1
    28    39     8    1
    29    25    41    2
    30    25    24    1
    31    43    41    1
    32    43    40    1
    33     8     2    2
    34    27    24    1
    35    27    28    1
    36    41    22    1
    37    24    23    2
    38     2    15    1
    39    40    15   ar
    40    40    18   ar
    41    22    23    1
    42    22     3    2
    43    23    26    1
    44    15    16   ar
    45    18     3    1
    46    18    17   ar
    47    16    17   ar
    48    16    19    1
    49    17    20    1
    50    20    21    1
