@<TRIPOS>MOLECULE
3uhv_HEM_A_1.pdb
 43 50 0 0 0
SMALL
GASTEIGER

@<TRIPOS>ATOM
      1  CHA       16.7100    9.7140   17.4750 C.2   147  HEM147      0.0000
      2  CHB       14.7480    8.5900   21.7510 C.2   147  HEM147      0.0000
      3  CHC       19.0470    6.9890   23.2960 C.2   147  HEM147      0.0000
      4  CHD       20.9320    7.7390   18.9260 C.2   147  HEM147      0.0000
      5  C1A       15.7480    9.3970   18.4530 C.2   147  HEM147      0.0000
      6  C2A       14.3420    9.7770   18.4010 C.2   147  HEM147      0.0000
      7  C3A       13.8130    9.4750   19.6100 C.2   147  HEM147      0.0000
      8  C4A       14.8700    8.8910   20.4020 C.2   147  HEM147      0.0000
      9  CMA       12.3540    9.6620   20.0150 C.3   147  HEM147      0.0000
     10  CAA       13.5580   10.3590   17.2280 C.3   147  HEM147      0.0000
     11  CBA       12.9290    9.2810   16.3560 C.3   147  HEM147      0.0000
     12  CGA       13.9560    8.4720   15.5870 C.2   147  HEM147      0.0000
     13  O1A       14.5600    9.0200   14.6400 O.co2 147  HEM147      0.0000
     14  O2A       14.1650    7.2910   15.9310 O.co2 147  HEM147      0.0000
     15  C1B       15.7490    8.0430   22.5430 C.ar  147  HEM147      0.0000
     16  C2B       15.5750    7.6910   23.9450 C.ar  147  HEM147      0.0000
     17  C3B       16.7800    7.2390   24.3980 C.ar  147  HEM147      0.0000
     18  C4B       17.6880    7.3130   23.2450 C.ar  147  HEM147      0.0000
     19  CMB       14.2490    7.7340   24.7050 C.3   147  HEM147      0.0000
     20  CAB       17.0970    6.7410   25.6710 C.3   147  HEM147      0.0000
     21  CBB       16.5570    7.2130   26.9240 C.3   147  HEM147      0.0000
     22  C1C       19.9150    6.9650   22.2140 C.2   147  HEM147      0.0000
     23  C2C       21.3220    6.6020   22.3120 C.2   147  HEM147      0.0000
     24  C3C       21.8740    6.7990   21.0790 C.2   147  HEM147      0.0000
     25  C4C       20.7690    7.2480   20.2220 C.2   147  HEM147      0.0000
     26  CMC       21.9970    6.0410   23.5670 C.3   147  HEM147      0.0000
     27  CAC       23.2050    6.6510   20.6580 C.3   147  HEM147      0.0000
     28  CBC       24.3440    6.1870   21.4130 C.3   147  HEM147      0.0000
     29  C1D       19.9580    8.4010   18.1690 C.ar  147  HEM147      0.0000
     30  C2D       20.2530    9.1550   16.9650 C.ar  147  HEM147      0.0000
     31  C3D       19.0970    9.7630   16.5930 C.ar  147  HEM147      0.0000
     32  C4D       18.0660    9.3520   17.5430 C.ar  147  HEM147      0.0000
     33  CMD       21.6060    9.2910   16.2630 C.3   147  HEM147      0.0000
     34  CAD       18.9300   10.7650   15.4570 C.3   147  HEM147      0.0000
     35  CBD       19.2990   12.1790   15.8840 C.3   147  HEM147      0.0000
     36  CGD       19.0260   13.2060   14.8050 C.2   147  HEM147      0.0000
     37  O1D       19.6980   13.1640   13.7530 O.co2 147  HEM147      0.0000
     38  O2D       18.1360   14.0560   15.0080 O.co2 147  HEM147      0.0000
     39  NA        16.0310    8.7660   19.6560 N.2   147  HEM147      0.0000
     40  NB        17.0300    7.7400   22.1000 N.ar  147  HEM147      0.0000
     41  NC        19.5700    7.3070   20.9180 N.2   147  HEM147      0.0000
     42  ND        18.6230    8.5420   18.5330 N.ar  147  HEM147      0.0000
     43 FE         17.7260    7.7450   20.1670 Fe    147  HEM147      0.0000
@<TRIPOS>BOND
     1    37    36   ar
     2    13    12   ar
     3    36    38   ar
     4    36    35    1
     5    34    35    1
     6    34    31    1
     7    12    14   ar
     8    12    11    1
     9    33    30    1
    10    11    10    1
    11    31    30   ar
    12    31    32   ar
    13    30    29   ar
    14    10     6    1
    15     1    32    2
    16     1     5    1
    17    32    42   ar
    18    29    42   ar
    19    29     4    2
    20     6     5    1
    21     6     7    2
    22     5    39    2
    23    42    43    1
    24     4    25    1
    25     7     9    1
    26     7     8    1
    27    39    43    1
    28    39     8    1
    29    43    41    1
    30    43    40    1
    31    25    41    2
    32    25    24    1
    33     8     2    2
    34    27    24    1
    35    27    28    1
    36    41    22    1
    37    24    23    2
    38     2    15    1
    39    40    15   ar
    40    40    18   ar
    41    22    23    1
    42    22     3    2
    43    23    26    1
    44    15    16   ar
    45    18     3    1
    46    18    17   ar
    47    16    17   ar
    48    16    19    1
    49    17    20    1
    50    20    21    1
