@<TRIPOS>MOLECULE
3uhw_HEM_A_1.pdb
 43 50 0 0 0
SMALL
GASTEIGER

@<TRIPOS>ATOM
      1  CHA       16.8120    9.6840   17.5260 C.2   147  HEM147      0.0000
      2  CHB       14.8360    8.5560   21.7720 C.2   147  HEM147      0.0000
      3  CHC       19.0730    6.8890   23.3160 C.2   147  HEM147      0.0000
      4  CHD       20.9770    7.6950   18.9690 C.2   147  HEM147      0.0000
      5  C1A       15.8670    9.3610   18.4860 C.2   147  HEM147      0.0000
      6  C2A       14.4720    9.7950   18.4390 C.2   147  HEM147      0.0000
      7  C3A       13.9320    9.4810   19.6460 C.2   147  HEM147      0.0000
      8  C4A       14.9800    8.8630   20.4310 C.2   147  HEM147      0.0000
      9  CMA       12.4570    9.6650   20.0310 C.3   147  HEM147      0.0000
     10  CAA       13.6680   10.3980   17.2730 C.3   147  HEM147      0.0000
     11  CBA       12.9810    9.3450   16.4040 C.3   147  HEM147      0.0000
     12  CGA       13.9660    8.5200   15.5930 C.2   147  HEM147      0.0000
     13  O1A       14.5580    9.0710   14.6410 O.co2 147  HEM147      0.0000
     14  O2A       14.1530    7.3260   15.9130 O.co2 147  HEM147      0.0000
     15  C1B       15.8160    7.9720   22.5360 C.ar  147  HEM147      0.0000
     16  C2B       15.6250    7.5890   23.9290 C.ar  147  HEM147      0.0000
     17  C3B       16.8090    7.1210   24.3950 C.ar  147  HEM147      0.0000
     18  C4B       17.7260    7.2120   23.2500 C.ar  147  HEM147      0.0000
     19  CMB       14.3020    7.6520   24.6960 C.3   147  HEM147      0.0000
     20  CAB       17.0760    6.5910   25.6680 C.3   147  HEM147      0.0000
     21  CBB       16.5270    7.0110   26.9490 C.3   147  HEM147      0.0000
     22  C1C       19.9240    6.8960   22.2260 C.2   147  HEM147      0.0000
     23  C2C       21.3400    6.5470   22.3360 C.2   147  HEM147      0.0000
     24  C3C       21.8920    6.7540   21.1070 C.2   147  HEM147      0.0000
     25  C4C       20.7780    7.2050   20.2470 C.2   147  HEM147      0.0000
     26  CMC       22.0580    6.0100   23.5870 C.3   147  HEM147      0.0000
     27  CAC       23.2370    6.6280   20.6970 C.3   147  HEM147      0.0000
     28  CBC       24.4000    6.1390   21.4110 C.3   147  HEM147      0.0000
     29  C1D       20.0050    8.3350   18.2280 C.ar  147  HEM147      0.0000
     30  C2D       20.3080    9.0770   17.0050 C.ar  147  HEM147      0.0000
     31  C3D       19.1690    9.7220   16.6400 C.ar  147  HEM147      0.0000
     32  C4D       18.1400    9.3110   17.6070 C.ar  147  HEM147      0.0000
     33  CMD       21.6500    9.1570   16.2520 C.3   147  HEM147      0.0000
     34  CAD       19.0390   10.7580   15.5120 C.3   147  HEM147      0.0000
     35  CBD       19.2760   12.1960   15.9690 C.3   147  HEM147      0.0000
     36  CGD       19.0290   13.2130   14.8690 C.2   147  HEM147      0.0000
     37  O1D       19.7480   13.1730   13.8490 O.co2 147  HEM147      0.0000
     38  O2D       18.1160   14.0530   15.0290 O.co2 147  HEM147      0.0000
     39  NA        16.1500    8.7060   19.6880 N.2   147  HEM147      0.0000
     40  NB        17.0900    7.6620   22.0940 N.ar  147  HEM147      0.0000
     41  NC        19.5750    7.2590   20.9310 N.2   147  HEM147      0.0000
     42  ND        18.6710    8.4810   18.6060 N.ar  147  HEM147      0.0000
     43 FE         17.7890    7.7280   20.2260 Fe    147  HEM147      0.0000
@<TRIPOS>BOND
     1    37    36   ar
     2    13    12   ar
     3    36    38   ar
     4    36    35    1
     5    34    35    1
     6    34    31    1
     7    12    14   ar
     8    12    11    1
     9    33    30    1
    10    11    10    1
    11    31    30   ar
    12    31    32   ar
    13    30    29   ar
    14    10     6    1
    15     1    32    2
    16     1     5    1
    17    32    42   ar
    18    29    42   ar
    19    29     4    2
    20     6     5    1
    21     6     7    2
    22     5    39    2
    23    42    43    1
    24     4    25    1
    25     7     9    1
    26     7     8    1
    27    39    43    1
    28    39     8    1
    29    43    41    1
    30    43    40    1
    31    25    41    2
    32    25    24    1
    33     8     2    2
    34    27    24    1
    35    27    28    1
    36    41    22    1
    37    24    23    2
    38     2    15    1
    39    40    15   ar
    40    40    18   ar
    41    22    23    1
    42    22     3    2
    43    23    26    1
    44    15    16   ar
    45    18     3    1
    46    18    17   ar
    47    16    17   ar
    48    16    19    1
    49    17    20    1
    50    20    21    1
