@<TRIPOS>MOLECULE
3uhx_HEM_A_1.pdb
 43 50 0 0 0
SMALL
GASTEIGER

@<TRIPOS>ATOM
      1  CHA       16.5210    9.7800   17.4320 C.2   147  HEM147      0.0000
      2  CHB       14.6070    8.6470   21.6950 C.2   147  HEM147      0.0000
      3  CHC       18.8730    6.9130   23.1710 C.2   147  HEM147      0.0000
      4  CHD       20.7240    7.8640   18.8270 C.2   147  HEM147      0.0000
      5  C1A       15.5790    9.4720   18.4090 C.2   147  HEM147      0.0000
      6  C2A       14.1740    9.8720   18.3640 C.2   147  HEM147      0.0000
      7  C3A       13.6590    9.5710   19.5760 C.2   147  HEM147      0.0000
      8  C4A       14.7270    8.9840   20.3600 C.2   147  HEM147      0.0000
      9  CMA       12.2040    9.7250   19.9960 C.3   147  HEM147      0.0000
     10  CAA       13.3820   10.4530   17.1920 C.3   147  HEM147      0.0000
     11  CBA       12.7340    9.3500   16.3690 C.3   147  HEM147      0.0000
     12  CGA       13.7540    8.4940   15.6450 C.2   147  HEM147      0.0000
     13  O1A       14.2730    8.9400   14.5970 O.co2 147  HEM147      0.0000
     14  O2A       14.0500    7.3800   16.1280 O.co2 147  HEM147      0.0000
     15  C1B       15.6140    8.0750   22.4670 C.ar  147  HEM147      0.0000
     16  C2B       15.4310    7.6700   23.8600 C.ar  147  HEM147      0.0000
     17  C3B       16.6260    7.1750   24.2790 C.ar  147  HEM147      0.0000
     18  C4B       17.5290    7.2670   23.1330 C.ar  147  HEM147      0.0000
     19  CMB       14.1180    7.7070   24.6420 C.3   147  HEM147      0.0000
     20  CAB       16.9450    6.6090   25.5170 C.3   147  HEM147      0.0000
     21  CBB       16.5060    7.0680   26.8100 C.3   147  HEM147      0.0000
     22  C1C       19.7200    6.9610   22.0810 C.2   147  HEM147      0.0000
     23  C2C       21.1270    6.6180   22.1510 C.2   147  HEM147      0.0000
     24  C3C       21.6740    6.8860   20.9290 C.2   147  HEM147      0.0000
     25  C4C       20.5620    7.3540   20.1050 C.2   147  HEM147      0.0000
     26  CMC       21.8220    6.0410   23.3820 C.3   147  HEM147      0.0000
     27  CAC       23.0010    6.7760   20.4880 C.3   147  HEM147      0.0000
     28  CBC       24.1680    6.3310   21.2130 C.3   147  HEM147      0.0000
     29  C1D       19.7520    8.5290   18.1090 C.ar  147  HEM147      0.0000
     30  C2D       20.0300    9.3080   16.9210 C.ar  147  HEM147      0.0000
     31  C3D       18.8750    9.8890   16.5630 C.ar  147  HEM147      0.0000
     32  C4D       17.8660    9.4530   17.5110 C.ar  147  HEM147      0.0000
     33  CMD       21.3590    9.5220   16.2040 C.3   147  HEM147      0.0000
     34  CAD       18.7170   10.8570   15.4030 C.3   147  HEM147      0.0000
     35  CBD       19.0570   12.2820   15.8220 C.3   147  HEM147      0.0000
     36  CGD       18.7870   13.2970   14.7310 C.2   147  HEM147      0.0000
     37  O1D       19.4990   13.2790   13.7060 O.co2 147  HEM147      0.0000
     38  O2D       17.8570   14.1140   14.8980 O.co2 147  HEM147      0.0000
     39  NA        15.8830    8.8570   19.6130 N.2   147  HEM147      0.0000
     40  NB        16.8880    7.7670   22.0070 N.ar  147  HEM147      0.0000
     41  NC        19.3610    7.3800   20.8080 N.2   147  HEM147      0.0000
     42  ND        18.4290    8.6480   18.4970 N.ar  147  HEM147      0.0000
     43 FE         17.5530    7.8640   20.1080 Fe    147  HEM147      0.0000
@<TRIPOS>BOND
     1    37    36   ar
     2    13    12   ar
     3    36    38   ar
     4    36    35    1
     5    34    35    1
     6    34    31    1
     7    12    14   ar
     8    12    11    1
     9    33    30    1
    10    11    10    1
    11    31    30   ar
    12    31    32   ar
    13    30    29   ar
    14    10     6    1
    15     1    32    2
    16     1     5    1
    17    32    42   ar
    18    29    42   ar
    19    29     4    2
    20     6     5    1
    21     6     7    2
    22     5    39    2
    23    42    43    1
    24     4    25    1
    25     7     9    1
    26     7     8    1
    27    39    43    1
    28    39     8    1
    29    25    41    2
    30    25    24    1
    31    43    41    1
    32    43    40    1
    33     8     2    2
    34    27    24    1
    35    27    28    1
    36    41    22    1
    37    24    23    2
    38     2    15    1
    39    40    15   ar
    40    40    18   ar
    41    22    23    1
    42    22     3    2
    43    23    26    1
    44    15    16   ar
    45    18     3    1
    46    18    17   ar
    47    16    17   ar
    48    16    19    1
    49    17    20    1
    50    20    21    1
