@<TRIPOS>MOLECULE
3uhy_HEM_A_1.pdb
 43 50 0 0 0
SMALL
GASTEIGER

@<TRIPOS>ATOM
      1  CHA       16.8740    9.7300   17.6570 C.2   147  HEM147      0.0000
      2  CHB       14.8590    8.5730   21.8870 C.2   147  HEM147      0.0000
      3  CHC       19.1460    6.9600   23.5050 C.2   147  HEM147      0.0000
      4  CHD       21.0400    7.7270   19.0960 C.2   147  HEM147      0.0000
      5  C1A       15.9220    9.4800   18.6360 C.2   147  HEM147      0.0000
      6  C2A       14.5350    9.8980   18.5630 C.2   147  HEM147      0.0000
      7  C3A       13.9860    9.5890   19.7550 C.2   147  HEM147      0.0000
      8  C4A       15.0220    8.9910   20.5710 C.2   147  HEM147      0.0000
      9  CMA       12.5120    9.7660   20.0970 C.3   147  HEM147      0.0000
     10  CAA       13.7590   10.5230   17.4010 C.3   147  HEM147      0.0000
     11  CBA       13.0260    9.5390   16.4960 C.3   147  HEM147      0.0000
     12  CGA       13.9680    8.7290   15.6250 C.2   147  HEM147      0.0000
     13  O1A       14.6740    9.3380   14.7890 O.co2 147  HEM147      0.0000
     14  O2A       14.0000    7.4860   15.7750 O.co2 147  HEM147      0.0000
     15  C1B       15.8340    7.9790   22.6820 C.ar  147  HEM147      0.0000
     16  C2B       15.6120    7.5660   24.0540 C.ar  147  HEM147      0.0000
     17  C3B       16.8220    7.1550   24.5290 C.ar  147  HEM147      0.0000
     18  C4B       17.7790    7.3020   23.4410 C.ar  147  HEM147      0.0000
     19  CMB       14.2580    7.5400   24.7750 C.3   147  HEM147      0.0000
     20  CAB       17.1080    6.5960   25.7750 C.3   147  HEM147      0.0000
     21  CBB       16.5670    7.0000   27.0480 C.3   147  HEM147      0.0000
     22  C1C       20.0330    6.9660   22.4220 C.2   147  HEM147      0.0000
     23  C2C       21.4410    6.6420   22.5050 C.2   147  HEM147      0.0000
     24  C3C       21.9860    6.8520   21.2600 C.2   147  HEM147      0.0000
     25  C4C       20.8820    7.2760   20.4140 C.2   147  HEM147      0.0000
     26  CMC       22.1410    6.1690   23.7810 C.3   147  HEM147      0.0000
     27  CAC       23.3070    6.7280   20.8130 C.3   147  HEM147      0.0000
     28  CBC       24.4450    6.3020   21.5790 C.3   147  HEM147      0.0000
     29  C1D       20.0780    8.4060   18.3570 C.ar  147  HEM147      0.0000
     30  C2D       20.3620    9.1030   17.1250 C.ar  147  HEM147      0.0000
     31  C3D       19.2230    9.7360   16.7580 C.ar  147  HEM147      0.0000
     32  C4D       18.2140    9.3880   17.7500 C.ar  147  HEM147      0.0000
     33  CMD       21.7020    9.1500   16.3890 C.3   147  HEM147      0.0000
     34  CAD       19.0730   10.6950   15.5800 C.3   147  HEM147      0.0000
     35  CBD       19.3250   12.1290   16.0210 C.3   147  HEM147      0.0000
     36  CGD       19.0940   13.1330   14.9110 C.2   147  HEM147      0.0000
     37  O1D       19.7700   13.0270   13.8660 O.co2 147  HEM147      0.0000
     38  O2D       18.2390   14.0270   15.0860 O.co2 147  HEM147      0.0000
     39  NA        16.2000    8.8690   19.8580 N.2   147  HEM147      0.0000
     40  NB        17.1450    7.7470   22.2990 N.ar  147  HEM147      0.0000
     41  NC        19.7010    7.3440   21.1360 N.2   147  HEM147      0.0000
     42  ND        18.7740    8.6120   18.7600 N.ar  147  HEM147      0.0000
     43 FE         17.9030    7.8780   20.4410 Fe    147  HEM147      0.0000
@<TRIPOS>BOND
     1    37    36   ar
     2    13    12   ar
     3    36    38   ar
     4    36    35    1
     5    34    35    1
     6    34    31    1
     7    12    14   ar
     8    12    11    1
     9    33    30    1
    10    11    10    1
    11    31    30   ar
    12    31    32   ar
    13    30    29   ar
    14    10     6    1
    15     1    32    2
    16     1     5    1
    17    32    42   ar
    18    29    42   ar
    19    29     4    2
    20     6     5    1
    21     6     7    2
    22     5    39    2
    23    42    43    1
    24     4    25    1
    25     7     9    1
    26     7     8    1
    27    39    43    1
    28    39     8    1
    29    25    41    2
    30    25    24    1
    31    43    41    1
    32    43    40    1
    33     8     2    2
    34    27    24    1
    35    27    28    1
    36    41    22    1
    37    24    23    2
    38     2    15    1
    39    40    15   ar
    40    40    18   ar
    41    22    23    1
    42    22     3    2
    43    23    26    1
    44    15    16   ar
    45    18     3    1
    46    18    17   ar
    47    16    17   ar
    48    16    19    1
    49    17    20    1
    50    20    21    1
