@<TRIPOS>MOLECULE
3uhz_HEM_A_1.pdb
 43 50 0 0 0
SMALL
GASTEIGER

@<TRIPOS>ATOM
      1  CHA       16.7710    9.5170   17.5780 C.2   147  HEM147      0.0000
      2  CHB       14.8210    8.4880   21.8700 C.2   147  HEM147      0.0000
      3  CHC       19.0290    6.7270   23.4210 C.2   147  HEM147      0.0000
      4  CHD       20.9300    7.5120   19.0240 C.2   147  HEM147      0.0000
      5  C1A       15.8380    9.2570   18.5770 C.2   147  HEM147      0.0000
      6  C2A       14.4620    9.7390   18.5510 C.2   147  HEM147      0.0000
      7  C3A       13.9300    9.4530   19.7530 C.2   147  HEM147      0.0000
      8  C4A       14.9760    8.8400   20.5430 C.2   147  HEM147      0.0000
      9  CMA       12.4670    9.6390   20.1500 C.3   147  HEM147      0.0000
     10  CAA       13.7010   10.4310   17.4220 C.3   147  HEM147      0.0000
     11  CBA       12.9430    9.4510   16.5410 C.3   147  HEM147      0.0000
     12  CGA       13.8640    8.6020   15.6870 C.2   147  HEM147      0.0000
     13  O1A       14.4710    9.1520   14.7440 O.co2 147  HEM147      0.0000
     14  O2A       13.9870    7.3900   15.9610 O.co2 147  HEM147      0.0000
     15  C1B       15.7730    7.8330   22.6300 C.ar  147  HEM147      0.0000
     16  C2B       15.5470    7.4100   24.0090 C.ar  147  HEM147      0.0000
     17  C3B       16.7380    6.9610   24.4830 C.ar  147  HEM147      0.0000
     18  C4B       17.6790    7.0600   23.3540 C.ar  147  HEM147      0.0000
     19  CMB       14.1870    7.3590   24.7090 C.3   147  HEM147      0.0000
     20  CAB       17.0150    6.4480   25.7500 C.3   147  HEM147      0.0000
     21  CBB       16.4200    6.8660   27.0000 C.3   147  HEM147      0.0000
     22  C1C       19.9010    6.7540   22.3380 C.2   147  HEM147      0.0000
     23  C2C       21.3060    6.3830   22.4290 C.2   147  HEM147      0.0000
     24  C3C       21.8520    6.5800   21.1880 C.2   147  HEM147      0.0000
     25  C4C       20.7510    7.0480   20.3330 C.2   147  HEM147      0.0000
     26  CMC       22.0090    5.8750   23.6920 C.3   147  HEM147      0.0000
     27  CAC       23.1810    6.4470   20.7660 C.3   147  HEM147      0.0000
     28  CBC       24.3560    6.2070   21.5710 C.3   147  HEM147      0.0000
     29  C1D       19.9660    8.1730   18.2750 C.ar  147  HEM147      0.0000
     30  C2D       20.2620    8.9220   17.0580 C.ar  147  HEM147      0.0000
     31  C3D       19.1270    9.5480   16.6940 C.ar  147  HEM147      0.0000
     32  C4D       18.1070    9.1460   17.6610 C.ar  147  HEM147      0.0000
     33  CMD       21.6090    9.0420   16.3450 C.3   147  HEM147      0.0000
     34  CAD       18.9780   10.5690   15.5650 C.3   147  HEM147      0.0000
     35  CBD       19.3120   11.9940   15.9950 C.3   147  HEM147      0.0000
     36  CGD       19.0270   13.0210   14.9110 C.2   147  HEM147      0.0000
     37  O1D       19.6480   12.9410   13.8300 O.co2 147  HEM147      0.0000
     38  O2D       18.1810   13.9120   15.1410 O.co2 147  HEM147      0.0000
     39  NA        16.1330    8.6500   19.7970 N.2   147  HEM147      0.0000
     40  NB        17.0540    7.5280   22.2000 N.ar  147  HEM147      0.0000
     41  NC        19.5530    7.1360   21.0400 N.2   147  HEM147      0.0000
     42  ND        18.6440    8.3420   18.6700 N.ar  147  HEM147      0.0000
     43 FE         17.7600    7.6240   20.3290 Fe    147  HEM147      0.0000
@<TRIPOS>BOND
     1    37    36   ar
     2    13    12   ar
     3    36    38   ar
     4    36    35    1
     5    34    35    1
     6    34    31    1
     7    12    14   ar
     8    12    11    1
     9    33    30    1
    10    11    10    1
    11    31    30   ar
    12    31    32   ar
    13    30    29   ar
    14    10     6    1
    15     1    32    2
    16     1     5    1
    17    32    42   ar
    18    29    42   ar
    19    29     4    2
    20     6     5    1
    21     6     7    2
    22     5    39    2
    23    42    43    1
    24     4    25    1
    25     7     9    1
    26     7     8    1
    27    39    43    1
    28    39     8    1
    29    43    41    1
    30    43    40    1
    31    25    41    2
    32    25    24    1
    33     8     2    2
    34    27    24    1
    35    27    28    1
    36    41    22    1
    37    24    23    2
    38     2    15    1
    39    40    15   ar
    40    40    18   ar
    41    22    23    1
    42    22     3    2
    43    23    26    1
    44    15    16   ar
    45    18     3    1
    46    18    17   ar
    47    16    17   ar
    48    16    19    1
    49    17    20    1
    50    20    21    1
