@<TRIPOS>MOLECULE
3ui0_HEM_A_1.pdb
 43 50 0 0 0
SMALL
GASTEIGER

@<TRIPOS>ATOM
      1  CHA       16.6470    9.5920   17.4810 C.2   147  HEM147      0.0000
      2  CHB       14.7190    8.5550   21.7810 C.2   147  HEM147      0.0000
      3  CHC       18.9840    6.8140   23.2840 C.2   147  HEM147      0.0000
      4  CHD       20.8440    7.6790   18.9120 C.2   147  HEM147      0.0000
      5  C1A       15.7270    9.3120   18.4810 C.2   147  HEM147      0.0000
      6  C2A       14.3420    9.7360   18.4190 C.2   147  HEM147      0.0000
      7  C3A       13.8120    9.4770   19.6350 C.2   147  HEM147      0.0000
      8  C4A       14.8680    8.8970   20.4460 C.2   147  HEM147      0.0000
      9  CMA       12.3630    9.7410   20.0310 C.3   147  HEM147      0.0000
     10  CAA       13.5930   10.3540   17.2400 C.3   147  HEM147      0.0000
     11  CBA       12.9130    9.2990   16.3780 C.3   147  HEM147      0.0000
     12  CGA       13.9030    8.4490   15.6020 C.2   147  HEM147      0.0000
     13  O1A       14.5550    8.9870   14.6830 O.co2 147  HEM147      0.0000
     14  O2A       14.0360    7.2480   15.9110 O.co2 147  HEM147      0.0000
     15  C1B       15.7150    7.9480   22.5430 C.ar  147  HEM147      0.0000
     16  C2B       15.5250    7.5250   23.9240 C.ar  147  HEM147      0.0000
     17  C3B       16.7250    7.0610   24.3800 C.ar  147  HEM147      0.0000
     18  C4B       17.6390    7.1830   23.2390 C.ar  147  HEM147      0.0000
     19  CMB       14.1910    7.5560   24.6760 C.3   147  HEM147      0.0000
     20  CAB       17.0570    6.5140   25.6270 C.3   147  HEM147      0.0000
     21  CBB       16.4430    6.8290   26.8940 C.3   147  HEM147      0.0000
     22  C1C       19.8360    6.8340   22.1950 C.2   147  HEM147      0.0000
     23  C2C       21.2550    6.4930   22.2620 C.2   147  HEM147      0.0000
     24  C3C       21.7990    6.7350   21.0350 C.2   147  HEM147      0.0000
     25  C4C       20.6820    7.1890   20.2040 C.2   147  HEM147      0.0000
     26  CMC       21.9500    5.9770   23.5200 C.3   147  HEM147      0.0000
     27  CAC       23.1350    6.6700   20.5950 C.3   147  HEM147      0.0000
     28  CBC       24.3100    6.2890   21.3400 C.3   147  HEM147      0.0000
     29  C1D       19.8740    8.3540   18.1960 C.ar  147  HEM147      0.0000
     30  C2D       20.1590    9.1390   17.0150 C.ar  147  HEM147      0.0000
     31  C3D       19.0020    9.7180   16.6490 C.ar  147  HEM147      0.0000
     32  C4D       17.9850    9.2630   17.5810 C.ar  147  HEM147      0.0000
     33  CMD       21.5080    9.3210   16.3160 C.3   147  HEM147      0.0000
     34  CAD       18.8320   10.7150   15.5090 C.3   147  HEM147      0.0000
     35  CBD       19.2070   12.1230   15.9490 C.3   147  HEM147      0.0000
     36  CGD       19.0050   13.1520   14.8560 C.2   147  HEM147      0.0000
     37  O1D       19.7040   13.0730   13.8250 O.co2 147  HEM147      0.0000
     38  O2D       18.1460   14.0410   15.0290 O.co2 147  HEM147      0.0000
     39  NA        16.0270    8.7210   19.7000 N.2   147  HEM147      0.0000
     40  NB        16.9940    7.6540   22.0930 N.ar  147  HEM147      0.0000
     41  NC        19.4760    7.2330   20.9150 N.2   147  HEM147      0.0000
     42  ND        18.5400    8.4690   18.5860 N.ar  147  HEM147      0.0000
     43 FE         17.6690    7.6900   20.2050 Fe    147  HEM147      0.0000
@<TRIPOS>BOND
     1    37    36   ar
     2    13    12   ar
     3    36    38   ar
     4    36    35    1
     5    34    35    1
     6    34    31    1
     7    12    14   ar
     8    12    11    1
     9    33    30    1
    10    11    10    1
    11    31    30   ar
    12    31    32   ar
    13    30    29   ar
    14    10     6    1
    15     1    32    2
    16     1     5    1
    17    32    42   ar
    18    29    42   ar
    19    29     4    2
    20     6     5    1
    21     6     7    2
    22     5    39    2
    23    42    43    1
    24     4    25    1
    25     7     9    1
    26     7     8    1
    27    39    43    1
    28    39     8    1
    29    25    41    2
    30    25    24    1
    31    43    41    1
    32    43    40    1
    33     8     2    2
    34    27    24    1
    35    27    28    1
    36    41    22    1
    37    24    23    2
    38     2    15    1
    39    40    15   ar
    40    40    18   ar
    41    22    23    1
    42    22     3    2
    43    23    26    1
    44    15    16   ar
    45    18     3    1
    46    18    17   ar
    47    16    17   ar
    48    16    19    1
    49    17    20    1
    50    20    21    1
