@<TRIPOS>MOLECULE
3ui7_C1L_A_1.pdb
 24 27 0 0 0
SMALL
GASTEIGER

@<TRIPOS>ATOM
      1  C5         4.7120   11.6700   41.9390 C.2     1  C1L1        0.0216
      2  C14        4.2680   13.1580   40.0810 C.2     1  C1L1        0.0346
      3  C2         4.3290   12.6840   42.8390 C.3     1  C1L1        0.0982
      4  C3         3.9330   13.4970   45.0860 C.2     1  C1L1        0.0849
      5  C9         3.8750   14.2240   40.9500 C.2     1  C1L1        0.0081
      6  C1         4.3360   12.4260   44.2450 C.2     1  C1L1       -0.0062
      7  C4         3.8950   13.9890   42.3430 C.2     1  C1L1        0.1241
      8  C10        4.7180   11.8920   40.5600 C.2     1  C1L1        0.1350
      9  C7         3.7670   13.7350   46.4610 C.2     1  C1L1        0.0914
     10  C6         3.5790   14.7200   44.4830 C.1     1  C1L1        0.1070
     11  C20        6.9260    9.6660   44.6200 C.3     1  C1L1        0.1049
     12  C24        7.2050   12.0610   45.1010 C.3     1  C1L1        0.1049
     13  C21        8.3270    9.6300   44.0100 C.3     1  C1L1        0.1595
     14  C23        8.5980   11.9670   44.4980 C.3     1  C1L1        0.1595
     15  C17        3.4510   15.5810   40.3610 C.3     1  C1L1        0.0335
     16  C13        4.0890   12.8090   47.5840 C.3     1  C1L1        0.0548
     17  C16        6.2930   10.1990   39.9390 C.3     1  C1L1        0.2525
     18  C18        4.8860   11.1080   44.7910 C.3     1  C1L1        0.0964
     19  N8         3.5030   14.9990   43.1550 N.2     1  C1L1       -0.3529
     20  N11        3.2560   15.5600   45.4880 N.2     1  C1L1       -0.0821
     21  N12        3.3640   15.0060   46.6920 N.2     1  C1L1       -0.1420
     22  N19        6.3640   11.0150   44.5020 N.3     1  C1L1       -0.2649
     23  O22        9.1580   10.6270   44.5950 O.3     1  C1L1       -0.3508
     24  O15        5.1110   10.9470   39.6320 O.2     1  C1L1       -0.4717
@<TRIPOS>BOND
     1    24    17    1
     2    24     8    1
     3     2     8    1
     4     2     5    2
     5    15     5    1
     6     8     1    2
     7     5     7    1
     8     1     3    1
     9     7     3    1
    10     7    19    2
    11     3     6    1
    12    19    10    2
    13    13    23    1
    14    13    11    1
    15     6    18    1
    16     6     4    2
    17    10     4    1
    18    10    20    2
    19    14    23    1
    20    14    12    1
    21    22    11    1
    22    22    18    1
    23    22    12    1
    24     4     9    1
    25    20    21    1
    26     9    21    2
    27     9    16    1
