@<TRIPOS>MOLECULE
3uib_SB2_A_1.pdb
 27 30 0 0 0
SMALL
GASTEIGER

@<TRIPOS>ATOM
      1  O2         1.3670   34.6210   43.5590 O.2   362  SB2362     -0.2514
      2  C1        -0.6580   32.6530   42.6730 C.3   362  SB2362      0.1110
      3  S1         0.4750   33.9690   42.1390 S.O   362  SB2362      0.0658
      4  CA1        3.1340   31.0370   41.3110 C.ar  362  SB2362      0.0126
      5  CA2        2.1080   31.7740   41.9020 C.ar  362  SB2362      0.0094
      6  CA3        1.7720   33.0310   41.3960 C.ar  362  SB2362      0.0562
      7  CA4        2.4680   33.5480   40.2970 C.ar  362  SB2362      0.0094
      8  CA5        3.4960   32.8100   39.7050 C.ar  362  SB2362      0.0126
      9  CA6        3.8340   31.5520   40.2160 C.ar  362  SB2362      0.0856
     10  NB1        8.8020   30.9710   34.7200 N.ar  362  SB2362     -0.2423
     11  CB2        8.3880   29.7240   35.0050 C.ar  362  SB2362      0.0990
     12  CB3        7.6170   29.4700   36.1420 C.ar  362  SB2362      0.0233
     13  CB4        7.2760   30.5230   36.9910 C.ar  362  SB2362      0.0362
     14  CB5        7.7180   31.8100   36.6740 C.ar  362  SB2362      0.0233
     15  CB6        8.4870   32.0070   35.5210 C.ar  362  SB2362      0.0990
     16  NC1        5.5350   31.1900   38.5230 N.2   362  SB2362     -0.3372
     17  CC2        4.9200   30.7160   39.6250 C.1   362  SB2362      0.1379
     18  NC3        5.3860   29.5130   40.0310 N.2   362  SB2362     -0.3372
     19  CC4        6.3680   29.1490   39.1880 C.2   362  SB2362      0.1740
     20  CC5        6.4470   30.2600   38.2060 C.2   362  SB2362      0.1741
     21  CD1        8.5170   27.8320   39.0090 C.ar  362  SB2362      0.0050
     22  CD2        9.1870   26.6050   39.0850 C.ar  362  SB2362      0.0297
     23  CD3        8.4830   25.4370   39.4090 C.ar  362  SB2362      0.1401
     24  CD4        7.1140   25.4900   39.6680 C.ar  362  SB2362      0.0297
     25  CD5        6.4470   26.7110   39.5900 C.ar  362  SB2362      0.0050
     26  CD6        7.1420   27.8780   39.2600 C.ar  362  SB2362      0.0333
     27  FD3        9.1160   24.2560   39.4810 F     362  SB2362     -0.2042
@<TRIPOS>BOND
     1    10    11   ar
     2    10    15   ar
     3    11    12   ar
     4    15    14   ar
     5    12    13   ar
     6    14    13   ar
     7    13    20    1
     8    20    16    2
     9    20    19    1
    10    16    17    2
    11    21    22   ar
    12    21    26   ar
    13    22    23   ar
    14    19    26    1
    15    19    18    2
    16    26    25   ar
    17    23    27    1
    18    23    24   ar
    19    25    24   ar
    20    17    18    2
    21    17     9    1
    22     8     9   ar
    23     8     7   ar
    24     9     4   ar
    25     7     6   ar
    26     4     5   ar
    27     6     5   ar
    28     6     3    1
    29     3     2    1
    30     3     1    2
