@<TRIPOS>MOLECULE
3uic_NAD_A_1.pdb
 44 48 0 0 0
SMALL
GASTEIGER

@<TRIPOS>ATOM
      1  PA        45.8470    7.1160   16.4080 P.3   261  NAD261      0.2189
      2  O1A       45.8900    8.3870   17.1800 O.3   261  NAD261     -0.4371
      3  O2A       46.9410    6.1380   16.7020 O.2   261  NAD261     -0.5170
      4  O5B       45.8570    7.3770   14.8300 O.3   261  NAD261     -0.3112
      5  C5B       45.6900    8.7780   14.5020 C.3   261  NAD261      0.1813
      6  C4B       46.6800    8.9970   13.3390 C.3   261  NAD261      0.1821
      7  O4B       46.2250   10.1480   12.5990 O.3   261  NAD261     -0.3135
      8  C3B       48.1540    9.1920   13.7400 C.3   261  NAD261      0.2184
      9  O3B       49.0870    8.2460   13.2040 O.3   261  NAD261     -0.2174
     10  C2B       48.4450   10.6050   13.2880 C.3   261  NAD261      0.2570
     11  O2B       49.8700   10.6190   12.9960 O.3   261  NAD261     -0.2130
     12  C1B       47.4020   10.7850   12.1820 C.3   261  NAD261      0.3186
     13  N9A       47.0820   12.1930   11.7800 N.pl3 261  NAD261     -0.1439
     14  C8A       46.3080   13.1650   12.3490 C.3   261  NAD261      0.3377
     15  N7A       46.3120   14.2840   11.6390 N.2   261  NAD261     -0.2095
     16  C5A       47.1310   13.9340   10.5870 C.2   261  NAD261      0.2526
     17  C6A       47.5640   14.6950    9.4310 C.2   261  NAD261      0.4393
     18  N6A       47.1690   15.9040    9.2720 N.pl3 261  NAD261      0.2180
     19  N1A       48.4170   14.1330    8.4770 N.2   261  NAD261      0.0021
     20  C2A       48.8600   12.8310    8.6130 C.3   261  NAD261      0.5254
     21  N3A       48.4640   12.0940    9.6930 N.2   261  NAD261     -0.0055
     22  C4A       47.6150   12.6300   10.6740 C.2   261  NAD261      0.3518
     23  O3        44.2980    6.6610   16.5170 O.3   261  NAD261     -0.2703
     24  PN        43.6450    5.3950   15.8840 P.3   261  NAD261      0.2189
     25  O1N       42.3850    4.9340   16.4490 O.3   261  NAD261     -0.4371
     26  O2N       44.7660    4.4160   15.6800 O.2   261  NAD261     -0.5170
     27  O5D       43.1300    5.8970   14.4760 O.3   261  NAD261     -0.3112
     28  C5D       43.6200    5.5330   13.2210 C.3   261  NAD261      0.1813
     29  C4D       42.3240    5.5850   12.4430 C.3   261  NAD261      0.1799
     30  O4D       41.4290    4.5380   12.8750 O.3   261  NAD261     -0.3327
     31  C3D       41.4070    6.7870   12.4330 C.3   261  NAD261      0.2158
     32  O3D       40.7900    6.7700   11.1280 O.3   261  NAD261     -0.2175
     33  C2D       40.2680    6.4550   13.2990 C.3   261  NAD261      0.2309
     34  O2D       39.0730    7.1950   12.9670 O.3   261  NAD261     -0.2158
     35  C1D       40.0430    5.0250   12.9270 C.3   261  NAD261      0.2263
     36  N1N       39.0810    4.4520   13.9110 N.pl3 261  NAD261     -0.2787
     37  C2N       39.5460    4.4160   15.3050 C.3   261  NAD261      0.1244
     38  C3N       38.6550    3.8990   16.2650 C.2   261  NAD261      0.0544
     39  C7N       39.1230    3.9460   17.7190 C.2   261  NAD261      0.2818
     40  O7N       38.2430    3.6280   18.5180 O.2   261  NAD261     -0.2670
     41  N7N       40.3710    4.2960   18.0370 N.am  261  NAD261     -0.0839
     42  C4N       37.3530    3.4310   15.8940 C.2   261  NAD261      0.0033
     43  C5N       36.9240    3.4660   14.5590 C.2   261  NAD261      0.0157
     44  C6N       37.7630    3.9760   13.5760 C.2   261  NAD261      0.0633
@<TRIPOS>BOND
     1    19    20    1
     2    19    17    2
     3    20    21    1
     4    18    17    1
     5    17    16    1
     6    21    22    2
     7    16    22    1
     8    16    15    2
     9    22    13    1
    10    32    31    1
    11    15    14    1
    12    13    12    1
    13    13    14    1
    14    12     7    1
    15    12    10    1
    16    31    29    1
    17    31    33    1
    18    29    30    1
    19    29    28    1
    20     7     6    1
    21    30    35    1
    22    35    33    1
    23    35    36    1
    24    34    33    1
    25    11    10    1
    26     9     8    1
    27    28    27    1
    28    10     8    1
    29     6     8    1
    30     6     5    1
    31    44    36    1
    32    44    43    2
    33    36    37    1
    34    27    24    1
    35     5     4    1
    36    43    42    1
    37     4     1    1
    38    37    38    1
    39    26    24    2
    40    24    25    1
    41    24    23    1
    42    42    38    2
    43    38    39    1
    44     1    23    1
    45     1     3    2
    46     1     2    1
    47    39    41   am
    48    39    40    2
