@<TRIPOS>MOLECULE
3uic_09T_A_1.pdb
 20 22 0 0 0
SMALL
GASTEIGER

@<TRIPOS>ATOM
      1  C4        35.0100    6.4340   19.0940 C.ar  262  09T262     -0.0020
      2  C5        35.9690    7.4450   19.1620 C.ar  262  09T262     -0.0052
      3  C6        35.6610    8.7030   19.6290 C.ar  262  09T262      0.0093
      4  C7        34.3530    8.9290   19.9970 C.ar  262  09T262      0.0679
      5  N12       37.8590    8.2570   15.2540 N.2   262  09T262     -0.2550
      6  C13       38.3610    9.3220   15.8970 C.2   262  09T262      0.0737
      7  C15       39.3020   11.4730   16.3470 C.2   262  09T262     -0.0248
      8  C17       39.1770   11.2660   17.7090 C.2   262  09T262     -0.0283
      9  C20       38.2280    9.0860   17.2710 C.3   262  09T262      0.1216
     10 CL8        33.8530   10.5560   20.5830 Cl    262  09T262     -0.0814
     11  C2        33.3810    7.9220   19.9250 C.ar  262  09T262      0.0682
     12 CL1        31.6720    8.3050   20.4410 Cl    262  09T262     -0.0814
     13  C3        33.7070    6.6530   19.4720 C.ar  262  09T262      0.0120
     14  C9        37.3750    7.1500   18.7230 C.3   262  09T262      0.1012
     15  N10       37.6790    7.8350   17.4500 N.3   262  09T262     -0.2408
     16  C11       37.4570    7.3490   16.2120 C.3   262  09T262      0.2013
     17  C19       38.6520   10.0850   18.1560 C.2   262  09T262     -0.0090
     18  C18       39.6310   12.3100   18.6770 C.3   262  09T262      0.0304
     19  C16       39.9080   12.7410   15.8300 C.3   262  09T262      0.0307
     20  C14       38.9140   10.5040   15.4430 C.2   262  09T262      0.0114
@<TRIPOS>BOND
     1     5     6    2
     2     5    16    1
     3    20     6    1
     4    20     7    2
     5    19     7    1
     6     6     9    1
     7    16    15    1
     8     7     8    1
     9     9    15    1
    10     9    17    1
    11    15    14    1
    12     8    17    2
    13     8    18    1
    14    14     2    1
    15     1     2   ar
    16     1    13   ar
    17     2     3   ar
    18    13    11   ar
    19     3     4   ar
    20    11     4   ar
    21    11    12    1
    22     4    10    1
