@<TRIPOS>MOLECULE
3uie_ANP_A_1.pdb
 31 33 0 0 0
SMALL
GASTEIGER

@<TRIPOS>ATOM
      1  PG        15.2930   -5.2990  -13.1880 P.3   402  ANP402      0.4884
      2  O1G       16.2420   -6.5940  -13.0440 O.3   402  ANP402     -0.1240
      3  O2G       15.2330   -4.6830  -11.7860 O.3   402  ANP402     -0.1240
      4  O3G       13.9270   -5.7220  -13.6730 O.2   402  ANP402     -0.2331
      5  PB        15.3050   -2.7560  -14.6570 P.3   402  ANP402      0.4669
      6  O1B       14.9420   -1.9250  -13.3760 O.3   402  ANP402     -0.1253
      7  O2B       14.2620   -2.8470  -15.7970 O.2   402  ANP402     -0.2351
      8  N3B       16.1010   -4.1830  -14.1630 N.3   402  ANP402     -0.0163
      9  PA        17.4330   -0.7810  -14.4190 P.3   402  ANP402      0.2220
     10  O1A       18.0570   -1.2780  -13.1630 O.3   402  ANP402     -0.4370
     11  O2A       16.6150    0.4550  -14.2330 O.2   402  ANP402     -0.5170
     12  O3A       16.6570   -1.9770  -15.0770 O.3   402  ANP402     -0.2360
     13  O5'       18.5320   -0.4790  -15.5120 O.3   402  ANP402     -0.3111
     14  C5'       19.4760   -1.4160  -15.9030 C.3   402  ANP402      0.1813
     15  C4'       20.6920   -0.8590  -16.3900 C.3   402  ANP402      0.1821
     16  O4'       20.4560   -0.1570  -17.6500 O.3   402  ANP402     -0.3135
     17  C3'       21.1450    0.1340  -15.4100 C.3   402  ANP402      0.2184
     18  O3'       22.4970   -0.1030  -15.0820 O.3   402  ANP402     -0.2174
     19  C2'       20.9840    1.4360  -16.0420 C.3   402  ANP402      0.2570
     20  O2'       22.1150    2.2420  -15.8580 O.3   402  ANP402     -0.2130
     21  C1'       20.8140    1.1680  -17.4890 C.3   402  ANP402      0.3186
     22  N9        19.8070    2.0820  -18.0460 N.pl3 402  ANP402     -0.1439
     23  C8        18.6310    2.3530  -17.4640 C.3   402  ANP402      0.3377
     24  N7        17.9850    3.2110  -18.2410 N.2   402  ANP402     -0.2095
     25  C5        18.7520    3.4920  -19.3120 C.2   402  ANP402      0.2526
     26  C6        18.5670    4.3180  -20.4110 C.2   402  ANP402      0.4393
     27  N6        17.3410    5.0930  -20.5370 N.pl3 402  ANP402      0.2180
     28  N1        19.5400    4.3820  -21.3320 N.2   402  ANP402      0.0021
     29  C2        20.6690    3.6610  -21.1940 C.3   402  ANP402      0.5254
     30  N3        20.8780    2.8660  -20.1520 N.2   402  ANP402     -0.0055
     31  C4        19.9310    2.7650  -19.1930 C.2   402  ANP402      0.3518
@<TRIPOS>BOND
     1    28    29    1
     2    28    26    2
     3    29    30    1
     4    27    26    1
     5    26    25    1
     6    30    31    2
     7    25    31    1
     8    25    24    2
     9    31    22    1
    10    24    23    1
    11    22    21    1
    12    22    23    1
    13    16    21    1
    14    16    15    1
    15    21    19    1
    16    15    14    1
    17    15    17    1
    18    19    20    1
    19    19    17    1
    20    14    13    1
    21     7     5    2
    22    13     9    1
    23    17    18    1
    24    12     5    1
    25    12     9    1
    26     5     8    1
    27     5     6    1
    28     9    11    2
    29     9    10    1
    30     8     1    1
    31     4     1    2
    32     1     2    1
    33     1     3    1
