@<TRIPOS>MOLECULE
3uie_ADX_A_1.pdb
 27 29 0 0 0
SMALL
GASTEIGER

@<TRIPOS>ATOM
      1  SB         8.2740  -10.5260  -11.5760 S.3   401  ADX401      0.0049
      2  O1B        7.7310  -11.3010  -10.4960 O.3   401  ADX401     -0.2679
      3  O2B        8.3490  -11.3820  -12.7820 O.2   401  ADX401     -0.3449
      4  O3B        7.4220   -9.3620  -11.8920 O.2   401  ADX401     -0.3449
      5  PA        10.1110   -8.8980  -10.2730 P.3   401  ADX401      0.2383
      6  O1A        9.2320   -8.8780   -9.0500 O.3   401  ADX401     -0.4361
      7  O2A       10.1750   -7.5390  -10.9530 O.2   401  ADX401     -0.5161
      8  O3A        9.6780  -10.0710  -11.2640 O.3   401  ADX401     -0.1945
      9  O5'       11.5540   -9.3120   -9.7910 O.3   401  ADX401     -0.3102
     10  C5'       12.6390   -9.1610  -10.6560 C.3   401  ADX401      0.1814
     11  C4'       13.9280   -9.0380  -10.0280 C.3   401  ADX401      0.1821
     12  O4'       14.2410  -10.2540   -9.3570 O.3   401  ADX401     -0.3135
     13  C3'       14.9570   -8.8280  -11.0790 C.3   401  ADX401      0.2184
     14  O3'       15.6400   -7.6460  -10.8010 O.3   401  ADX401     -0.2174
     15  C2'       15.8900   -9.8690  -10.9370 C.3   401  ADX401      0.2570
     16  O2'       17.0490   -9.2660  -10.4670 O.3   401  ADX401     -0.2130
     17  C1'       15.4240  -10.7830   -9.8730 C.3   401  ADX401      0.3186
     18  N9        15.3080  -12.1410  -10.3320 N.pl3 401  ADX401     -0.1439
     19  C8        15.7450  -13.2400   -9.6740 C.3   401  ADX401      0.3377
     20  N7        15.3890  -14.3340  -10.3710 N.2   401  ADX401     -0.2095
     21  C5        14.7250  -13.9280  -11.4740 C.2   401  ADX401      0.2526
     22  C6        14.1290  -14.5970  -12.5610 C.2   401  ADX401      0.4393
     23  N6        14.1500  -16.0240  -12.6180 N.pl3 401  ADX401      0.2180
     24  N1        13.5320  -13.8830  -13.5480 N.2   401  ADX401      0.0021
     25  C2        13.5010  -12.5410  -13.4910 C.3   401  ADX401      0.5254
     26  N3        14.0630  -11.8690  -12.4600 N.2   401  ADX401     -0.0055
     27  C4        14.6710  -12.5280  -11.4490 C.2   401  ADX401      0.3518
@<TRIPOS>BOND
     1    24    25    1
     2    24    22    2
     3    25    26    1
     4     3     1    2
     5    23    22    1
     6    22    21    1
     7    26    27    2
     8     4     1    2
     9     1     8    1
    10     1     2    1
    11    21    27    1
    12    21    20    2
    13    27    18    1
    14     8     5    1
    15    13    15    1
    16    13    14    1
    17    13    11    1
    18     7     5    2
    19    15    16    1
    20    15    17    1
    21    10    11    1
    22    10     9    1
    23    20    19    1
    24    18    17    1
    25    18    19    1
    26     5     9    1
    27     5     6    1
    28    11    12    1
    29    17    12    1
