@<TRIPOS>MOLECULE
3uig_III_P_1.pdb
 45 44 0 0 0
SMALL
GASTEIGER

@<TRIPOS>ATOM
      1  N         35.3190  -14.4840    1.4450 N.3     1  ALA1       -0.1231
      2  CA        34.3910  -13.5750    0.7770 C.3     1  ALA1        0.1694
      3  C         35.1470  -12.5500   -0.0650 C.2     1  ALA1        0.2592
      4  O         36.3380  -12.3090    0.1520 O.2     1  ALA1       -0.2718
      5  CB        33.5120  -12.8810    1.7960 C.3     1  ALA1        0.0304
      6  N         34.4520  -11.9340   -1.0150 N.am    2  ARG2       -0.1966
      7  CA        35.1140  -11.0570   -1.9690 C.3     2  ARG2        0.1729
      8  C         34.2320   -9.8670   -2.3260 C.2     2  ARG2        0.2617
      9  O         32.9980   -9.9710   -2.3150 O.2     2  ARG2       -0.2715
     10  CB        35.4560  -11.8370   -3.2510 C.3     2  ARG2        0.0348
     11  CG        34.2470  -12.0000   -4.1790 C.3     2  ARG2        0.0492
     12  CD        34.3960  -13.0960   -5.2260 C.3     2  ARG2        0.2205
     13  NE        33.1280  -13.3150   -5.9270 N.pl3   2  ARG2       -0.0865
     14  CZ        32.2950  -14.3260   -5.6810 C.cat   2  ARG2        0.5346
     15  NH1       31.1600  -14.4440   -6.3620 N.pl3   2  ARG2        0.1354
     16  NH2       32.6020  -15.2260   -4.7570 N.pl3   2  ARG2        0.1354
     17  N         34.8720   -8.7460   -2.6600 N.am    3  THR3       -0.1938
     18  CA        34.1770   -7.5350   -3.1090 C.3     3  THR3        0.2002
     19  CB        35.1870   -6.5270   -3.6690 C.3     3  THR3        0.1551
     20  CG2       34.4820   -5.2350   -4.0840 C.3     3  THR3        0.0350
     21  OG1       36.1050   -6.2640   -2.6060 O.3     3  THR3       -0.2705
     22  P         37.4110   -5.5100   -3.1470 P.3     3  THR3        0.5326
     23  O1P       37.9430   -6.2720   -4.2970 O.2     3  THR3       -0.2224
     24  O2P       37.0070   -4.0240   -3.6130 O.3     3  THR3       -0.1145
     25  O3P       38.4920   -5.4140   -1.9500 O.3     3  THR3       -0.1145
     26  C         33.1110   -7.8730   -4.1370 C.2     3  THR3        0.2641
     27  O         33.2670   -8.8150   -4.9020 O.2     3  THR3       -0.2714
     28  N         32.0170   -7.1270   -4.1450 N.am    4  LYS4       -0.1963
     29  CA        30.8930   -7.4650   -5.0140 C.3     4  LYS4        0.1728
     30  C         31.2640   -7.3870   -6.4940 C.2     4  LYS4        0.2616
     31  O         32.2990   -6.8260   -6.8450 O.2     4  LYS4       -0.2715
     32  CB        29.6940   -6.5530   -4.7370 C.3     4  LYS4        0.0311
     33  CG        28.4390   -6.9500   -5.5000 C.3     4  LYS4        0.0038
     34  CD        27.4330   -5.8210   -5.6210 C.3     4  LYS4        0.0206
     35  CE        26.1910   -6.2900   -6.3720 C.3     4  LYS4        0.1093
     36  NZ        25.3320   -5.1600   -6.8380 N.3     4  LYS4       -0.1314
     37  N         30.4130   -7.9730   -7.3390 N.am    5  GLN5       -0.1977
     38  CA        30.4940   -7.8690   -8.7950 C.3     5  GLN5        0.1601
     39  C         31.3780   -6.7200   -9.2710 C.2     5  GLN5        0.2287
     40  O         32.4570   -6.9380   -9.8260 O.2     5  GLN5       -0.2864
     41  CB        29.0840   -7.7160   -9.3760 C.3     5  GLN5        0.0394
     42  CG        29.0370   -7.2800  -10.8400 C.3     5  GLN5        0.0908
     43  CD        29.0650   -5.7630  -11.0250 C.2     5  GLN5        0.2608
     44  OE1       28.0900   -5.0670  -10.7260 O.2     5  GLN5       -0.2717
     45  NE2       30.1840   -5.2490  -11.5310 N.am    5  GLN5       -0.0878
@<TRIPOS>BOND
     1    45    43   am
     2    43    42    1
     3    43    44    2
     4    42    41    1
     5    40    39    2
     6    41    38    1
     7    39    38    1
     8    38    37    1
     9    37    30   am
    10    31    30    2
    11    36    35    1
    12    30    29    1
    13    35    34    1
    14    15    14    1
    15    13    14    2
    16    13    12    1
    17    14    16    1
    18    34    33    1
    19    33    32    1
    20    12    11    1
    21    29    32    1
    22    29    28    1
    23    27    26    2
    24    23    22    2
    25    11    10    1
    26    28    26   am
    27    26    18    1
    28    20    19    1
    29    19    18    1
    30    19    21    1
    31    24    22    1
    32    10     7    1
    33    22    21    1
    34    22    25    1
    35    18    17    1
    36    17     8   am
    37     8     9    2
    38     8     7    1
    39     7     6    1
    40     6     3   am
    41     3     4    2
    42     3     2    1
    43     2     1    1
    44     2     5    1
