@<TRIPOS>MOLECULE
3uih_III_P_1.pdb
 27 27 0 0 0
SMALL
GASTEIGER

@<TRIPOS>ATOM
      1  N        -35.2590  -14.1610   -1.7040 N.3     1  ALA1       -0.1231
      2  CA       -34.6140  -13.8480   -0.4430 C.3     1  ALA1        0.1694
      3  C        -35.3390  -12.7240    0.2490 C.2     1  ALA1        0.2592
      4  O        -36.4560  -12.3890   -0.1070 O.2     1  ALA1       -0.2718
      5  CB       -33.1850  -13.4810   -0.6610 C.3     1  ALA1        0.0304
      6  N        -34.6960  -12.1380    1.2450 N.am    2  VAL2       -0.1966
      7  CA       -35.3220  -11.0840    2.0160 C.3     2  VAL2        0.1712
      8  C        -34.3210  -10.0620    2.4790 C.2     2  VAL2        0.2458
      9  O        -33.1270  -10.2510    2.3560 O.2     2  VAL2       -0.2730
     10  CB       -36.0130  -11.6470    3.2590 C.3     2  VAL2        0.0289
     11  CG1      -37.3510  -12.2480    2.8940 C.3     2  VAL2        0.0023
     12  CG2      -35.1240  -12.6660    3.9430 C.3     2  VAL2        0.0023
     13  N        -34.8310   -8.9800    3.0380 N.am    3  PRO3       -0.2716
     14  CA       -34.0020   -7.8750    3.5000 C.3     3  PRO3        0.1536
     15  C        -33.0490   -8.2530    4.6140 C.2     3  PRO3        0.2598
     16  O        -33.4290   -8.9140    5.5650 O.2     3  PRO3       -0.2715
     17  CB       -35.0310   -6.8820    4.0090 C.3     3  PRO3        0.0310
     18  CG       -36.1850   -7.0990    3.1400 C.3     3  PRO3        0.0237
     19  CD       -36.2210   -8.5610    2.8260 C.3     3  PRO3        0.0939
     20  N        -31.8080   -7.8160    4.4890 N.am    4  ILE4       -0.1978
     21  CA       -30.7960   -8.0630    5.4930 C.3     4  ILE4        0.1596
     22  C        -31.3600   -7.8710    6.8840 C.2     4  ILE4        0.2287
     23  O        -30.6170   -7.5920    7.8210 O.2     4  ILE4       -0.2864
     24  CB       -29.6440   -7.0920    5.3260 C.3     4  ILE4        0.0276
     25  CG1      -28.5820   -7.3500    6.3830 C.3     4  ILE4        0.0022
     26  CG2      -30.1450   -5.6790    5.4410 C.3     4  ILE4        0.0022
     27  CD1      -27.2930   -6.6380    6.1070 C.3     4  ILE4        0.0001
@<TRIPOS>BOND
     1     1     2    1
     2     5     2    1
     3     2     3    1
     4     4     3    2
     5     3     6   am
     6     6     7    1
     7     7     8    1
     8     7    10    1
     9     9     8    2
    10     8    13   am
    11    19    13    1
    12    19    18    1
    13    11    10    1
    14    13    14    1
    15    18    17    1
    16    10    12    1
    17    14    17    1
    18    14    15    1
    19    20    15   am
    20    20    21    1
    21    15    16    2
    22    24    26    1
    23    24    21    1
    24    24    25    1
    25    21    22    1
    26    27    25    1
    27    22    23    2
