@<TRIPOS>MOLECULE
3uii_III_P_1.pdb
 32 31 0 0 0
SMALL
GASTEIGER

@<TRIPOS>ATOM
      1  N         35.5090  -14.0850    1.3210 N.3     1  ALA1       -0.1231
      2  CA        34.5820  -13.1260    0.6340 C.3     1  ALA1        0.1694
      3  C         35.2990  -12.2210   -0.3730 C.2     1  ALA1        0.2592
      4  O         36.5110  -12.0080   -0.2820 O.2     1  ALA1       -0.2718
      5  CB        33.8260  -12.2920    1.6520 C.3     1  ALA1        0.0304
      6  N         34.5380  -11.6940   -1.3300 N.am    2  ARG2       -0.1966
      7  CA        35.0800  -10.8300   -2.3800 C.3     2  ARG2        0.1729
      8  C         34.1640   -9.6170   -2.5950 C.2     2  ARG2        0.2617
      9  O         32.9710   -9.6790   -2.2880 O.2     2  ARG2       -0.2715
     10  CB        35.2890  -11.6290   -3.6920 C.3     2  ARG2        0.0348
     11  CG        34.0360  -11.7970   -4.5780 C.3     2  ARG2        0.0492
     12  CD        34.2570  -12.7470   -5.7610 C.3     2  ARG2        0.2205
     13  NE        33.6230  -14.0550   -5.5630 N.pl3   2  ARG2       -0.0865
     14  CZ        32.4170  -14.3940   -6.0260 C.cat   2  ARG2        0.5346
     15  NH1       31.9270  -15.6090   -5.7950 N.pl3   2  ARG2        0.1354
     16  NH2       31.6930  -13.5220   -6.7230 N.pl3   2  ARG2        0.1354
     17  N         34.7160   -8.5280   -3.1330 N.am    3  THR3       -0.1937
     18  CA        33.9330   -7.3250   -3.4460 C.3     3  THR3        0.2028
     19  C         32.8540   -7.6020   -4.5080 C.2     3  THR3        0.2642
     20  O         32.9460   -8.5730   -5.2650 O.2     3  THR3       -0.2714
     21  CB        34.8370   -6.1510   -3.9190 C.3     3  THR3        0.1808
     22  OG1       36.1550   -6.2840   -3.3670 O.3     3  THR3       -0.2208
     23  CG2       34.2470   -4.8040   -3.4930 C.3     3  THR3        0.0379
     24  N         31.8320   -6.7530   -4.5480 N.am    4  LYS4       -0.1977
     25  CA        30.7670   -6.8620   -5.5340 C.3     4  LYS4        0.1596
     26  C         31.2760   -6.4110   -6.9040 C.2     4  LYS4        0.2287
     27  O         31.0560   -7.0800   -7.9160 O.2     4  LYS4       -0.2864
     28  CB        29.5760   -6.0030   -5.0950 C.3     4  LYS4        0.0298
     29  CG        28.3140   -6.1640   -5.9230 C.3     4  LYS4        0.0038
     30  CD        27.3360   -5.0510   -5.6170 C.3     4  LYS4        0.0206
     31  CE        26.3830   -4.8160   -6.7840 C.3     4  LYS4        0.1093
     32  NZ        25.5240   -3.6140   -6.5500 N.3     4  LYS4       -0.1314
@<TRIPOS>BOND
     1    27    26    2
     2    26    25    1
     3    31    32    1
     4    31    30    1
     5    16    14    1
     6    14    15    1
     7    14    13    2
     8    29    30    1
     9    29    28    1
    10    12    13    1
    11    12    11    1
    12    25    28    1
    13    25    24    1
    14    20    19    2
    15    11    10    1
    16    24    19   am
    17    19    18    1
    18    21    23    1
    19    21    18    1
    20    21    22    1
    21    10     7    1
    22    18    17    1
    23    17     8   am
    24     8     7    1
    25     8     9    2
    26     7     6    1
    27     6     3   am
    28     3     4    2
    29     3     2    1
    30     2     1    1
    31     2     5    1
