@<TRIPOS>MOLECULE
3uij_III_P_1.pdb
 27 27 0 0 0
SMALL
GASTEIGER

@<TRIPOS>ATOM
      1  N        -35.0030  -14.6120   -1.5230 N.3     1  ALA1       -0.1231
      2  CA       -34.1180  -13.8580   -0.6440 C.3     1  ALA1        0.1694
      3  C        -34.9170  -13.0060    0.3330 C.2     1  ALA1        0.2592
      4  O        -36.1370  -12.8890    0.2130 O.2     1  ALA1       -0.2718
      5  CB       -33.1800  -12.9880   -1.4580 C.3     1  ALA1        0.0304
      6  N        -34.2200  -12.4120    1.2980 N.am    2  VAL2       -0.1966
      7  CA       -34.8570  -11.5660    2.3050 C.3     2  VAL2        0.1712
      8  C        -33.9580  -10.3900    2.6920 C.2     2  VAL2        0.2458
      9  O        -32.7360  -10.4760    2.5880 O.2     2  VAL2       -0.2730
     10  CB       -35.2240  -12.3690    3.5800 C.3     2  VAL2        0.0289
     11  CG1      -36.2650  -13.4360    3.2660 C.3     2  VAL2        0.0023
     12  CG2      -33.9800  -12.9920    4.2050 C.3     2  VAL2        0.0023
     13  N        -34.5660   -9.2810    3.1360 N.am    3  PRO3       -0.2716
     14  CA       -33.7970   -8.1190    3.5970 C.3     3  PRO3        0.1536
     15  C        -32.9210   -8.4780    4.7920 C.2     3  PRO3        0.2598
     16  O        -33.1380   -9.5120    5.4240 O.2     3  PRO3       -0.2715
     17  CB       -34.8800   -7.1290    4.0350 C.3     3  PRO3        0.0310
     18  CG       -36.1140   -7.5600    3.3240 C.3     3  PRO3        0.0237
     19  CD       -36.0180   -9.0450    3.1880 C.3     3  PRO3        0.0939
     20  N        -31.9470   -7.6280    5.0970 N.am    4  ILE4       -0.1978
     21  CA       -31.0790   -7.8350    6.2520 C.3     4  ILE4        0.1596
     22  C        -31.4670   -6.9200    7.4130 C.2     4  ILE4        0.2287
     23  O        -31.4790   -7.3360    8.5740 O.2     4  ILE4       -0.2864
     24  CB       -29.6020   -7.6000    5.8880 C.3     4  ILE4        0.0276
     25  CG1      -28.8100   -7.1650    7.1220 C.3     4  ILE4        0.0022
     26  CG2      -29.4870   -6.5490    4.7990 C.3     4  ILE4        0.0022
     27  CD1      -27.4180   -6.6600    6.8040 C.3     4  ILE4        0.0001
@<TRIPOS>BOND
     1     1     2    1
     2     5     2    1
     3     2     3    1
     4     4     3    2
     5     3     6   am
     6     6     7    1
     7     7     8    1
     8     7    10    1
     9     9     8    2
    10     8    13   am
    11    13    19    1
    12    13    14    1
    13    19    18    1
    14    11    10    1
    15    18    17    1
    16    10    12    1
    17    14    17    1
    18    14    15    1
    19    15    20   am
    20    15    16    2
    21    26    24    1
    22    20    21    1
    23    24    21    1
    24    24    25    1
    25    21    22    1
    26    27    25    1
    27    22    23    2
