@<TRIPOS>MOLECULE
3uik_III_P_1.pdb
 32 31 0 0 0
SMALL
GASTEIGER

@<TRIPOS>ATOM
      1  N         35.6740  -14.2190    0.8460 N.3     1  ALA1       -0.1231
      2  CA        34.7670  -13.2020    0.3200 C.3     1  ALA1        0.1694
      3  C         35.5110  -12.1740   -0.5160 C.2     1  ALA1        0.2592
      4  O         36.7030  -11.9480   -0.3020 O.2     1  ALA1       -0.2718
      5  CB        34.0440  -12.5210    1.4480 C.3     1  ALA1        0.0304
      6  N         34.7970  -11.5400   -1.4490 N.am    2  ARG2       -0.1966
      7  CA        35.3870  -10.5590   -2.3660 C.3     2  ARG2        0.1729
      8  C         34.4990   -9.3200   -2.4960 C.2     2  ARG2        0.2617
      9  O         33.2860   -9.4090   -2.3380 O.2     2  ARG2       -0.2715
     10  CB        35.5890  -11.1820   -3.7580 C.3     2  ARG2        0.0348
     11  CG        34.3310  -11.1810   -4.6340 C.3     2  ARG2        0.0492
     12  CD        34.4650  -12.0440   -5.8810 C.3     2  ARG2        0.2205
     13  NE        33.8970  -13.3780   -5.6870 N.pl3   2  ARG2       -0.0865
     14  CZ        32.6520  -13.7160   -6.0080 C.cat   2  ARG2        0.5346
     15  NH1       32.2230  -14.9560   -5.7960 N.pl3   2  ARG2        0.1354
     16  NH2       31.8390  -12.8110   -6.5430 N.pl3   2  ARG2        0.1354
     17  N         35.0950   -8.1720   -2.8130 N.am    3  THR3       -0.1937
     18  CA        34.3220   -6.9650   -3.1110 C.3     3  THR3        0.2028
     19  C         33.3500   -7.2490   -4.2530 C.2     3  THR3        0.2642
     20  O         33.6260   -8.0850   -5.1000 O.2     3  THR3       -0.2714
     21  CB        35.2360   -5.8240   -3.5850 C.3     3  THR3        0.1808
     22  OG1       35.0870   -5.6600   -5.0010 O.3     3  THR3       -0.2208
     23  CG2       36.6860   -6.1220   -3.2660 C.3     3  THR3        0.0379
     24  N         32.2140   -6.5610   -4.2750 N.am    4  LYS4       -0.1977
     25  CA        31.2110   -6.7770   -5.3170 C.3     4  LYS4        0.1596
     26  C         31.8330   -6.7990   -6.6920 C.2     4  LYS4        0.2287
     27  O         31.1300   -6.7010   -7.6910 O.2     4  LYS4       -0.2864
     28  CB        30.1350   -5.6990   -5.2590 C.3     4  LYS4        0.0298
     29  CG        28.9090   -5.9430   -6.1420 C.3     4  LYS4        0.0038
     30  CD        27.8730   -4.8510   -5.8750 C.3     4  LYS4        0.0206
     31  CE        26.6020   -5.0270   -6.6890 C.3     4  LYS4        0.1093
     32  NZ        25.5560   -4.0180   -6.3330 N.3     4  LYS4       -0.1314
@<TRIPOS>BOND
     1    27    26    2
     2    26    25    1
     3    31    32    1
     4    31    30    1
     5    16    14    1
     6    29    30    1
     7    29    28    1
     8    14    15    1
     9    14    13    2
    10    12    13    1
    11    12    11    1
    12    25    28    1
    13    25    24    1
    14    20    19    2
    15    22    21    1
    16    11    10    1
    17    24    19   am
    18    19    18    1
    19    10     7    1
    20    21    23    1
    21    21    18    1
    22    18    17    1
    23    17     8   am
    24     8     7    1
    25     8     9    2
    26     7     6    1
    27     6     3   am
    28     3     4    2
    29     3     2    1
    30     2     1    1
    31     2     5    1
