@<TRIPOS>MOLECULE
3uil_DAO_D_1.pdb
 14 13 0 0 0
SMALL
GASTEIGER

@<TRIPOS>ATOM
      1  O1       -33.8270  -19.5430  -40.1730 O.co2 202  DAO202     -0.2457
      2  O2       -34.1350  -17.5080  -40.9480 O.co2 202  DAO202     -0.2457
      3  C1       -34.5280  -18.6870  -40.7760 C.2   202  DAO202      0.3649
      4  C2       -35.9040  -19.0320  -41.3410 C.3   202  DAO202      0.1141
      5  C3       -36.4340  -20.3920  -41.0010 C.3   202  DAO202      0.0118
      6  C4       -36.3980  -21.2200  -42.2800 C.3   202  DAO202      0.0006
      7  C5       -35.2000  -22.1680  -42.2610 C.3   202  DAO202      0.0000
      8  C6       -35.5330  -23.5690  -42.7590 C.3   202  DAO202      0.0000
      9  C7       -35.9690  -24.4390  -41.5880 C.3   202  DAO202      0.0000
     10  C8       -37.3870  -24.9620  -41.7970 C.3   202  DAO202      0.0000
     11  C9       -38.4550  -24.0550  -41.1900 C.3   202  DAO202      0.0000
     12  C10      -39.8490  -24.3920  -41.7380 C.3   202  DAO202      0.0000
     13  C11      -40.9670  -23.3740  -41.4660 C.3   202  DAO202      0.0000
     14  C12      -40.7550  -22.4570  -40.2690 C.3   202  DAO202      0.0000
@<TRIPOS>BOND
     1     8     7    1
     2     8     9    1
     3     6     7    1
     4     6     5    1
     5    10     9    1
     6    10    11    1
     7    12    13    1
     8    12    11    1
     9    13    14    1
    10     4     5    1
    11     4     3    1
    12     2     3   ar
    13     3     1   ar
