@<TRIPOS>MOLECULE
3uim_ANP_A_1.pdb
 31 33 0 0 0
SMALL
GASTEIGER

@<TRIPOS>ATOM
      1  PG         7.2150    4.8920  -10.3100 P.3   1000  ANP1000     0.4884
      2  O1G        8.6860    4.4780  -10.6830 O.2   1000  ANP1000    -0.2331
      3  O2G        7.1200    6.4530  -10.2390 O.3   1000  ANP1000    -0.1240
      4  O3G        6.8700    4.3320   -8.9610 O.3   1000  ANP1000    -0.1240
      5  PB         6.4320    2.8200  -12.0750 P.3   1000  ANP1000     0.4669
      6  O1B        5.1630    2.2260  -12.7920 O.2   1000  ANP1000    -0.2351
      7  O2B        6.7410    1.8770  -10.8890 O.3   1000  ANP1000    -0.1253
      8  N3B        6.1120    4.3400  -11.4510 N.3   1000  ANP1000    -0.0163
      9  PA         8.4650    1.6470  -13.5500 P.3   1000  ANP1000     0.2220
     10  O1A        8.0360    1.0990  -14.8960 O.2   1000  ANP1000    -0.5170
     11  O2A        8.3470    0.5470  -12.5120 O.3   1000  ANP1000    -0.4370
     12  O3A        7.5750    2.9050  -13.1540 O.3   1000  ANP1000    -0.2360
     13  O5'        9.9760    2.0690  -13.6250 O.3   1000  ANP1000    -0.3111
     14  C5'       10.8930    1.2840  -12.9370 C.3   1000  ANP1000     0.1813
     15  C4'       12.2150    1.3040  -13.4600 C.3   1000  ANP1000     0.1821
     16  O4'       12.2430    0.4910  -14.6740 O.3   1000  ANP1000    -0.3135
     17  C3'       12.4510    2.6940  -13.8660 C.3   1000  ANP1000     0.2184
     18  O3'       13.3750    3.2870  -13.0380 O.3   1000  ANP1000    -0.2174
     19  C2'       12.8790    2.6390  -15.2720 C.3   1000  ANP1000     0.2570
     20  O2'       14.0760    3.2630  -15.3980 O.3   1000  ANP1000    -0.2130
     21  C1'       13.0120    1.1890  -15.6090 C.3   1000  ANP1000     0.3186
     22  N9        12.6570    0.8360  -16.9880 N.pl3 1000  ANP1000    -0.1439
     23  C8        11.4440    0.4500  -17.4160 C.3   1000  ANP1000     0.3377
     24  N7        11.5070    0.1400  -18.7290 N.2   1000  ANP1000    -0.2095
     25  C5        12.7830    0.3230  -19.1420 C.2   1000  ANP1000     0.2526
     26  C6        13.4360    0.1670  -20.3690 C.2   1000  ANP1000     0.4393
     27  N6        12.7480   -0.2850  -21.5340 N.pl3 1000  ANP1000     0.2180
     28  N1        14.7490    0.4500  -20.4220 N.2   1000  ANP1000     0.0021
     29  C2        15.4250    0.8710  -19.3450 C.3   1000  ANP1000     0.5254
     30  N3        14.8240    1.0310  -18.1650 N.2   1000  ANP1000    -0.0055
     31  C4        13.5120    0.7630  -18.0370 C.2   1000  ANP1000     0.3518
@<TRIPOS>BOND
     1    27    26    1
     2    28    26    2
     3    28    29    1
     4    26    25    1
     5    29    30    1
     6    25    24    2
     7    25    31    1
     8    24    23    1
     9    30    31    2
    10    31    22    1
    11    23    22    1
    12    22    21    1
    13    21    19    1
    14    21    16    1
    15    20    19    1
    16    19    17    1
    17    10     9    2
    18    16    15    1
    19    17    15    1
    20    17    18    1
    21    13     9    1
    22    13    14    1
    23     9    12    1
    24     9    11    1
    25    15    14    1
    26    12     5    1
    27     6     5    2
    28     5     8    1
    29     5     7    1
    30     8     1    1
    31     2     1    2
    32     1     3    1
    33     1     4    1
