@<TRIPOS>MOLECULE
3uiq_DUP_A_1.pdb
 28 29 0 0 0
SMALL
GASTEIGER

@<TRIPOS>ATOM
      1  O4        -0.8000   -8.1570   42.2230 O.2   904  DUP904     -0.2085
      2  C4        -0.6790   -7.5070   43.3650 C.1   904  DUP904      0.2182
      3  C5        -0.1960   -8.1420   44.4780 C.2   904  DUP904      0.1242
      4  C6        -0.0900   -7.4790   45.6810 C.2   904  DUP904      0.0928
      5  N3        -1.0560   -6.2510   43.4470 N.2   904  DUP904     -0.2452
      6  C2        -0.9340   -5.6070   44.6030 C.1   904  DUP904      0.2844
      7  O2        -1.2900   -4.3610   44.6500 O.2   904  DUP904     -0.1918
      8  N1        -0.4510   -6.2320   45.7470 N.am  904  DUP904     -0.1790
      9  C1'       -0.3600   -5.5010   47.0060 C.3   904  DUP904      0.2090
     10  C2'       -1.7610   -5.4040   47.5950 C.3   904  DUP904      0.0874
     11  C3'       -1.8180   -6.5580   48.5610 C.3   904  DUP904      0.1857
     12  O3'       -2.8200   -6.4340   49.5470 O.3   904  DUP904     -0.2203
     13  O4'        0.3750   -6.1780   47.9960 O.3   904  DUP904     -0.3339
     14  C4'       -0.4140   -6.5490   49.0890 C.3   904  DUP904      0.1774
     15  C5'       -0.0080   -7.9060   49.6130 C.3   904  DUP904      0.1848
     16  O5'        0.0130   -8.8230   48.5680 O.3   904  DUP904     -0.2775
     17  PA        -0.0070  -10.3870   48.6890 P.3   904  DUP904      0.4623
     18  O1A        0.1010  -10.8930   47.3420 O.2   904  DUP904     -0.2354
     19  O2A        0.9800  -10.7380   49.6220 O.3   904  DUP904     -0.1255
     20  N3A       -1.4400  -10.9490   49.2650 N.3   904  DUP904     -0.0179
     21  PB        -2.6310  -10.1850   50.1490 P.3   904  DUP904      0.4700
     22  O1B       -3.4120   -9.2120   49.3660 O.2   904  DUP904     -0.2350
     23  O2B       -2.2760   -9.9030   51.5660 O.3   904  DUP904     -0.1252
     24  O3B       -3.6550  -11.3910   50.1870 O.3   904  DUP904     -0.1901
     25  PG        -3.2770  -12.7140   50.8900 P.3   904  DUP904      0.5397
     26  O2G       -3.4400  -13.8460   49.9790 O.2   904  DUP904     -0.2220
     27  O1G       -1.8250  -12.5460   51.0690 O.3   904  DUP904     -0.1143
     28  O3G       -4.1350  -12.7840   52.0680 O.3   904  DUP904     -0.1143
@<TRIPOS>BOND
     1     1     2    2
     2     2     5    2
     3     2     3    1
     4     5     6    2
     5     3     4    2
     6     6     7    2
     7     6     8   am
     8     4     8    1
     9     8     9    1
    10     9    10    1
    11     9    13    1
    12    18    17    2
    13    10    11    1
    14    13    14    1
    15    11    14    1
    16    11    12    1
    17    16    17    1
    18    16    15    1
    19    17    20    1
    20    17    19    1
    21    14    15    1
    22    20    21    1
    23    22    21    2
    24    26    25    2
    25    21    24    1
    26    21    23    1
    27    24    25    1
    28    25    27    1
    29    25    28    1
