@<TRIPOS>MOLECULE
3uiv_308_H_1.pdb
 11 13 0 0 0
SMALL
GASTEIGER

@<TRIPOS>ATOM
      1  N1        24.4400   30.0770   28.7750 N.3   1008  3081008    -0.1343
      2  C10       24.7160   31.2500   27.9560 C.3   1008  3081008     0.0770
      3  C7        24.4640   32.5170   28.7550 C.3   1008  3081008     0.0176
      4  C1        24.7610   33.7540   27.9090 C.3   1008  3081008     0.0014
      5  C8        23.8300   31.2280   26.7270 C.3   1008  3081008     0.0176
      6  C5        24.1200   32.4570   25.8670 C.3   1008  3081008     0.0014
      7  C6        23.8850   33.7360   26.6650 C.3   1008  3081008     0.0001
      8  C4        25.5740   32.4360   25.4340 C.3   1008  3081008     0.0001
      9  C9        26.1610   31.2200   27.5180 C.3   1008  3081008     0.0176
     10  C3        26.4640   32.4500   26.6620 C.3   1008  3081008     0.0014
     11  C2        26.2100   33.7240   27.4570 C.3   1008  3081008     0.0001
@<TRIPOS>BOND
     1     8     6    1
     2     8    10    1
     3     6     7    1
     4     6     5    1
     5    10    11    1
     6    10     9    1
     7     7     4    1
     8     5     2    1
     9    11     4    1
    10     9     2    1
    11     4     3    1
    12     2     3    1
    13     2     1    1
