@<TRIPOS>MOLECULE
3uix_Q17_A_1.pdb
 22 24 0 0 0
SMALL
GASTEIGER

@<TRIPOS>ATOM
      1  C1       -37.4550   -3.1150   -1.3480 C.ar  400  Q17400      0.0428
      2  C2       -36.5150   -3.2090   -0.3120 C.ar  400  Q17400      0.0033
      3  C3       -36.8740   -2.9870    1.0160 C.ar  400  Q17400      0.0010
      4  C4       -38.1790   -2.6320    1.3710 C.ar  400  Q17400      0.0153
      5  C5       -39.1330   -2.5080    0.3790 C.ar  400  Q17400      0.1244
      6  C6       -38.7640   -2.7790   -1.0450 C.ar  400  Q17400      0.2069
      7  O7       -39.6830   -2.7010   -2.0510 O.3   400  Q17400     -0.2858
      8  C8       -40.5100   -2.1630    0.7890 C.1   400  Q17400      0.1421
      9  N9       -40.7860   -1.9700    2.1120 N.2   400  Q17400     -0.3230
     10  C10      -42.0400   -1.6660    2.5060 C.2   400  Q17400      0.2138
     11  C11      -43.0530   -1.5460    1.5450 C.2   400  Q17400      0.0729
     12  C12      -42.7440   -1.7500    0.2090 C.2   400  Q17400      0.1295
     13  N13      -41.4710   -2.0500   -0.1390 N.2   400  Q17400     -0.3437
     14  C14      -43.7180   -1.6550   -0.7890 C.3   400  Q17400      0.0860
     15  C15      -45.0330   -1.3350   -0.4340 C.2   400  Q17400     -0.0186
     16  C16      -45.3430   -1.1430    0.9070 C.2   400  Q17400     -0.0039
     17  C17      -44.3680   -1.2390    1.9050 C.2   400  Q17400      0.0059
     18  N18      -42.2930   -1.5040    3.8230 N.pl3 400  Q17400     -0.2089
     19  C19      -41.2300   -1.3240    4.8130 C.3   400  Q17400      0.1164
     20  C20      -40.2580   -2.5000    5.0540 C.3   400  Q17400      0.0439
     21  C21      -40.8770   -3.8170    5.4820 C.3   400  Q17400      0.1111
     22  N22      -39.9600   -4.5710    6.3510 N.3   400  Q17400     -0.1313
@<TRIPOS>BOND
     1     7     6    1
     2     1     6   ar
     3     1     2   ar
     4     6     5   ar
     5    14    15    1
     6    14    12    1
     7    15    16    2
     8     2     3   ar
     9    13    12    2
    10    13     8    2
    11    12    11    1
    12     5     8    1
    13     5     4   ar
    14     8     9    2
    15    16    17    1
    16     3     4   ar
    17    11    17    2
    18    11    10    1
    19     9    10    2
    20    10    18    1
    21    18    19    1
    22    19    20    1
    23    20    21    1
    24    21    22    1
