@<TRIPOS>MOLECULE
3uj0_I3P_A_1.pdb
 24 24 0 0 0
SMALL
GASTEIGER

@<TRIPOS>ATOM
      1  C1        39.5450  -14.0320   42.3700 C.3   1000  I3P1000     0.1918
      2  C2        38.9380  -14.0080   43.7840 C.3   1000  I3P1000     0.2147
      3  C3        38.2460  -15.3160   44.1910 C.3   1000  I3P1000     0.2146
      4  C4        37.1920  -15.7650   43.1770 C.3   1000  I3P1000     0.1892
      5  C5        37.2420  -14.9360   41.8950 C.3   1000  I3P1000     0.1891
      6  C6        38.6620  -14.7740   41.3580 C.3   1000  I3P1000     0.2120
      7  O1        40.8560  -14.6090   42.4080 O.3   1000  I3P1000    -0.2673
      8  O2        39.9460  -13.6760   44.7480 O.3   1000  I3P1000    -0.2176
      9  O3        39.2080  -16.3610   44.3570 O.3   1000  I3P1000    -0.2176
     10  O4        35.9020  -15.6280   43.7650 O.3   1000  I3P1000    -0.2674
     11  O5        36.4060  -15.4810   40.8800 O.3   1000  I3P1000    -0.2674
     12  O6        38.6020  -14.0500   40.1210 O.3   1000  I3P1000    -0.2177
     13  P1        42.1810  -13.6910   42.5040 P.3   1000  I3P1000     0.5327
     14  O11       42.8670  -13.9160   41.1780 O.2   1000  I3P1000    -0.2224
     15  O12       42.9340  -14.2670   43.6810 O.3   1000  I3P1000    -0.1145
     16  O13       41.6610  -12.2840   42.7160 O.3   1000  I3P1000    -0.1145
     17  P4        35.2790  -16.8090   44.6650 P.3   1000  I3P1000     0.5327
     18  O41       35.5570  -18.0720   43.8820 O.2   1000  I3P1000    -0.2224
     19  O42       36.0340  -16.7020   45.9680 O.3   1000  I3P1000    -0.1145
     20  O43       33.8150  -16.4520   44.7690 O.3   1000  I3P1000    -0.1145
     21  P5        35.2510  -14.5620   40.2430 P.3   1000  I3P1000     0.5327
     22  O51       34.9480  -15.2160   38.9180 O.2   1000  I3P1000    -0.2224
     23  O52       34.1270  -14.6540   41.2500 O.3   1000  I3P1000    -0.1145
     24  O53       35.8750  -13.1910   40.1190 O.3   1000  I3P1000    -0.1145
@<TRIPOS>BOND
     1    22    21    2
     2    24    21    1
     3    12     6    1
     4    21    11    1
     5    21    23    1
     6    11     5    1
     7    14    13    2
     8     6     5    1
     9     6     1    1
    10     5     4    1
    11     1     7    1
    12     1     2    1
    13     7    13    1
    14    13    16    1
    15    13    15    1
    16     4    10    1
    17     4     3    1
    18    10    17    1
    19     2     3    1
    20     2     8    1
    21    18    17    2
    22     3     9    1
    23    17    20    1
    24    17    19    1
