@<TRIPOS>MOLECULE
3uj6_SAM_A_1.pdb
 27 29 0 0 0
SMALL
GASTEIGER

@<TRIPOS>ATOM
      1  N         20.9150   21.9650   16.4610 N.3   300  SAM300     -0.1208
      2  CA        20.5880   20.8960   15.5420 C.3   300  SAM300      0.1952
      3  C         19.1990   21.1160   14.9880 C.2   300  SAM300      0.3819
      4  O         18.3700   21.7100   15.6750 O.co2 300  SAM300     -0.2441
      5  OXT       18.8640   20.6880   13.8810 O.co2 300  SAM300     -0.2441
      6  CB        20.5070   19.6330   16.3680 C.3   300  SAM300      0.0414
      7  CG        21.3070   18.4620   15.8560 C.3   300  SAM300      0.0503
      8  SD        20.9100   17.0370   16.8880 S.3   300  SAM300     -0.1761
      9  CE        19.4620   17.6310   17.7980 C.3   300  SAM300      0.0590
     10  C5'       22.2290   17.1610   18.1360 C.3   300  SAM300      0.0806
     11  C4'       23.5920   17.4780   17.5120 C.3   300  SAM300      0.1622
     12  O4'       24.5850   17.7490   18.4990 O.3   300  SAM300     -0.3153
     13  C3'       24.1290   16.3380   16.6570 C.3   300  SAM300      0.2168
     14  O3'       24.3350   16.8000   15.3370 O.3   300  SAM300     -0.2175
     15  C2'       25.4660   15.9670   17.2830 C.3   300  SAM300      0.2569
     16  O2'       26.4170   15.6620   16.2880 O.3   300  SAM300     -0.2130
     17  C1'       25.8290   17.2260   18.0600 C.3   300  SAM300      0.3185
     18  N9        26.7900   16.9820   19.1690 N.pl3 300  SAM300     -0.1439
     19  C8        26.7190   16.0440   20.1670 C.3   300  SAM300      0.3377
     20  N7        27.8100   16.1760   20.9600 N.2   300  SAM300     -0.2095
     21  C5        28.5810   17.1870   20.4770 C.2   300  SAM300      0.2526
     22  C6        29.7860   17.7380   20.8870 C.2   300  SAM300      0.4393
     23  N6        30.4350   17.2820   21.9640 N.pl3 300  SAM300      0.2180
     24  N1        30.3210   18.7780   20.1640 N.2   300  SAM300      0.0021
     25  C2        29.6730   19.2750   19.0530 C.3   300  SAM300      0.5254
     26  N3        28.4790   18.7260   18.6550 N.2   300  SAM300     -0.0055
     27  C4        27.9450   17.6980   19.3560 C.2   300  SAM300      0.3518
@<TRIPOS>BOND
     1     5     3   ar
     2     3     2    1
     3     3     4   ar
     4    14    13    1
     5     2     6    1
     6     2     1    1
     7     7     6    1
     8     7     8    1
     9    16    15    1
    10    13    15    1
    11    13    11    1
    12     8     9    1
    13     8    10    1
    14    15    17    1
    15    11    10    1
    16    11    12    1
    17    17    12    1
    18    17    18    1
    19    26    25    1
    20    26    27    2
    21    25    24    1
    22    18    27    1
    23    18    19    1
    24    27    21    1
    25    24    22    2
    26    19    20    1
    27    21    22    1
    28    21    20    2
    29    22    23    1
