@<TRIPOS>MOLECULE
3uj7_SAM_A_1.pdb
 27 29 0 0 0
SMALL
GASTEIGER

@<TRIPOS>ATOM
      1  N          8.1510  -21.9210   25.3420 N.3   301  SAM301     -0.1208
      2  CA         7.4420  -20.7750   24.7860 C.3   301  SAM301      0.1952
      3  C          7.3280  -20.9330   23.2880 C.2   301  SAM301      0.3819
      4  O          8.1500  -21.6330   22.7000 O.co2 301  SAM301     -0.2441
      5  OXT        6.4590  -20.3630   22.6340 O.co2 301  SAM301     -0.2441
      6  CB         8.3080  -19.5510   25.0160 C.3   301  SAM301      0.0414
      7  CG         7.6420  -18.3900   25.7270 C.3   301  SAM301      0.0503
      8  SD         8.7120  -16.9390   25.5760 S.3   301  SAM301     -0.1761
      9  CE        10.0160  -17.5450   24.4790 C.3   301  SAM301      0.0590
     10  C5'        9.5070  -16.9080   27.2040 C.3   301  SAM301      0.0806
     11  C4'        8.5430  -17.2480   28.3390 C.3   301  SAM301      0.1622
     12  O4'        9.2630  -17.4410   29.5440 O.3   301  SAM301     -0.3153
     13  C3'        7.5490  -16.1190   28.6030 C.3   301  SAM301      0.2168
     14  O3'        6.2330  -16.5550   28.3190 O.3   301  SAM301     -0.2175
     15  C2'        7.7420  -15.7650   30.0730 C.3   301  SAM301      0.2569
     16  O2'        6.5330  -15.4950   30.7500 O.3   301  SAM301     -0.2130
     17  C1'        8.4490  -16.9990   30.6200 C.3   301  SAM301      0.3185
     18  N9         9.2090  -16.7500   31.8680 N.pl3 301  SAM301     -0.1439
     19  C8        10.1690  -15.7990   32.1030 C.3   301  SAM301      0.3377
     20  N7        10.6150  -15.9180   33.3730 N.2   301  SAM301     -0.2095
     21  C5         9.9500  -16.9390   33.9680 C.2   301  SAM301      0.2526
     22  C6        10.0090  -17.4750   35.2450 C.2   301  SAM301      0.4393
     23  N6        10.8330  -16.9790   36.1670 N.pl3 301  SAM301      0.2180
     24  N1         9.1840  -18.5270   35.5570 N.2   301  SAM301      0.0021
     25  C2         8.3260  -19.0490   34.6110 C.3   301  SAM301      0.5254
     26  N3         8.2630  -18.5090   33.3480 N.2   301  SAM301     -0.0055
     27  C4         9.0720  -17.4690   33.0330 C.2   301  SAM301      0.3518
@<TRIPOS>BOND
     1     5     3   ar
     2     4     3   ar
     3     3     2    1
     4     9     8    1
     5     2     6    1
     6     2     1    1
     7     6     7    1
     8     8     7    1
     9     8    10    1
    10    10    11    1
    11    14    13    1
    12    11    13    1
    13    11    12    1
    14    13    15    1
    15    12    17    1
    16    15    17    1
    17    15    16    1
    18    17    18    1
    19    18    19    1
    20    18    27    1
    21    19    20    1
    22    27    26    2
    23    27    21    1
    24    26    25    1
    25    20    21    2
    26    21    22    1
    27    25    24    1
    28    22    24    2
    29    22    23    1
