@<TRIPOS>MOLECULE
3uj8_SFG_A_1.pdb
 27 29 0 0 0
SMALL
GASTEIGER

@<TRIPOS>ATOM
      1  N         20.9830   21.7010   16.5280 N.3   300  SFG300     -0.1159
      2  CA        20.7670   20.8610   15.4240 C.3   300  SFG300      0.2160
      3  C         19.2870   20.8970   15.0800 C.2   300  SFG300      0.3860
      4  O         18.4860   21.5240   15.8200 O.co2 300  SFG300     -0.2437
      5  OXT       18.8450   20.3410   14.0070 O.co2 300  SFG300     -0.2437
      6  CB        21.2850   19.4200   15.7530 C.2   300  SFG300      0.0007
      7  CG        20.5340   18.6360   16.8870 C.2   300  SFG300     -0.0100
      8  CD        21.1440   17.3370   17.3210 C.3   300  SFG300      0.1160
      9  NE        20.1750   16.6250   18.1540 N.3   300  SFG300     -0.1281
     10  C5'       22.4420   17.5280   18.0880 C.3   300  SFG300      0.0559
     11  C4'       23.7280   17.6130   17.4340 C.3   300  SFG300      0.1541
     12  O4'       24.7410   17.7770   18.4800 O.3   300  SFG300     -0.3161
     13  C3'       24.1570   16.4200   16.6430 C.3   300  SFG300      0.2160
     14  O3'       24.2210   16.7660   15.2970 O.3   300  SFG300     -0.2175
     15  C2'       25.4570   15.9950   17.2490 C.3   300  SFG300      0.2569
     16  O2'       26.3950   15.5040   16.3530 O.3   300  SFG300     -0.2130
     17  C1'       25.9230   17.2260   17.9930 C.3   300  SFG300      0.3185
     18  N9        26.8580   16.9680   19.1030 N.pl3 300  SFG300     -0.1439
     19  C8        26.7530   16.0740   20.0920 C.3   300  SFG300      0.3377
     20  N7        27.8170   16.2030   20.8880 N.2   300  SFG300     -0.2095
     21  C5        28.5980   17.1940   20.4090 C.2   300  SFG300      0.2526
     22  C6        29.8210   17.7370   20.8260 C.2   300  SFG300      0.4393
     23  N6        30.4780   17.2560   21.9190 N.pl3 300  SFG300      0.2180
     24  N1        30.3480   18.7400   20.1010 N.2   300  SFG300      0.0021
     25  C2        29.7250   19.1920   18.9960 C.3   300  SFG300      0.5254
     26  N3        28.5610   18.6870   18.5610 N.2   300  SFG300     -0.0055
     27  C4        27.9770   17.6860   19.2540 C.2   300  SFG300      0.3518
@<TRIPOS>BOND
     1     5     3   ar
     2     3     2    1
     3     3     4   ar
     4    14    13    1
     5     2     6    1
     6     2     1    1
     7     6     7    2
     8    16    15    1
     9    13    15    1
    10    13    11    1
    11     7     8    1
    12    15    17    1
    13     8    10    1
    14     8     9    1
    15    11    10    1
    16    11    12    1
    17    17    12    1
    18    17    18    1
    19    26    25    1
    20    26    27    2
    21    25    24    1
    22    18    27    1
    23    18    19    1
    24    27    21    1
    25    19    20    1
    26    24    22    2
    27    21    22    1
    28    21    20    2
    29    22    23    1
