@<TRIPOS>MOLECULE
3uj9_PC_A_1.pdb
 11 10 0 0 0
SMALL
GASTEIGER

@<TRIPOS>ATOM
      1  P1        15.4720   10.6730   19.8690 P.3   301  PC301       0.5325
      2  O1        16.0030   10.0980   21.1770 O.3   301  PC301      -0.1145
      3  O3        15.1980    9.6010   18.8470 O.2   301  PC301      -0.2224
      4  O4        14.2740   11.5630   20.1040 O.3   301  PC301      -0.1145
      5  O2        16.6170   11.6000   19.3200 O.3   301  PC301      -0.2725
      6  C1        16.4120   12.4220   18.1770 C.3   301  PC301       0.1317
      7  C2        17.6350   13.2540   17.7630 C.3   301  PC301      -0.0401
      8  N1        18.0110   14.4110   18.6370 N.4   301  PC301       0.3874
      9  C3        16.7920   15.3040   18.7980 C.3   301  PC301      -0.0959
     10  C4        19.1690   15.0540   18.0350 C.3   301  PC301      -0.0959
     11  C5        18.3740   13.9700   19.9240 C.3   301  PC301      -0.0959
@<TRIPOS>BOND
     1     7     6    1
     2     7     8    1
     3    10     8    1
     4     6     5    1
     5     8     9    1
     6     8    11    1
     7     3     1    2
     8     5     1    1
     9     1     4    1
    10     1     2    1
