@<TRIPOS>MOLECULE
3ujb_SAH_A_1.pdb
 26 28 0 0 0
SMALL
GASTEIGER

@<TRIPOS>ATOM
      1  N         46.9410   -0.5710   25.5050 N.3   502  SAH502     -0.1208
      2  CA        45.8910    0.2760   24.8850 C.3   502  SAH502      0.1952
      3  CB        45.9840    1.7480   25.4270 C.3   502  SAH502      0.0422
      4  CG        47.2760    2.4690   25.0280 C.3   502  SAH502      0.0597
      5  SD        47.3590    4.1870   25.6240 S.3   502  SAH502     -0.1375
      6  C         45.9970    0.1880   23.4160 C.2   502  SAH502      0.3819
      7  O         46.9630   -0.3650   22.9160 O.co2 502  SAH502     -0.2441
      8  OXT       45.1800    0.7440   22.7180 O.co2 502  SAH502     -0.2441
      9  C5'       47.9520    4.0870   27.3290 C.3   502  SAH502      0.0899
     10  C4'       47.0080    3.7660   28.3570 C.3   502  SAH502      0.1630
     11  O4'       47.7510    3.6010   29.5920 O.3   502  SAH502     -0.3153
     12  C3'       46.0550    4.8880   28.5930 C.3   502  SAH502      0.2168
     13  O3'       44.7310    4.4570   28.3170 O.3   502  SAH502     -0.2175
     14  C2'       46.2790    5.2780   30.0030 C.3   502  SAH502      0.2569
     15  O2'       45.1100    5.6900   30.6870 O.3   502  SAH502     -0.2130
     16  C1'       46.9040    4.0570   30.5990 C.3   502  SAH502      0.3185
     17  N9        47.6620    4.3040   31.8820 N.pl3 502  SAH502     -0.1439
     18  C8        48.6090    5.2230   32.1010 C.3   502  SAH502      0.3377
     19  N7        49.0340    5.0920   33.3580 N.2   502  SAH502     -0.2095
     20  C5        48.3660    4.0780   33.9400 C.2   502  SAH502      0.2526
     21  C6        48.3890    3.5160   35.2280 C.2   502  SAH502      0.4393
     22  N6        49.2360    3.9930   36.1970 N.pl3 502  SAH502      0.2180
     23  N1        47.5580    2.4930   35.4890 N.2   502  SAH502      0.0021
     24  C2        46.7230    2.0170   34.5570 C.3   502  SAH502      0.5254
     25  N3        46.6660    2.5410   33.3080 N.2   502  SAH502     -0.0055
     26  C4        47.4720    3.5700   32.9860 C.2   502  SAH502      0.3518
@<TRIPOS>BOND
     1     8     6   ar
     2     7     6   ar
     3     6     2    1
     4     2     3    1
     5     2     1    1
     6     4     3    1
     7     4     5    1
     8     5     9    1
     9     9    10    1
    10    13    12    1
    11    10    12    1
    12    10    11    1
    13    12    14    1
    14    11    16    1
    15    14    16    1
    16    14    15    1
    17    16    17    1
    18    17    18    1
    19    17    26    1
    20    18    19    1
    21    26    25    2
    22    26    20    1
    23    25    24    1
    24    19    20    2
    25    20    21    1
    26    24    23    1
    27    21    23    2
    28    21    22    1
