@<TRIPOS>MOLECULE
3ujc_PC_A_1.pdb
 11 10 0 0 0
SMALL
GASTEIGER

@<TRIPOS>ATOM
      1  P1        15.4280   10.4780   19.9340 P.3   301  PC301       0.5325
      2  O1        16.0360    9.8890   21.1940 O.3   301  PC301      -0.1145
      3  O3        15.1380    9.3830   18.9210 O.2   301  PC301      -0.2224
      4  O4        14.2150   11.3450   20.2000 O.3   301  PC301      -0.1145
      5  O2        16.5800   11.3850   19.3450 O.3   301  PC301      -0.2725
      6  C1        16.2910   12.2560   18.2430 C.3   301  PC301       0.1317
      7  C2        17.4710   13.1420   17.8310 C.3   301  PC301      -0.0401
      8  N1        17.7840   14.2940   18.7310 N.4   301  PC301       0.3874
      9  C3        16.5470   15.1680   18.8420 C.3   301  PC301      -0.0959
     10  C4        18.9230   14.9870   18.1470 C.3   301  PC301      -0.0959
     11  C5        18.1750   13.8640   20.0330 C.3   301  PC301      -0.0959
@<TRIPOS>BOND
     1     7     6    1
     2     7     8    1
     3    10     8    1
     4     6     5    1
     5     8     9    1
     6     8    11    1
     7     3     1    2
     8     5     1    1
     9     1     4    1
    10     1     2    1
