@<TRIPOS>MOLECULE
3ujd_PC_A_1.pdb
 11 10 0 0 0
SMALL
GASTEIGER

@<TRIPOS>ATOM
      1  P1        15.4940   10.8080   20.0140 P.3   301  PC301       0.5325
      2  O1        14.2540   11.6260   20.3230 O.3   301  PC301      -0.1145
      3  O3        16.1560   10.2510   21.2510 O.3   301  PC301      -0.1145
      4  O4        15.2200    9.7120   19.0000 O.2   301  PC301      -0.2224
      5  O2        16.5600   11.7930   19.3730 O.3   301  PC301      -0.2725
      6  C1        16.2640   12.5890   18.2440 C.3   301  PC301       0.1317
      7  C2        17.4080   13.5300   17.8420 C.3   301  PC301      -0.0401
      8  N1        17.6950   14.7020   18.7120 N.4   301  PC301       0.3874
      9  C3        18.8280   15.4360   18.0210 C.3   301  PC301      -0.0959
     10  C4        17.9530   14.2850   20.0820 C.3   301  PC301      -0.0959
     11  C5        16.5880   15.5670   18.7470 C.3   301  PC301      -0.0959
@<TRIPOS>BOND
     1     7     6    1
     2     7     8    1
     3     9     8    1
     4     6     5    1
     5     8    11    1
     6     8    10    1
     7     4     1    2
     8     5     1    1
     9     1     2    1
    10     1     3    1
