@<TRIPOS>MOLECULE
3uje_PEP_B_1.pdb
 10 9 0 0 0
SMALL
GASTEIGER

@<TRIPOS>ATOM
      1  C1        85.0510  113.7890   -1.3010 C.2   503  PEP503      0.4216
      2  O1        85.4420  114.9800   -1.4460 O.co2 503  PEP503     -0.2371
      3  O2'       84.6560  113.1040   -2.2660 O.co2 503  PEP503     -0.2371
      4  C2        85.0480  113.1960    0.0660 C.2   503  PEP503      0.2283
      5  C3        84.6930  111.8950    0.2730 C.2   503  PEP503      0.0477
      6  O2        85.6170  114.0000    1.1370 O.2   503  PEP503     -0.3930
      7  P         84.6570  114.9440    1.9980 P.3   503  PEP503      0.5889
      8  O1P       83.6190  114.0960    2.6110 O.3   503  PEP503     -0.1039
      9  O2P       85.7230  115.4930    2.9400 O.3   503  PEP503     -0.1039
     10  O3P       84.1400  115.9070    0.9840 O.2   503  PEP503     -0.2114
@<TRIPOS>BOND
     1     3     1   ar
     2     2     1   ar
     3     1     4    1
     4     4     5    2
     5     4     6    1
     6    10     7    2
     7     6     7    1
     8     7     8    1
     9     7     9    1
