@<TRIPOS>MOLECULE
3uje_2PG_A_1.pdb
 11 10 0 0 0
SMALL
GASTEIGER

@<TRIPOS>ATOM
      1  C1        97.1980   96.0450   24.3230 C.2   503  2PG503      0.3946
      2  C2        96.2620   96.0460   23.1550 C.3   503  2PG503      0.2610
      3  C3        95.0520   96.9670   23.2010 C.3   503  2PG503      0.2237
      4  P         96.9690   94.6890   21.1200 P.3   503  2PG503      0.5331
      5  O1        98.4030   95.6290   24.2160 O.co2 503  2PG503     -0.2428
      6  O2        96.7420   96.4380   25.4090 O.co2 503  2PG503     -0.2428
      7  O3        95.3330   98.3970   23.0820 O.3   503  2PG503     -0.2170
      8  O1P       96.9430   96.0830   21.9080 O.3   503  2PG503     -0.2583
      9  O2P       97.7280   95.0450   19.8490 O.2   503  2PG503     -0.2224
     10  O3P       97.5820   93.7160   22.0520 O.3   503  2PG503     -0.1145
     11  O4P       95.5090   94.3420   20.8110 O.3   503  2PG503     -0.1145
@<TRIPOS>BOND
     1     9     4    2
     2    11     4    1
     3     4     8    1
     4     4    10    1
     5     8     2    1
     6     7     3    1
     7     2     3    1
     8     2     1    1
     9     5     1   ar
    10     1     6   ar
