@<TRIPOS>MOLECULE
3ujf_PEP_B_1.pdb
 10 9 0 0 0
SMALL
GASTEIGER

@<TRIPOS>ATOM
      1  C1        85.1680  113.3390   -1.0920 C.2   503  PEP503      0.4216
      2  O1        85.4900  114.5290   -1.2550 O.co2 503  PEP503     -0.2371
      3  O2'       84.8200  112.7460   -2.0770 O.co2 503  PEP503     -0.2371
      4  C2        85.1820  112.6970    0.2390 C.2   503  PEP503      0.2283
      5  C3        84.9310  111.3950    0.4710 C.2   503  PEP503      0.0477
      6  O2        85.5660  113.5840    1.3310 O.2   503  PEP503     -0.3930
      7  P         84.6410  114.5540    2.2230 P.3   503  PEP503      0.5889
      8  O1P       83.5940  113.6270    2.8320 O.3   503  PEP503     -0.1039
      9  O2P       85.7220  115.1470    3.1030 O.3   503  PEP503     -0.1039
     10  O3P       84.0770  115.5860    1.2860 O.2   503  PEP503     -0.2114
@<TRIPOS>BOND
     1     3     1   ar
     2     2     1   ar
     3     1     4    1
     4     4     5    2
     5     4     6    1
     6    10     7    2
     7     6     7    1
     8     7     8    1
     9     7     9    1
