@<TRIPOS>MOLECULE
3ujf_2PG_A_1.pdb
 11 10 0 0 0
SMALL
GASTEIGER

@<TRIPOS>ATOM
      1  C1        97.0770   95.8110   24.5110 C.2   503  2PG503      0.3946
      2  C2        96.1880   95.6220   23.3090 C.3   503  2PG503      0.2610
      3  C3        94.8160   96.3150   23.2870 C.3   503  2PG503      0.2237
      4  P         97.0320   94.3010   21.3480 P.3   503  2PG503      0.5331
      5  O1        98.1340   95.1490   24.6060 O.co2 503  2PG503     -0.2428
      6  O2        96.7260   96.5780   25.4020 O.co2 503  2PG503     -0.2428
      7  O3        95.0000   97.7310   23.4330 O.3   503  2PG503     -0.2170
      8  O1P       96.9630   95.6900   22.1040 O.3   503  2PG503     -0.2583
      9  O2P       97.8010   94.5930   20.1320 O.2   503  2PG503     -0.2224
     10  O3P       97.6200   93.3200   22.3170 O.3   503  2PG503     -0.1145
     11  O4P       95.5050   94.0310   21.0830 O.3   503  2PG503     -0.1145
@<TRIPOS>BOND
     1     9     4    2
     2    11     4    1
     3     4     8    1
     4     4    10    1
     5     8     2    1
     6     3     2    1
     7     3     7    1
     8     2     1    1
     9     1     5   ar
    10     1     6   ar
