@<TRIPOS>MOLECULE
3ujh_G6Q_A_1.pdb
 16 15 0 0 0
SMALL
GASTEIGER

@<TRIPOS>ATOM
      1  C1        58.6350   60.8270   19.2520 C.2   571  G6Q571      0.2427
      2  C2        58.1010   59.6650   18.4240 C.3   571  G6Q571      0.2486
      3  C3        58.4100   58.3220   19.0810 C.3   571  G6Q571      0.2225
      4  C4        58.3690   58.4420   20.6330 C.3   571  G6Q571      0.2178
      5  C5        58.5670   57.1460   21.4680 C.3   571  G6Q571      0.2147
      6  C6        57.8780   57.1090   22.8310 C.3   571  G6Q571      0.1892
      7  O1        58.9550   61.8850   18.7340 O.2   571  G6Q571     -0.2854
      8  O2        56.6890   59.7080   18.2810 O.3   571  G6Q571     -0.2118
      9  O3        59.6340   57.9100   18.4640 O.3   571  G6Q571     -0.2171
     10  O4        59.3180   59.3770   21.0190 O.3   571  G6Q571     -0.2175
     11  O5        57.9930   56.0300   20.8470 O.3   571  G6Q571     -0.2176
     12  O6        56.4720   57.0760   22.6070 O.3   571  G6Q571     -0.2674
     13  P         55.4120   57.3340   23.7990 P.3   571  G6Q571      0.5327
     14  O1P       55.8640   58.5310   24.5450 O.3   571  G6Q571     -0.1145
     15  O2P       54.0630   57.4740   23.0960 O.2   571  G6Q571     -0.2224
     16  O3P       55.5740   56.0350   24.5500 O.3   571  G6Q571     -0.1145
@<TRIPOS>BOND
     1     8     2    1
     2     2     3    1
     3     2     1    1
     4     9     3    1
     5     7     1    2
     6     3     4    1
     7     4    10    1
     8     4     5    1
     9    11     5    1
    10     5     6    1
    11    12     6    1
    12    12    13    1
    13    15    13    2
    14    13    14    1
    15    13    16    1
