@<TRIPOS>MOLECULE
3uji_FUC_H_1.pdb
 10 10 0 0 0
SMALL
GASTEIGER

@<TRIPOS>ATOM
      1  C1        -9.5700   -0.2340    7.1310 C.3   403  FUC403      0.1776
      2  C2        -9.5210   -0.2230    8.6490 C.3   403  FUC403      0.2141
      3  C3       -10.5960   -1.2480    9.0770 C.3   403  FUC403      0.2172
      4  C4       -10.3990   -2.6710    8.5250 C.3   403  FUC403      0.2116
      5  C5       -10.3680   -2.5380    6.9950 C.3   403  FUC403      0.1483
      6  C6       -10.0350   -3.8090    6.1930 C.3   403  FUC403      0.0349
      7  O2        -9.7460    1.0880    9.1160 O.3   403  FUC403     -0.2176
      8  O3       -10.6990   -1.2720   10.4650 O.3   403  FUC403     -0.2175
      9  O4        -9.0970   -3.0740    8.9720 O.3   403  FUC403     -0.2177
     10  O5        -9.4130   -1.5290    6.5720 O.3   403  FUC403     -0.3508
@<TRIPOS>BOND
     1     6     5    1
     2    10     5    1
     3    10     1    1
     4     5     4    1
     5     1     2    1
     6     4     9    1
     7     4     3    1
     8     2     3    1
     9     2     7    1
    10     3     8    1
