@<TRIPOS>MOLECULE
3ujm_EPE_A_1.pdb
 15 15 0 0 0
SMALL
GASTEIGER

@<TRIPOS>ATOM
      1  N1        21.1730  -17.1790   10.5740 N.3   201  EPE201     -0.2689
      2  C2        21.0910  -18.4990   11.2230 C.3   201  EPE201      0.0897
      3  C3        22.1090  -19.4770   10.6410 C.3   201  EPE201      0.0897
      4  N4        22.7340  -19.0050    9.4180 N.3   201  EPE201     -0.2681
      5  C5        23.2230  -17.6380    9.3580 C.3   201  EPE201      0.0897
      6  C6        22.5640  -16.7430   10.3990 C.3   201  EPE201      0.0897
      7  C7        23.2830  -19.9960    8.5090 C.3   201  EPE201      0.1081
      8  C8        24.0310  -19.3880    7.3280 C.3   201  EPE201      0.1993
      9  O8        25.3960  -19.2400    7.6560 O.3   201  EPE201     -0.2189
     10  C9        20.4030  -16.1740   11.3260 C.3   201  EPE201      0.0939
     11  C10       20.8940  -16.1300   12.7710 C.3   201  EPE201      0.1225
     12  S         19.7080  -15.3570   13.8990 S.3   201  EPE201     -0.1946
     13  O1S       20.0000  -15.7570   15.2740 O.3   201  EPE201     -0.3074
     14  O2S       18.3570  -15.7780   13.5420 O.3   201  EPE201     -0.3074
     15  O3S       19.8130  -13.9060   13.7900 O.3   201  EPE201     -0.3074
@<TRIPOS>BOND
     1     8     9    1
     2     8     7    1
     3     7     4    1
     4     5     4    1
     5     5     6    1
     6     4     3    1
     7     6     1    1
     8     1     2    1
     9     1    10    1
    10     3     2    1
    11    10    11    1
    12    11    12    1
    13    14    12    1
    14    15    12    1
    15    12    13    1
