@<TRIPOS>MOLECULE
3ujn_ADP_A_1.pdb
 27 29 0 0 0
SMALL
GASTEIGER

@<TRIPOS>ATOM
      1  PB        24.3910  -38.6190   13.0060 P.3   2005  ADP2005     0.5373
      2  O1B       23.4870  -37.5240   12.6420 O.2   2005  ADP2005    -0.2221
      3  O2B       25.6180  -38.1190   13.8800 O.3   2005  ADP2005    -0.1143
      4  O3B       23.6340  -39.7030   13.8950 O.3   2005  ADP2005    -0.1143
      5  PA        26.3130  -39.0680   10.9930 P.3   2005  ADP2005     0.2231
      6  O1A       27.2110  -40.1880   11.2690 O.2   2005  ADP2005    -0.5169
      7  O2A       26.7730  -37.7320   11.4250 O.3   2005  ADP2005    -0.4370
      8  O3A       24.9170  -39.3600   11.6990 O.3   2005  ADP2005    -0.2261
      9  O5'       25.9030  -39.0370    9.4550 O.3   2005  ADP2005    -0.3111
     10  C5'       25.4600  -37.8180    8.8510 C.3   2005  ADP2005     0.1813
     11  C4'       24.7570  -38.1120    7.5560 C.3   2005  ADP2005     0.1821
     12  O4'       25.4150  -39.0590    6.6910 O.3   2005  ADP2005    -0.3135
     13  C3'       23.3660  -38.6530    7.8240 C.3   2005  ADP2005     0.2184
     14  O3'       22.4880  -38.0710    7.0530 O.3   2005  ADP2005    -0.2174
     15  C2'       23.5290  -40.1390    7.5650 C.3   2005  ADP2005     0.2570
     16  O2'       22.2750  -40.7210    7.2260 O.3   2005  ADP2005    -0.2130
     17  C1'       24.5270  -40.1580    6.4140 C.3   2005  ADP2005     0.3186
     18  N9        25.2770  -41.4390    6.3870 N.pl3 2005  ADP2005    -0.1439
     19  C8        26.2320  -41.7990    7.2390 C.3   2005  ADP2005     0.3377
     20  N7        26.6910  -43.0050    6.9400 N.2   2005  ADP2005    -0.2095
     21  C5        26.0340  -43.4320    5.8850 C.2   2005  ADP2005     0.2526
     22  C6        26.0630  -44.6010    5.1190 C.2   2005  ADP2005     0.4393
     23  N6        26.9080  -45.5740    5.4290 N.pl3 2005  ADP2005     0.2180
     24  N1        25.2250  -44.7270    4.0590 N.2   2005  ADP2005     0.0021
     25  C2        24.3660  -43.7590    3.7290 C.3   2005  ADP2005     0.5254
     26  N3        24.3130  -42.6290    4.4460 N.2   2005  ADP2005    -0.0055
     27  C4        25.1220  -42.4340    5.5180 C.2   2005  ADP2005     0.3518
@<TRIPOS>BOND
     1    25    24    1
     2    25    26    1
     3    24    22    2
     4    26    27    2
     5    22    23    1
     6    22    21    1
     7    27    21    1
     8    27    18    1
     9    21    20    2
    10    18    17    1
    11    18    19    1
    12    17    12    1
    13    17    15    1
    14    12    11    1
    15    20    19    1
    16    14    13    1
    17    16    15    1
    18    11    13    1
    19    11    10    1
    20    15    13    1
    21    10     9    1
    22     9     5    1
    23     5     6    2
    24     5     7    1
    25     5     8    1
    26     8     1    1
    27     2     1    2
    28     1     3    1
    29     1     4    1
