@<TRIPOS>MOLECULE
3ujo_ADE_A_1.pdb
 10 11 0 0 0
SMALL
GASTEIGER

@<TRIPOS>ATOM
      1  N9        -1.2550   44.0750    3.6200 N.2   301  ADE301     -0.1914
      2  C8        -0.4810   43.3840    2.7320 C.3   301  ADE301      0.2618
      3  N7         0.7480   43.1870    3.1450 N.2   301  ADE301     -0.2267
      4  C5         0.7850   43.7890    4.3920 C.2   301  ADE301      0.2303
      5  C6         1.8080   43.9380    5.3580 C.2   301  ADE301      0.4393
      6  N6         3.0470   43.4630    5.2150 N.pl3 301  ADE301      0.2185
      7  N1         1.5120   44.6000    6.4970 N.2   301  ADE301     -0.0265
      8  C2         0.2700   45.0780    6.6480 C.3   301  ADE301      0.4008
      9  N3        -0.7720   45.0060    5.8200 N.2   301  ADE301     -0.1640
     10  C4        -0.4450   44.3440    4.6970 C.1   301  ADE301      0.0579
@<TRIPOS>BOND
     1     2     3    1
     2     2     1    1
     3     3     4    2
     4     1    10    2
     5     4    10    1
     6     4     5    1
     7    10     9    2
     8     6     5    1
     9     5     7    2
    10     9     8    1
    11     7     8    1
