@<TRIPOS>MOLECULE
3ujo_GAL_A_1.pdb
 12 12 0 0 0
SMALL
GASTEIGER

@<TRIPOS>ATOM
      1  C1        28.7750   60.0190   11.2070 C.3   302  GAL302      0.3024
      2  C2        28.0350   58.8810   10.5010 C.3   302  GAL302      0.2434
      3  C3        26.5630   58.8450   10.9200 C.3   302  GAL302      0.2199
      4  C4        26.3740   58.9680   12.4380 C.3   302  GAL302      0.2144
      5  C5        27.2750   60.0590   13.0300 C.3   302  GAL302      0.1836
      6  C6        27.2110   60.0880   14.5540 C.3   302  GAL302      0.2142
      7  O1        30.1460   59.9920   10.8670 O.3   302  GAL302     -0.1869
      8  O2        28.1290   59.0450    9.1030 O.3   302  GAL302     -0.2148
      9  O3        25.9690   57.6510   10.4630 O.3   302  GAL302     -0.2174
     10  O4        26.6210   57.7250   13.0630 O.3   302  GAL302     -0.2176
     11  O5        28.6170   59.8860   12.6100 O.3   302  GAL302     -0.3236
     12  O6        26.5740   61.2740   14.9660 O.3   302  GAL302     -0.2176
@<TRIPOS>BOND
     1     8     2    1
     2     9     3    1
     3     2     3    1
     4     2     1    1
     5     7     1    1
     6     3     4    1
     7     1    11    1
     8     4     5    1
     9     4    10    1
    10    11     5    1
    11     5     6    1
    12     6    12    1
