@<TRIPOS>MOLECULE
3ujq_GAL_A_1.pdb
 12 12 0 0 0
SMALL
GASTEIGER

@<TRIPOS>ATOM
      1  C1        28.4040   -7.9990  -11.3520 C.3   301  GAL301      0.3024
      2  C2        27.7870   -6.8250  -10.5870 C.3   301  GAL301      0.2434
      3  C3        26.3680   -6.5150  -11.0730 C.3   301  GAL301      0.2199
      4  C4        26.2540   -6.5130  -12.6010 C.3   301  GAL301      0.2144
      5  C5        26.9710   -7.7280  -13.1940 C.3   301  GAL301      0.1836
      6  C6        26.9330   -7.7520  -14.7180 C.3   301  GAL301      0.2142
      7  O1        29.7590   -8.1550  -10.9910 O.3   301  GAL301     -0.1869
      8  O2        27.7540   -7.1230   -9.2090 O.3   301  GAL301     -0.2148
      9  O3        25.9600   -5.2640  -10.5650 O.3   301  GAL301     -0.2174
     10  O4        26.8010   -5.3200  -13.1200 O.3   301  GAL301     -0.2176
     11  O5        28.3130   -7.7620  -12.7440 O.3   301  GAL301     -0.3236
     12  O6        27.0310   -9.0910  -15.1460 O.3   301  GAL301     -0.2176
@<TRIPOS>BOND
     1    12     6    1
     2     6     5    1
     3     5    11    1
     4     5     4    1
     5    10     4    1
     6    11     1    1
     7     4     3    1
     8     1     7    1
     9     1     2    1
    10     3     2    1
    11     3     9    1
    12     2     8    1
