@<TRIPOS>MOLECULE
3ujr_2PG_A_1.pdb
 11 10 0 0 0
SMALL
GASTEIGER

@<TRIPOS>ATOM
      1  C1        97.8930   96.0860   24.4460 C.2   503  2PG503      0.3946
      2  C2        97.0010   96.1230   23.2400 C.3   503  2PG503      0.2610
      3  C3        95.7630   97.0360   23.3990 C.3   503  2PG503      0.2237
      4  P         97.6160   94.8550   21.2240 P.3   503  2PG503      0.5331
      5  O1        99.1370   95.7220   24.3630 O.co2 503  2PG503     -0.2428
      6  O2        97.3870   96.5000   25.5230 O.co2 503  2PG503     -0.2428
      7  O3        95.9740   98.3670   22.9790 O.3   503  2PG503     -0.2170
      8  O1P       97.7130   96.2900   21.9950 O.3   503  2PG503     -0.2583
      9  O2P       98.4610   95.0500   20.0040 O.2   503  2PG503     -0.2224
     10  O3P       98.3140   93.9220   22.1730 O.3   503  2PG503     -0.1145
     11  O4P       96.1790   94.5210   20.9440 O.3   503  2PG503     -0.1145
@<TRIPOS>BOND
     1     9     4    2
     2    11     4    1
     3     4     8    1
     4     4    10    1
     5     8     2    1
     6     7     3    1
     7     2     3    1
     8     2     1    1
     9     5     1   ar
    10     1     6   ar
