@<TRIPOS>MOLECULE
3ujr_PEP_B_1.pdb
 10 9 0 0 0
SMALL
GASTEIGER

@<TRIPOS>ATOM
      1  C1        85.8850  114.0620   -1.2560 C.2   503  PEP503      0.4216
      2  O1        86.2720  115.2680   -1.3990 O.co2 503  PEP503     -0.2371
      3  O2'       85.4900  113.3370   -2.2190 O.co2 503  PEP503     -0.2371
      4  C2        85.8860  113.4200    0.1110 C.2   503  PEP503      0.2283
      5  C3        85.5510  112.1200    0.2980 C.2   503  PEP503      0.0477
      6  O2        86.4340  114.1550    1.1490 O.2   503  PEP503     -0.3930
      7  P         85.5490  115.1160    2.0520 P.3   503  PEP503      0.5889
      8  O1P       84.4510  114.2710    2.6150 O.3   503  PEP503     -0.1039
      9  O2P       86.6420  115.7010    2.9120 O.3   503  PEP503     -0.1039
     10  O3P       84.9860  116.1490    1.1040 O.2   503  PEP503     -0.2114
@<TRIPOS>BOND
     1     3     1   ar
     2     2     1   ar
     3     1     4    1
     4     4     5    2
     5     4     6    1
     6    10     7    2
     7     6     7    1
     8     7     8    1
     9     7     9    1
