@<TRIPOS>MOLECULE
3ujs_XSP_A_1.pdb
 11 10 0 0 0
SMALL
GASTEIGER

@<TRIPOS>ATOM
      1  C1        43.5420   37.3120   24.7400 C.2   602  XSP602      0.3946
      2  C2        42.7020   37.3930   23.4760 C.3   602  XSP602      0.2610
      3  C3        41.4680   38.2790   23.4690 C.3   602  XSP602      0.2237
      4  P         43.3240   35.9140   21.4300 P.3   602  XSP602      0.5331
      5  O1        44.7230   36.8300   24.6320 O.co2 602  XSP602     -0.2428
      6  O2        43.0600   37.5910   25.8730 O.co2 602  XSP602     -0.2428
      7  O3        41.5560   39.6750   23.6460 O.3   602  XSP602     -0.2170
      8  O1P       43.3730   37.3690   22.1270 O.3   602  XSP602     -0.2583
      9  O2P       44.1660   36.0740   20.1580 O.2   602  XSP602     -0.2224
     10  O3P       43.9700   34.9450   22.3730 O.3   602  XSP602     -0.1145
     11  O4P       41.8680   35.5370   21.1260 O.3   602  XSP602     -0.1145
@<TRIPOS>BOND
     1     9     4    2
     2    11     4    1
     3     4     8    1
     4     4    10    1
     5     8     2    1
     6     3     2    1
     7     3     7    1
     8     2     1    1
     9     5     1   ar
    10     1     6   ar
