@<TRIPOS>MOLECULE
3ujs_0V5_B_1.pdb
 10 9 0 0 0
SMALL
GASTEIGER

@<TRIPOS>ATOM
      1  C1        31.2600   54.9260   -0.8750 C.2   602  0V5602      0.3919
      2  O1        30.8710   54.2950   -1.8620 O.co2 602  0V5602     -0.2429
      3  O2'       31.6450   56.1290   -1.0580 O.co2 602  0V5602     -0.2429
      4  C2        31.1980   54.3310    0.5550 C.3   602  0V5602      0.2285
      5  C3        31.7360   52.8670    0.6730 C.3   602  0V5602      0.0450
      6  O2        31.8690   55.1410    1.6490 O.3   602  0V5602     -0.2611
      7  P         30.8680   56.1560    2.4500 P.3   602  0V5602      0.5330
      8  O1P       30.2430   57.0780    1.4240 O.2   602  0V5602     -0.2224
      9  O2P       29.7930   55.2900    3.0590 O.3   602  0V5602     -0.1145
     10  O3P       31.8510   56.7880    3.4100 O.3   602  0V5602     -0.1145
@<TRIPOS>BOND
     1     2     1   ar
     2     3     1   ar
     3     1     4    1
     4     4     5    1
     5     4     6    1
     6     8     7    2
     7     6     7    1
     8     7     9    1
     9     7    10    1
