@<TRIPOS>MOLECULE
3uk0_ENO_A_1.pdb
 13 13 0 0 0
SMALL
GASTEIGER

@<TRIPOS>ATOM
      1  O4        -0.6170   41.5570   68.3010 O.2   501  ENO501     -0.2839
      2  C9         2.2670   41.4800   66.4500 C.ar  501  ENO501     -0.0005
      3  C8         2.9830   40.4310   65.7910 C.ar  501  ENO501      0.0417
      4  C7         3.6320   39.4610   66.5320 C.ar  501  ENO501      0.1957
      5  C6         3.5550   39.4440   67.9010 C.ar  501  ENO501      0.0417
      6  C5         2.7940   40.4270   68.5220 C.ar  501  ENO501     -0.0005
      7  C4         2.1670   41.4380   67.8310 C.ar  501  ENO501     -0.0140
      8  O3         4.3920   38.4930   65.9030 O.3   501  ENO501     -0.2866
      9  C3         1.5020   42.4860   68.6570 C.3   501  ENO501      0.1025
     10  C2         0.0690   42.4090   68.8470 C.2   501  ENO501      0.2564
     11  C1        -0.5630   43.4780   69.5850 C.2   501  ENO501      0.4222
     12  O2         0.0730   44.4170   70.0830 O.co2 501  ENO501     -0.2373
     13  O1        -1.8180   43.4260   69.5970 O.co2 501  ENO501     -0.2373
@<TRIPOS>BOND
     1     3     2   ar
     2     3     4   ar
     3     8     4    1
     4     2     7   ar
     5     4     5   ar
     6     7     6   ar
     7     7     9    1
     8     5     6   ar
     9     1    10    2
    10     9    10    1
    11    10    11    1
    12    11    13   ar
    13    11    12   ar
