@<TRIPOS>MOLECULE
3uk2_AMP_A_1.pdb
 23 25 0 0 0
SMALL
GASTEIGER

@<TRIPOS>ATOM
      1  P         41.8560  -15.0680  -38.7220 P.3   280  AMP280      0.5327
      2  O1P       42.1770  -15.7020  -37.4210 O.3   280  AMP280     -0.1145
      3  O2P       42.3690  -15.8100  -39.9060 O.2   280  AMP280     -0.2224
      4  O3P       40.4550  -14.5980  -38.9030 O.3   280  AMP280     -0.1145
      5  O5'       42.7090  -13.6960  -38.7430 O.3   280  AMP280     -0.2675
      6  C5'       42.7750  -12.9410  -39.9500 C.3   280  AMP280      0.1860
      7  C4'       43.7270  -11.7620  -39.7830 C.3   280  AMP280      0.1823
      8  O4'       43.3530  -11.0440  -38.5970 O.3   280  AMP280     -0.3135
      9  C3'       45.1570  -12.2170  -39.5710 C.3   280  AMP280      0.2184
     10  O3'       46.0600  -11.2960  -40.2090 O.3   280  AMP280     -0.2174
     11  C2'       45.3100  -12.1940  -38.0620 C.3   280  AMP280      0.2570
     12  O2'       46.6550  -12.0430  -37.6270 O.3   280  AMP280     -0.2130
     13  C1'       44.4700  -10.9830  -37.7420 C.3   280  AMP280      0.3186
     14  N9        43.9710  -10.9660  -36.3790 N.pl3 280  AMP280     -0.1439
     15  C8        43.2720  -11.9030  -35.7320 C.3   280  AMP280      0.3377
     16  N7        42.9960  -11.4750  -34.4610 N.2   280  AMP280     -0.2095
     17  C5        43.5450  -10.2570  -34.3040 C.2   280  AMP280      0.2526
     18  C6        43.6260   -9.2640  -33.2250 C.2   280  AMP280      0.4393
     19  N6        43.0380   -9.5430  -32.0340 N.pl3 280  AMP280      0.2180
     20  N1        44.2870   -8.0960  -33.4730 N.2   280  AMP280      0.0021
     21  C2        44.8420   -7.8490  -34.6760 C.3   280  AMP280      0.5254
     22  N3        44.8080   -8.7240  -35.7070 N.2   280  AMP280     -0.0055
     23  C4        44.1670   -9.9120  -35.5720 C.2   280  AMP280      0.3518
@<TRIPOS>BOND
     1    10     9    1
     2     6     7    1
     3     6     5    1
     4     3     1    2
     5     7     9    1
     6     7     8    1
     7     9    11    1
     8     4     1    1
     9     5     1    1
    10     1     2    1
    11     8    13    1
    12    11    13    1
    13    11    12    1
    14    13    14    1
    15    14    15    1
    16    14    23    1
    17    15    16    1
    18    22    23    2
    19    22    21    1
    20    23    17    1
    21    21    20    1
    22    16    17    2
    23    17    18    1
    24    20    18    2
    25    18    19    1
