@<TRIPOS>MOLECULE
3uk4_III_B_1.pdb
 44 44 0 0 0
SMALL
GASTEIGER

@<TRIPOS>ATOM
      1  N        -28.5130    9.1690   35.6250 N.3   681  LEU681     -0.1231
      2  CA       -28.0690    9.2190   34.2260 C.3   681  LEU681      0.1693
      3  C        -26.5530    9.5150   34.0050 C.2   681  LEU681      0.2592
      4  O        -26.1590    9.9950   32.9290 O.2   681  LEU681     -0.2718
      5  CB       -28.9620   10.1950   33.4320 C.3   681  LEU681      0.0284
      6  CG       -30.2880    9.6620   32.8510 C.3   681  LEU681      0.0019
      7  CD1      -31.2780    9.2740   33.9480 C.3   681  LEU681      0.0001
      8  CD2      -30.9090   10.6730   31.8750 C.3   681  LEU681      0.0001
      9  N        -25.7150    9.2180   35.0140 N.am  682  GLU682     -0.1966
     10  CA       -24.2860    9.6000   34.9800 C.3   682  GLU682      0.1733
     11  C        -23.4470    8.9800   36.0910 C.2   682  GLU682      0.2616
     12  O        -23.7550    9.1350   37.2870 O.2   682  GLU682     -0.2715
     13  CB       -24.0880   11.1480   34.9650 C.3   682  GLU682      0.0429
     14  CG       -24.5540   11.9380   36.2230 C.3   682  GLU682      0.1163
     15  CD       -26.0730   12.0200   36.3610 C.2   682  GLU682      0.3649
     16  OE1      -26.7450   12.3520   35.3540 O.co2 682  GLU682     -0.2457
     17  OE2      -26.6010   11.7510   37.4660 O.co2 682  GLU682     -0.2457
     18  N        -22.3810    8.2880   35.6800 N.am  683  ALA683     -0.1963
     19  CA       -21.4110    7.6740   36.5970 C.3   683  ALA683      0.1728
     20  C        -20.4400    6.7720   35.8290 C.2   683  ALA683      0.2616
     21  O        -20.8560    6.0630   34.8930 O.2   683  ALA683     -0.2715
     22  CB       -22.1300    6.8610   37.7220 C.3   683  ALA683      0.0334
     23  N        -19.1640    6.8020   36.2250 N.am  684  CYS684     -0.1954
     24  CA       -18.1580    5.9450   35.6230 C.3   684  CYS684      0.1843
     25  C        -18.4690    4.5030   36.0060 C.2   684  CYS684      0.2625
     26  O        -18.5460    4.1810   37.2100 O.2   684  CYS684     -0.2714
     27  CB       -16.7560    6.3250   36.0970 C.3   684  CYS684      0.0997
     28  SG       -15.4940    5.1620   35.5960 S.3   684  CYS684     -0.0797
     29  N        -18.6370    3.6540   34.9850 N.am  685  ALA685     -0.1963
     30  CA       -18.9710    2.2290   35.1450 C.3   685  ALA685      0.1728
     31  C        -17.9080    1.3910   35.8880 C.2   685  ALA685      0.2616
     32  O        -18.0990    0.1880   36.0480 O.2   685  ALA685     -0.2715
     33  CB       -19.2870    1.5790   33.7810 C.3   685  ALA685      0.0334
     34  N        -16.8290    2.0140   36.3590 N.am  686  PHE686     -0.1974
     35  CA       -15.7710    1.2990   37.1020 C.3   686  PHE686      0.1639
     36  C        -15.5550    1.9110   38.5050 C.2   686  PHE686      0.2290
     37  O        -16.1650    2.9290   38.8580 O.2   686  PHE686     -0.2864
     38  CB       -14.4390    1.2740   36.3060 C.3   686  PHE686      0.0560
     39  CG       -14.6010    0.8960   34.8460 C.ar  686  PHE686     -0.0200
     40  CD1      -14.8450   -0.4660   34.4580 C.ar  686  PHE686     -0.0042
     41  CD2      -14.5180    1.8680   33.8510 C.ar  686  PHE686     -0.0042
     42  CE1      -15.0230   -0.8010   33.0650 C.ar  686  PHE686     -0.0003
     43  CE2      -14.6690    1.5220   32.4840 C.ar  686  PHE686     -0.0003
     44  CZ       -14.9390    0.1850   32.1130 C.ar  686  PHE686     -0.0000
@<TRIPOS>BOND
     1     8     6    1
     2    44    43   ar
     3    44    42   ar
     4    43    41   ar
     5     6     5    1
     6     6     7    1
     7     4     3    2
     8    42    40   ar
     9     5     2    1
    10    33    30    1
    11    41    39   ar
    12     3     2    1
    13     3     9   am
    14     2     1    1
    15    40    39   ar
    16    39    38    1
    17    21    20    2
    18    13    10    1
    19    13    14    1
    20    10     9    1
    21    10    11    1
    22    29    30    1
    23    29    25   am
    24    30    31    1
    25    16    15   ar
    26    28    27    1
    27    24    25    1
    28    24    27    1
    29    24    23    1
    30    18    11   am
    31    18    19    1
    32    20    23   am
    33    20    19    1
    34    31    32    2
    35    31    34   am
    36    25    26    2
    37    11    12    2
    38    14    15    1
    39    38    35    1
    40    34    35    1
    41    15    17   ar
    42    19    22    1
    43    35    36    1
    44    36    37    2
