@<TRIPOS>MOLECULE
3uk6_ADP_A_1.pdb
 27 29 0 0 0
SMALL
GASTEIGER

@<TRIPOS>ATOM
      1  PB        44.2700  -27.9970   52.4200 P.3   1450  ADP1450     0.5373
      2  O1B       43.5770  -28.2530   51.0970 O.2   1450  ADP1450    -0.2221
      3  O2B       43.2510  -27.9780   53.5440 O.3   1450  ADP1450    -0.1143
      4  O3B       45.0030  -26.6620   52.3640 O.3   1450  ADP1450    -0.1143
      5  PA        46.3410  -30.0010   51.7810 P.3   1450  ADP1450     0.2231
      6  O1A       45.6810  -31.2710   51.4120 O.3   1450  ADP1450    -0.4370
      7  O2A       46.7260  -29.2410   50.5190 O.2   1450  ADP1450    -0.5169
      8  O3A       45.3300  -29.1640   52.6990 O.3   1450  ADP1450    -0.2261
      9  O5'       47.6270  -30.3000   52.6410 O.3   1450  ADP1450    -0.3111
     10  C5'       48.9340  -29.7040   52.5060 C.3   1450  ADP1450     0.1813
     11  C4'       49.9790  -30.7950   52.4230 C.3   1450  ADP1450     0.1821
     12  O4'       49.8860  -31.6910   53.5540 O.3   1450  ADP1450    -0.3135
     13  C3'       49.9030  -31.6820   51.1870 C.3   1450  ADP1450     0.2184
     14  O3'       51.2140  -32.0210   50.7570 O.3   1450  ADP1450    -0.2174
     15  C2'       49.0650  -32.8650   51.6780 C.3   1450  ADP1450     0.2570
     16  O2'       49.2520  -34.0360   50.8970 O.3   1450  ADP1450    -0.2130
     17  C1'       49.5540  -33.0000   53.1210 C.3   1450  ADP1450     0.3186
     18  N9        48.5640  -33.5630   54.0410 N.pl3 1450  ADP1450    -0.1439
     19  C8        47.5680  -32.8810   54.6930 C.3   1450  ADP1450     0.3377
     20  N7        46.8100  -33.6340   55.4520 N.2   1450  ADP1450    -0.2095
     21  C5        47.3400  -34.9050   55.2880 C.2   1450  ADP1450     0.2526
     22  C6        46.9950  -36.1550   55.8410 C.2   1450  ADP1450     0.4393
     23  N6        45.9880  -36.3330   56.7040 N.pl3 1450  ADP1450     0.2180
     24  N1        47.7490  -37.2250   55.4930 N.2   1450  ADP1450     0.0021
     25  C2        48.7690  -37.0480   54.6440 C.3   1450  ADP1450     0.5254
     26  N3        49.1800  -35.9220   54.0510 N.2   1450  ADP1450    -0.0055
     27  C4        48.4230  -34.8770   54.4210 C.2   1450  ADP1450     0.3518
@<TRIPOS>BOND
     1     7     5    2
     2    14    13    1
     3    16    15    1
     4     2     1    2
     5    13    15    1
     6    13    11    1
     7     6     5    1
     8    15    17    1
     9     5     9    1
    10     5     8    1
    11     4     1    1
    12     1     8    1
    13     1     3    1
    14    11    10    1
    15    11    12    1
    16    10     9    1
    17    17    12    1
    18    17    18    1
    19    18    27    1
    20    18    19    1
    21    26    27    2
    22    26    25    1
    23    27    21    1
    24    25    24    1
    25    19    20    1
    26    21    20    2
    27    21    22    1
    28    24    22    2
    29    22    23    1
