@<TRIPOS>MOLECULE
3ukd_ADP_A_1.pdb
 27 29 0 0 0
SMALL
GASTEIGER

@<TRIPOS>ATOM
      1  PB        38.3330   65.7100  -11.7410 P.3   195  ADP195      0.5373
      2  O1B       38.7400   64.7020  -12.6930 O.2   195  ADP195     -0.2221
      3  O2B       39.3870   66.4460  -11.1310 O.3   195  ADP195     -0.1143
      4  O3B       37.3470   66.6970  -12.4340 O.3   195  ADP195     -0.1143
      5  PA        37.4430   64.9660   -9.0240 P.3   195  ADP195      0.2231
      6  O1A       38.6890   64.3580   -8.5800 O.2   195  ADP195     -0.5169
      7  O2A       37.1380   66.2620   -8.5000 O.3   195  ADP195     -0.4370
      8  O3A       37.4720   65.0380  -10.6110 O.3   195  ADP195     -0.2261
      9  O5'       36.2390   64.0160   -8.6740 O.3   195  ADP195     -0.3111
     10  C5'       34.9320   64.1810   -9.2170 C.3   195  ADP195      0.1813
     11  C4'       33.9240   63.7860   -8.1880 C.3   195  ADP195      0.1821
     12  O4'       33.9370   62.3830   -8.1660 O.3   195  ADP195     -0.3135
     13  C3'       34.2460   64.3230   -6.8140 C.3   195  ADP195      0.2184
     14  O3'       33.0620   64.6430   -6.0890 O.3   195  ADP195     -0.2174
     15  C2'       34.9270   63.1290   -6.2200 C.3   195  ADP195      0.2570
     16  O2'       34.8070   63.1200   -4.7920 O.3   195  ADP195     -0.2130
     17  C1'       34.2200   61.9470   -6.8640 C.3   195  ADP195      0.3186
     18  N9        35.1000   60.8240   -7.0520 N.pl3 195  ADP195     -0.1439
     19  C8        36.4030   60.8150   -7.4870 C.3   195  ADP195      0.3377
     20  N7        36.8690   59.6260   -7.8160 N.2   195  ADP195     -0.2095
     21  C5        35.8010   58.7990   -7.5350 C.2   195  ADP195      0.2526
     22  C6        35.6400   57.3800   -7.5930 C.2   195  ADP195      0.4393
     23  N6        36.6270   56.5320   -7.8730 N.pl3 195  ADP195      0.2180
     24  N1        34.4310   56.8650   -7.2870 N.2   195  ADP195      0.0021
     25  C2        33.4550   57.7060   -6.8850 C.3   195  ADP195      0.5254
     26  N3        33.5560   59.0460   -6.6670 N.2   195  ADP195     -0.0055
     27  C4        34.7340   59.5310   -7.0510 C.2   195  ADP195      0.3518
@<TRIPOS>BOND
     1     2     1    2
     2     4     1    1
     3     1     3    1
     4     1     8    1
     5     8     5    1
     6    10     9    1
     7    10    11    1
     8     5     9    1
     9     5     6    2
    10     5     7    1
    11    11    12    1
    12    11    13    1
    13    12    17    1
    14    23    22    1
    15    20    21    2
    16    20    19    1
    17    22    21    1
    18    22    24    2
    19    21    27    1
    20    19    18    1
    21    24    25    1
    22    18    27    1
    23    18    17    1
    24    27    26    2
    25    25    26    1
    26    17    15    1
    27    13    15    1
    28    13    14    1
    29    15    16    1
