@<TRIPOS>MOLECULE
3ukd_C5P_A_1.pdb
 21 22 0 0 0
SMALL
GASTEIGER

@<TRIPOS>ATOM
      1  O3P       37.8640   70.4320  -14.2840 O.3   196  C5P196     -0.1145
      2  P         39.0870   71.3460  -14.2140 P.3   196  C5P196      0.5327
      3  O1P       39.0350   72.1300  -12.9630 O.3   196  C5P196     -0.1145
      4  O2P       40.2680   70.5560  -14.4440 O.2   196  C5P196     -0.2224
      5  O5'       38.8520   72.3340  -15.4380 O.3   196  C5P196     -0.2675
      6  C5'       37.8500   73.3570  -15.4040 C.3   196  C5P196      0.1859
      7  C4'       37.8850   74.1950  -16.6750 C.3   196  C5P196      0.1801
      8  O4'       39.0570   74.9390  -16.6400 O.3   196  C5P196     -0.3320
      9  C3'       38.0040   73.3930  -17.9260 C.3   196  C5P196      0.2158
     10  O3'       36.7740   72.7680  -18.2610 O.3   196  C5P196     -0.2175
     11  C2'       38.3470   74.5620  -18.8320 C.3   196  C5P196      0.2319
     12  O2'       37.2300   75.4530  -19.0500 O.3   196  C5P196     -0.2157
     13  C1'       39.4420   75.2120  -17.9890 C.3   196  C5P196      0.2400
     14  N1        40.7180   74.6320  -18.2870 N.am  196  C5P196     -0.1778
     15  C2        41.4590   75.1310  -19.3540 C.1   196  C5P196      0.2756
     16  N3        42.6550   74.6660  -19.6740 N.2   196  C5P196     -0.3024
     17  C4        43.2230   73.6420  -19.0050 C.2   196  C5P196      0.2346
     18  C5        42.5940   73.2420  -17.8790 C.2   196  C5P196      0.0687
     19  C6        41.4460   73.6950  -17.4610 C.2   196  C5P196      0.0836
     20  O2        40.9190   76.0810  -20.1030 O.2   196  C5P196     -0.1925
     21  N4        44.3910   73.1040  -19.4180 N.pl3 196  C5P196     -0.0921
@<TRIPOS>BOND
     1    20    15    2
     2    16    15    2
     3    16    17    2
     4    21    17    1
     5    15    14   am
     6    12    11    1
     7    17    18    1
     8    11    13    1
     9    11     9    1
    10    14    13    1
    11    14    19    1
    12    10     9    1
    13    13     8    1
    14     9     7    1
    15    18    19    2
    16     7     8    1
    17     7     6    1
    18     5     6    1
    19     5     2    1
    20     4     2    2
    21     1     2    1
    22     2     3    1
