@<TRIPOS>MOLECULE
3ukf_GDU_A_1.pdb
 36 38 0 0 0
SMALL
GASTEIGER

@<TRIPOS>ATOM
      1  N1         3.9500  -13.8150   -1.0770 N.am  802  GDU802     -0.1766
      2  C2         4.7210  -14.9040   -1.1810 C.1   802  GDU802      0.2845
      3  N3         4.9460  -15.7430   -0.1480 N.2   802  GDU802     -0.2452
      4  C4         4.3870  -15.4990    1.0360 C.1   802  GDU802      0.2182
      5  C5         3.5800  -14.3850    1.1950 C.2   802  GDU802      0.1242
      6  C6         3.3700  -13.5350    0.1050 C.2   802  GDU802      0.0929
      7  O2         5.2410  -15.1450   -2.2450 O.2   802  GDU802     -0.1918
      8  O4         4.6040  -16.3200    2.0580 O.2   802  GDU802     -0.2085
      9  C1D        3.7370  -12.9090   -2.2570 C.3   802  GDU802      0.2401
     10  C2D        2.3350  -12.9640   -2.7630 C.3   802  GDU802      0.2319
     11  O2D        2.2820  -13.6060   -3.9940 O.3   802  GDU802     -0.2157
     12  C3D        1.9040  -11.5890   -2.8440 C.3   802  GDU802      0.2158
     13  C4D        3.1340  -10.8140   -2.8020 C.3   802  GDU802      0.1799
     14  O4D        4.0190  -11.5910   -1.9780 O.3   802  GDU802     -0.3320
     15  O3D        1.1700  -11.3200   -4.0160 O.3   802  GDU802     -0.2175
     16  C5D        2.9000   -9.5070   -2.1950 C.3   802  GDU802      0.1813
     17  O5D        2.3110   -9.4460   -0.9320 O.3   802  GDU802     -0.3112
     18  PA         2.8650   -8.4090    0.1520 P.3   802  GDU802      0.2189
     19  O1A        2.0260   -8.6050    1.4370 O.3   802  GDU802     -0.4371
     20  O2A        4.3620   -8.6270    0.4480 O.2   802  GDU802     -0.5170
     21  O3A        2.6140   -6.9210   -0.4080 O.3   802  GDU802     -0.2703
     22  PB         1.2880   -6.1560   -0.1800 P.3   802  GDU802      0.2208
     23  O1B        0.1730   -7.0820   -0.3770 O.3   802  GDU802     -0.4371
     24  O2B        1.1670   -4.9970   -1.1010 O.2   802  GDU802     -0.5170
     25  O3B        1.2770   -5.7120    1.2540 O.3   802  GDU802     -0.2857
     26  C1'        1.5180   -4.3910    1.6060 C.3   802  GDU802      0.2742
     27  C2'        2.8850   -3.9220    1.1540 C.3   802  GDU802      0.2409
     28  C3'        3.9330   -4.8390    1.5910 C.3   802  GDU802      0.2198
     29  C4'        3.8960   -5.0890    3.0100 C.3   802  GDU802      0.2144
     30  C5'        2.5360   -5.1010    3.6600 C.3   802  GDU802      0.1835
     31  C6'        2.6400   -4.6800    5.0680 C.3   802  GDU802      0.2142
     32  O2'        2.9330   -3.6730   -0.2490 O.3   802  GDU802     -0.2149
     33  O3'        5.2240   -4.2880    1.2200 O.3   802  GDU802     -0.2174
     34  O4'        4.8020   -4.2100    3.7160 O.3   802  GDU802     -0.2176
     35  O5'        1.4800   -4.2820    2.9950 O.3   802  GDU802     -0.3254
     36  O6'        1.4900   -4.1540    5.6550 O.3   802  GDU802     -0.2176
@<TRIPOS>BOND
     1    15    12    1
     2    11    10    1
     3    12    13    1
     4    12    10    1
     5    13    16    1
     6    13    14    1
     7    10     9    1
     8     9    14    1
     9     9     1    1
    10     7     2    2
    11    16    17    1
    12     2     1   am
    13     2     3    2
    14    24    22    2
    15     1     6    1
    16    17    18    1
    17    21    22    1
    18    21    18    1
    19    23    22    1
    20    32    27    1
    21    22    25    1
    22     3     4    2
    23     6     5    2
    24    18    20    2
    25    18    19    1
    26     4     5    1
    27     4     8    2
    28    27    28    1
    29    27    26    1
    30    33    28    1
    31    25    26    1
    32    28    29    1
    33    26    35    1
    34    35    30    1
    35    29    30    1
    36    29    34    1
    37    30    31    1
    38    31    36    1
