@<TRIPOS>MOLECULE
3ukh_GDU_A_1.pdb
 36 38 0 0 0
SMALL
GASTEIGER

@<TRIPOS>ATOM
      1  N1         6.8860   13.5550    0.6640 N.am  521  GDU521     -0.1766
      2  C2         7.4260   14.7740    0.5140 C.1   521  GDU521      0.2845
      3  N3         7.9610   15.1940   -0.6540 N.2   521  GDU521     -0.2452
      4  C4         7.9630   14.3840   -1.7140 C.1   521  GDU521      0.2182
      5  C5         7.4170   13.1180   -1.6060 C.2   521  GDU521      0.1242
      6  C6         6.8730   12.7130   -0.3870 C.2   521  GDU521      0.0929
      7  O2         7.4410   15.5340    1.4540 O.2   521  GDU521     -0.1918
      8  O4         8.4870   14.7880   -2.8720 O.2   521  GDU521     -0.2085
      9  C1D        6.2890   13.0910    1.9670 C.3   521  GDU521      0.2401
     10  C2D        5.0970   13.8920    2.3590 C.3   521  GDU521      0.2319
     11  O2D        5.3500   14.6060    3.5170 O.3   521  GDU521     -0.2157
     12  C3D        4.0130   12.9680    2.5640 C.3   521  GDU521      0.2158
     13  C4D        4.5360   11.6370    2.3130 C.3   521  GDU521      0.1799
     14  O4D        5.9060   11.7710    1.8910 O.3   521  GDU521     -0.3320
     15  O3D        3.5120   13.0430    3.8790 O.3   521  GDU521     -0.2175
     16  C5D        3.7860   11.0530    1.2100 C.3   521  GDU521      0.1813
     17  O5D        4.4920   10.8730    0.0240 O.3   521  GDU521     -0.3112
     18  PA         4.6320    9.3780   -0.5050 P.3   521  GDU521      0.2189
     19  O1A        4.1290    9.3370   -1.9700 O.2   521  GDU521     -0.5170
     20  O2A        6.0810    8.8630   -0.4020 O.3   521  GDU521     -0.4371
     21  O3A        3.6230    8.5380    0.4130 O.3   521  GDU521     -0.2703
     22  PB         2.8210    7.3680   -0.1820 P.3   521  GDU521      0.2208
     23  O1B        2.3890    7.7300   -1.5300 O.2   521  GDU521     -0.5170
     24  O2B        1.6560    7.0270    0.6690 O.3   521  GDU521     -0.4371
     25  O3B        3.7890    6.2280   -0.2650 O.3   521  GDU521     -0.2857
     26  C1'        3.7460    5.3370   -1.3210 C.3   521  GDU521      0.2742
     27  C2'        4.5040    4.0870   -0.9340 C.3   521  GDU521      0.2409
     28  C3'        5.9030    4.3520   -0.6090 C.3   521  GDU521      0.2198
     29  C4'        6.5730    5.1590   -1.5850 C.3   521  GDU521      0.2144
     30  C5'        5.7580    6.2520   -2.2100 C.3   521  GDU521      0.1835
     31  C6'        6.3850    6.6640   -3.4730 C.3   521  GDU521      0.2142
     32  O2'        3.8420    3.4020    0.1260 O.3   521  GDU521     -0.2149
     33  O3'        6.6020    3.0850   -0.5210 O.3   521  GDU521     -0.2174
     34  O4'        7.1720    4.3140   -2.5920 O.3   521  GDU521     -0.2176
     35  O5'        4.3330    5.9020   -2.4540 O.3   521  GDU521     -0.3254
     36  O6'        7.5220    7.4690   -3.3810 O.3   521  GDU521     -0.2176
@<TRIPOS>BOND
     1    31    36    1
     2    31    30    1
     3     8     4    2
     4    34    29    1
     5    35    30    1
     6    35    26    1
     7    30    29    1
     8    19    18    2
     9     4     5    1
    10     4     3    2
    11     5     6    2
    12    29    28    1
    13    23    22    2
    14    26    27    1
    15    26    25    1
    16    27    28    1
    17    27    32    1
    18     3     2    2
    19    28    33    1
    20    18    20    1
    21    18    17    1
    22    18    21    1
    23     6     1    1
    24    25    22    1
    25    22    21    1
    26    22    24    1
    27    17    16    1
    28     2     1   am
    29     2     7    2
    30     1     9    1
    31    16    13    1
    32    14     9    1
    33    14    13    1
    34     9    10    1
    35    13    12    1
    36    10    12    1
    37    10    11    1
    38    12    15    1
