@<TRIPOS>MOLECULE
3ukj_ENO_A_1.pdb
 13 13 0 0 0
SMALL
GASTEIGER

@<TRIPOS>ATOM
      1  O4        22.0890   64.5520   15.8390 O.2   401  ENO401     -0.2839
      2  C9        19.0560   64.7970   14.0900 C.ar  401  ENO401     -0.0005
      3  C8        18.3570   65.8500   13.4710 C.ar  401  ENO401      0.0417
      4  C7        17.8020   66.8290   14.2940 C.ar  401  ENO401      0.1957
      5  C6        17.9190   66.7950   15.6900 C.ar  401  ENO401      0.0417
      6  C5        18.6910   65.8150   16.2890 C.ar  401  ENO401     -0.0005
      7  C4        19.2060   64.7840   15.4970 C.ar  401  ENO401     -0.0140
      8  O3        17.0440   67.8080   13.7340 O.3   401  ENO401     -0.2866
      9  C3        19.8740   63.6210   16.2020 C.3   401  ENO401      0.1025
     10  C2        21.3710   63.7250   16.4280 C.2   401  ENO401      0.2564
     11  C1        22.0240   62.6300   17.1670 C.2   401  ENO401      0.4222
     12  O2        23.2430   62.6700   17.2310 O.co2 401  ENO401     -0.2373
     13  O1        21.3730   61.7190   17.7420 O.co2 401  ENO401     -0.2373
@<TRIPOS>BOND
     1     3     2   ar
     2     3     4   ar
     3     8     4    1
     4     2     7   ar
     5     4     5   ar
     6     7     9    1
     7     7     6   ar
     8     5     6   ar
     9     1    10    2
    10     9    10    1
    11    10    11    1
    12    11    12   ar
    13    11    13   ar
