@<TRIPOS>MOLECULE
3ukk_UDP_A_1.pdb
 25 26 0 0 0
SMALL
GASTEIGER

@<TRIPOS>ATOM
      1  N1        19.8820  -14.5910   56.4610 N.am  602  UDP602     -0.1996
      2  C2        20.7900  -15.6230   56.3860 C.1   602  UDP602      0.2802
      3  N3        21.6140  -15.9050   57.4510 N.2   602  UDP602     -0.2497
      4  C4        21.6280  -15.0610   58.5430 C.1   602  UDP602      0.1941
      5  C5        20.8450  -13.9050   58.5150 C.3   602  UDP602      0.1579
      6  C6        20.1180  -13.5970   57.3680 C.3   602  UDP602      0.1249
      7  O2        20.9070  -16.2400   55.3330 O.2   602  UDP602     -0.1922
      8  O4        22.3320  -15.3320   59.5250 O.2   602  UDP602     -0.2133
      9  C1'       19.1400  -14.3130   55.2240 C.3   602  UDP602      0.2361
     10  C2'       17.6430  -14.4480   55.4330 C.3   602  UDP602      0.2316
     11  O2'       17.1380  -15.3040   54.4360 O.3   602  UDP602     -0.2157
     12  C3'       17.0980  -13.0660   55.1680 C.3   602  UDP602      0.2158
     13  C4'       18.1870  -12.4130   54.3420 C.3   602  UDP602      0.1799
     14  O4'       19.3890  -12.9960   54.7830 O.3   602  UDP602     -0.3322
     15  O3'       15.9040  -13.1520   54.4300 O.3   602  UDP602     -0.2175
     16  C5'       18.2520  -10.9090   54.5330 C.3   602  UDP602      0.1813
     17  O5'       18.6660  -10.6180   55.8470 O.3   602  UDP602     -0.3111
     18  PA        19.0190   -9.0890   56.1790 P.3   602  UDP602      0.2231
     19  O1A       20.2280   -8.6850   55.4310 O.2   602  UDP602     -0.5169
     20  O2A       19.1880   -8.8850   57.6360 O.3   602  UDP602     -0.4370
     21  O3A       17.7370   -8.3470   55.5430 O.3   602  UDP602     -0.2261
     22  PB        17.3120   -6.8300   55.8640 P.3   602  UDP602      0.5373
     23  O1B       16.0910   -6.8450   56.6990 O.3   602  UDP602     -0.1143
     24  O2B       17.0600   -6.1380   54.5800 O.2   602  UDP602     -0.2221
     25  O3B       18.3940   -6.1200   56.5840 O.3   602  UDP602     -0.1143
@<TRIPOS>BOND
     1    13    16    1
     2    13    14    1
     3    13    12    1
     4    15    12    1
     5    11    10    1
     6    16    17    1
     7    24    22    2
     8    14     9    1
     9    12    10    1
    10     9    10    1
    11     9     1    1
    12     7     2    2
    13    19    18    2
    14    21    22    1
    15    21    18    1
    16    17    18    1
    17    22    25    1
    18    22    23    1
    19    18    20    1
    20     2     1   am
    21     2     3    2
    22     1     6    1
    23     6     5    1
    24     3     4    2
    25     5     4    1
    26     4     8    2
