@<TRIPOS>MOLECULE
3ukl_UDP_A_1.pdb
 25 26 0 0 0
SMALL
GASTEIGER

@<TRIPOS>ATOM
      1  N1         5.5520   12.7470    2.1360 N.am  800  UDP800     -0.1996
      2  C2         6.6220   13.6200    2.1660 C.1   800  UDP800      0.2802
      3  N3         7.0110   14.2870    1.0230 N.2   800  UDP800     -0.2497
      4  C4         6.4800   13.9140   -0.1980 C.1   800  UDP800      0.1941
      5  C5         5.4240   13.0060   -0.2240 C.3   800  UDP800      0.1579
      6  C6         5.1040   12.2920    0.9270 C.3   800  UDP800      0.1249
      7  O2         7.2490   13.7720    3.2120 O.2   800  UDP800     -0.1922
      8  O4         6.9480   14.3700   -1.2490 O.2   800  UDP800     -0.2133
      9  C1'        5.1900   12.0540    3.3850 C.3   800  UDP800      0.2361
     10  C2'        3.6960   12.1590    3.6330 C.3   800  UDP800      0.2316
     11  O2'        3.4900   12.5570    4.9680 O.3   800  UDP800     -0.2157
     12  C3'        3.1820   10.7490    3.4420 C.3   800  UDP800      0.2158
     13  C4'        4.4080    9.8950    3.7030 C.3   800  UDP800      0.1799
     14  O4'        5.5080   10.6780    3.2980 O.3   800  UDP800     -0.3322
     15  O3'        2.1550   10.4580    4.3590 O.3   800  UDP800     -0.2175
     16  C5'        4.3920    8.5790    2.9390 C.3   800  UDP800      0.1813
     17  O5'        4.5000    8.8130    1.5530 O.3   800  UDP800     -0.3111
     18  PA         4.3000    7.5600    0.5660 P.3   800  UDP800      0.2231
     19  O1A        5.5510    6.7760    0.4680 O.3   800  UDP800     -0.4370
     20  O2A        3.8180    7.9910   -0.7660 O.2   800  UDP800     -0.5169
     21  O3A        3.2140    6.7280    1.4130 O.3   800  UDP800     -0.2261
     22  PB         2.0160    5.8980    0.7410 P.3   800  UDP800      0.5373
     23  O1B        0.7590    6.6780    0.8450 O.3   800  UDP800     -0.1143
     24  O2B        1.9000    4.6070    1.4580 O.3   800  UDP800     -0.1143
     25  O3B        2.3220    5.6350   -0.6850 O.2   800  UDP800     -0.2221
@<TRIPOS>BOND
     1     8     4    2
     2    20    18    2
     3    25    22    2
     4     5     4    1
     5     5     6    1
     6     4     3    2
     7    19    18    1
     8    18    21    1
     9    18    17    1
    10    22    23    1
    11    22    21    1
    12    22    24    1
    13     6     1    1
    14     3     2    2
    15    17    16    1
    16     1     2   am
    17     1     9    1
    18     2     7    2
    19    16    13    1
    20    14     9    1
    21    14    13    1
    22     9    10    1
    23    12    10    1
    24    12    13    1
    25    12    15    1
    26    10    11    1
