@<TRIPOS>MOLECULE
3uko_NAD_A_1.pdb
 44 48 0 0 0
SMALL
GASTEIGER

@<TRIPOS>ATOM
      1  PA        68.8270   20.6710   43.7950 P.3   402  NAD402      0.2189
      2  O1A       68.8620   21.7420   42.7500 O.2   402  NAD402     -0.5170
      3  O2A       69.9890   20.6260   44.7100 O.3   402  NAD402     -0.4371
      4  O5B       68.8270   19.2410   43.1000 O.3   402  NAD402     -0.3112
      5  C5B       68.0290   18.9570   41.9510 C.3   402  NAD402      0.1813
      6  C4B       68.7360   17.8690   41.1410 C.3   402  NAD402      0.1821
      7  O4B       67.8900   17.4570   40.0530 O.3   402  NAD402     -0.3135
      8  C3B       70.1010   18.2260   40.5480 C.3   402  NAD402      0.2184
      9  O3B       71.0210   17.1860   40.9460 O.3   402  NAD402     -0.2174
     10  C2B       69.9080   18.2270   39.0320 C.3   402  NAD402      0.2570
     11  O2B       71.0630   17.8200   38.2690 O.3   402  NAD402     -0.2130
     12  C1B       68.7450   17.2190   38.9360 C.3   402  NAD402      0.3186
     13  N9A       67.9460   17.3650   37.7350 N.pl3 402  NAD402     -0.1439
     14  C8A       67.5140   18.5080   37.1310 C.3   402  NAD402      0.3377
     15  N7A       66.7590   18.1930   36.0610 N.2   402  NAD402     -0.2095
     16  C5A       66.7300   16.8440   35.9950 C.2   402  NAD402      0.2526
     17  C6A       66.1040   15.8880   35.1020 C.2   402  NAD402      0.4393
     18  N6A       65.3720   16.3630   34.0520 N.pl3 402  NAD402      0.2180
     19  N1A       66.2710   14.5500   35.3530 N.2   402  NAD402      0.0021
     20  C2A       66.9600   14.0810   36.4080 C.3   402  NAD402      0.5254
     21  N3A       67.6290   14.9130   37.2620 N.2   402  NAD402     -0.0055
     22  C4A       67.4910   16.2820   37.1090 C.2   402  NAD402      0.3518
     23  O3        67.4320   20.7750   44.5770 O.3   402  NAD402     -0.2703
     24  PN        67.1370   20.3600   46.0850 P.3   402  NAD402      0.2189
     25  O1N       67.4970   21.4310   47.0930 O.3   402  NAD402     -0.4371
     26  O2N       67.5250   18.9490   46.2990 O.2   402  NAD402     -0.5170
     27  O5D       65.5540   20.3980   45.8590 O.3   402  NAD402     -0.3112
     28  C5D       64.8200   19.4630   45.1200 C.3   402  NAD402      0.1813
     29  C4D       63.3270   19.8000   44.9280 C.3   402  NAD402      0.1799
     30  O4D       62.6390   19.4960   46.1470 O.3   402  NAD402     -0.3327
     31  C3D       62.9780   21.2420   44.6340 C.3   402  NAD402      0.2158
     32  O3D       61.8780   21.2350   43.6890 O.3   402  NAD402     -0.2175
     33  C2D       62.4860   21.7940   45.9400 C.3   402  NAD402      0.2309
     34  O2D       61.6770   22.9740   45.7220 O.3   402  NAD402     -0.2158
     35  C1D       61.7830   20.5570   46.5040 C.3   402  NAD402      0.2263
     36  N1N       61.5630   20.6680   47.9470 N.pl3 402  NAD402     -0.2787
     37  C2N       60.3760   20.2210   48.3460 C.3   402  NAD402      0.1244
     38  C3N       59.9790   20.2860   49.6550 C.2   402  NAD402      0.0544
     39  C7N       58.6260   19.7030   50.0370 C.2   402  NAD402      0.2818
     40  O7N       58.2020   19.8880   51.1810 O.2   402  NAD402     -0.2670
     41  N7N       57.9410   18.9700   49.1390 N.am  402  NAD402     -0.0839
     42  C4N       60.9030   20.8340   50.5980 C.2   402  NAD402      0.0033
     43  C5N       62.1820   21.1750   50.1730 C.2   402  NAD402      0.0157
     44  C6N       62.4890   21.1330   48.8390 C.2   402  NAD402      0.0633
@<TRIPOS>BOND
     1    18    17    1
     2    17    19    2
     3    17    16    1
     4    19    20    1
     5    16    15    2
     6    16    22    1
     7    15    14    1
     8    20    21    1
     9    22    21    2
    10    22    13    1
    11    14    13    1
    12    13    12    1
    13    11    10    1
    14    12    10    1
    15    12     7    1
    16    10     8    1
    17     7     6    1
    18     8     9    1
    19     8     6    1
    20     6     5    1
    21     5     4    1
    22     2     1    2
    23     4     1    1
    24    32    31    1
    25     1    23    1
    26     1     3    1
    27    23    24    1
    28    31    29    1
    29    31    33    1
    30    29    28    1
    31    29    30    1
    32    28    27    1
    33    34    33    1
    34    27    24    1
    35    33    35    1
    36    24    26    2
    37    24    25    1
    38    30    35    1
    39    35    36    1
    40    36    37    1
    41    36    44    1
    42    37    38    1
    43    44    43    2
    44    41    39   am
    45    38    39    1
    46    38    42    2
    47    39    40    2
    48    43    42    1
