@<TRIPOS>MOLECULE
3ukp_GDU_A_1.pdb
 36 38 0 0 0
SMALL
GASTEIGER

@<TRIPOS>ATOM
      1  N1        10.8690   89.3060   93.8550 N.am  602  GDU602     -0.1766
      2  C2        12.1220   88.9900   93.4850 C.1   602  GDU602      0.2845
      3  N3        12.8190   89.6760   92.5740 N.2   602  GDU602     -0.2452
      4  C4        12.2690   90.7490   91.9850 C.1   602  GDU602      0.2182
      5  C5        10.9740   91.1140   92.3380 C.2   602  GDU602      0.1242
      6  C6        10.2770   90.3700   93.2850 C.2   602  GDU602      0.0929
      7  O2        12.6730   88.0120   94.0140 O.2   602  GDU602     -0.1918
      8  O4        12.9630   91.4770   91.0500 O.2   602  GDU602     -0.2085
      9  C1D       10.1330   88.5130   94.8610 C.3   602  GDU602      0.2401
     10  C2D       10.0350   89.1590   96.1810 C.3   602  GDU602      0.2319
     11  O2D       10.7800   88.4190   97.1110 O.3   602  GDU602     -0.2157
     12  C3D        8.6390   89.1730   96.5280 C.3   602  GDU602      0.2158
     13  C4D        7.9120   88.8150   95.3230 C.3   602  GDU602      0.1799
     14  O4D        8.8390   88.2020   94.4400 O.3   602  GDU602     -0.3320
     15  O3D        8.3550   88.2280   97.5360 O.3   602  GDU602     -0.2175
     16  C5D        7.3440   90.0480   94.6990 C.3   602  GDU602      0.1813
     17  O5D        6.0080   90.0520   94.3150 O.3   602  GDU602     -0.3112
     18  PA         4.8550   89.5560   95.3080 P.3   602  GDU602      0.2189
     19  O1A        3.5570   90.1970   94.9160 O.2   602  GDU602     -0.5170
     20  O2A        4.7310   88.0380   95.2290 O.3   602  GDU602     -0.4371
     21  O3A        5.2210   89.9710   96.7860 O.3   602  GDU602     -0.2703
     22  PB         4.2490   89.6020   98.0260 P.3   602  GDU602      0.2208
     23  O1B        4.8600   90.1520   99.2900 O.3   602  GDU602     -0.4371
     24  O2B        4.1850   88.0670   98.1610 O.2   602  GDU602     -0.5170
     25  O3B        2.8180   90.1850   97.8360 O.3   602  GDU602     -0.2857
     26  C1'        2.5340   91.5020   98.1990 C.3   602  GDU602      0.2742
     27  C2'        1.5020   91.5630   99.3050 C.3   602  GDU602      0.2409
     28  C3'        0.0950   91.7530   98.8840 C.3   602  GDU602      0.2198
     29  C4'       -0.0460   92.7080   97.8540 C.3   602  GDU602      0.2144
     30  C5'        0.8090   92.3780   96.6820 C.3   602  GDU602      0.1835
     31  C6'        0.6170   93.3220   95.5570 C.3   602  GDU602      0.2142
     32  O2'        1.5820   90.4010  100.1040 O.3   602  GDU602     -0.2149
     33  O3'       -0.6950   92.1690  100.0230 O.3   602  GDU602     -0.2174
     34  O4'        0.3020   94.0160   98.3950 O.3   602  GDU602     -0.2176
     35  O5'        2.2470   92.2730   97.0590 O.3   602  GDU602     -0.3254
     36  O6'       -0.6430   93.4030   95.0160 O.3   602  GDU602     -0.2176
@<TRIPOS>BOND
     1     8     4    2
     2     4     5    1
     3     4     3    2
     4     5     6    2
     5     3     2    2
     6     6     1    1
     7     2     1   am
     8     2     7    2
     9     1     9    1
    10    17    16    1
    11    17    18    1
    12    14     9    1
    13    14    13    1
    14    16    13    1
    15     9    10    1
    16    19    18    2
    17    36    31    1
    18    20    18    1
    19    18    21    1
    20    13    12    1
    21    31    30    1
    22    10    12    1
    23    10    11    1
    24    12    15    1
    25    30    35    1
    26    30    29    1
    27    21    22    1
    28    35    26    1
    29    25    22    1
    30    25    26    1
    31    29    34    1
    32    29    28    1
    33    22    24    2
    34    22    23    1
    35    26    27    1
    36    28    27    1
    37    28    33    1
    38    27    32    1
