@<TRIPOS>MOLECULE
3ukq_GDU_A_1.pdb
 36 38 0 0 0
SMALL
GASTEIGER

@<TRIPOS>ATOM
      1  N1        42.7100   41.2610   50.8660 N.am  602  GDU602     -0.1766
      2  C2        43.3530   42.4280   51.0000 C.1   602  GDU602      0.2845
      3  N3        43.6780   42.9500   52.2030 N.2   602  GDU602     -0.2452
      4  C4        43.3560   42.2950   53.3190 C.1   602  GDU602      0.2182
      5  C5        42.6850   41.0870   53.2320 C.2   602  GDU602      0.1242
      6  C6        42.3660   40.5730   51.9730 C.2   602  GDU602      0.0929
      7  O2        43.6570   43.0400   50.0010 O.2   602  GDU602     -0.1918
      8  O4        43.6760   42.8030   54.5080 O.2   602  GDU602     -0.2085
      9  C1D       42.3690   40.7300   49.4990 C.3   602  GDU602      0.2401
     10  C2D       42.3170   39.2410   49.4750 C.3   602  GDU602      0.2319
     11  O2D       43.4590   38.7190   48.8940 O.3   602  GDU602     -0.2157
     12  C3D       41.1410   38.8840   48.7270 C.3   602  GDU602      0.2158
     13  C4D       40.5920   40.1310   48.2200 C.3   602  GDU602      0.1799
     14  O4D       41.1520   41.1780   49.0350 O.3   602  GDU602     -0.3320
     15  O3D       41.4430   37.9980   47.6730 O.3   602  GDU602     -0.2175
     16  C5D       39.1440   40.1270   48.4090 C.3   602  GDU602      0.1813
     17  O5D       38.6480   41.0430   49.3360 O.3   602  GDU602     -0.3112
     18  PA        37.2230   40.8100   50.0170 P.3   602  GDU602      0.2189
     19  O1A       37.4760   40.3200   51.4640 O.3   602  GDU602     -0.4371
     20  O2A       36.4090   42.1190   50.0050 O.2   602  GDU602     -0.5170
     21  O3A       36.4680   39.6420   49.2110 O.3   602  GDU602     -0.2703
     22  PB        35.6450   38.5850   49.9800 P.3   602  GDU602      0.2208
     23  O1B       36.5950   37.7480   50.7110 O.3   602  GDU602     -0.4371
     24  O2B       34.8160   37.7630   49.0640 O.2   602  GDU602     -0.5170
     25  O3B       34.7920   39.3080   50.9820 O.3   602  GDU602     -0.2857
     26  C1'       33.4030   39.2410   50.9300 C.3   602  GDU602      0.2742
     27  C2'       32.8040   40.3040   50.0300 C.3   602  GDU602      0.2409
     28  C3'       33.2830   41.6430   50.3740 C.3   602  GDU602      0.2198
     29  C4'       33.2440   41.9540   51.7890 C.3   602  GDU602      0.2144
     30  C5'       33.2810   40.7930   52.7570 C.3   602  GDU602      0.1835
     31  C6'       32.4590   41.0910   53.9440 C.3   602  GDU602      0.2142
     32  O2'       32.9840   40.0000   48.6470 O.3   602  GDU602     -0.2149
     33  O3'       32.5120   42.6090   49.6120 O.3   602  GDU602     -0.2174
     34  O4'       32.1900   42.8930   52.1150 O.3   602  GDU602     -0.2176
     35  O5'       32.8900   39.4600   52.2090 O.3   602  GDU602     -0.3254
     36  O6'       32.0620   40.0200   54.7480 O.3   602  GDU602     -0.2176
@<TRIPOS>BOND
     1    15    12    1
     2    13    16    1
     3    13    12    1
     4    13    14    1
     5    16    17    1
     6    32    27    1
     7    12    10    1
     8    11    10    1
     9    14     9    1
    10    24    22    2
    11    21    22    1
    12    21    18    1
    13    17    18    1
    14    10     9    1
    15     9     1    1
    16    33    28    1
    17    22    23    1
    18    22    25    1
    19     7     2    2
    20    20    18    2
    21    18    19    1
    22    27    28    1
    23    27    26    1
    24    28    29    1
    25     1     2   am
    26     1     6    1
    27    26    25    1
    28    26    35    1
    29     2     3    2
    30    29    34    1
    31    29    30    1
    32     6     5    2
    33     3     4    2
    34    35    30    1
    35    30    31    1
    36     5     4    1
    37     4     8    2
    38    31    36    1
