@<TRIPOS>MOLECULE
3ukr_CKH_B_1.pdb
 22 24 0 0 0
SMALL
GASTEIGER

@<TRIPOS>ATOM
      1  CAQ        2.3450   14.7090   38.6440 C.3   401  CKH401      0.0661
      2  CAP        1.1600   14.9290   37.7010 C.2   401  CKH401      0.1055
      3  NAO        0.5770   13.9750   36.9820 N.2   401  CKH401     -0.4065
      4  CAN       -0.4480   14.5090   36.3170 C.ar  401  CKH401      0.1307
      5  CAM       -1.3870   13.9460   35.4600 C.ar  401  CKH401      0.0320
      6  CAL       -2.3950   14.7320   34.9120 C.ar  401  CKH401      0.0026
      7  CAA       -2.4670   16.0850   35.2170 C.ar  401  CKH401      0.0002
      8  CAB       -1.5270   16.6530   36.0720 C.ar  401  CKH401      0.0023
      9  CAC       -0.5220   15.8650   36.6190 C.ar  401  CKH401      0.0278
     10  CAD        0.5140   16.1420   37.5030 C.2   401  CKH401      0.0075
     11  CAE        0.8950   17.5120   38.0720 C.3   401  CKH401      0.0521
     12  CAF        0.1010   17.8350   39.3400 C.3   401  CKH401      0.1202
     13  NAG        0.4990   16.9240   40.4230 N.am  401  CKH401     -0.2012
     14  CAH        1.4030   17.2820   41.3290 C.2   401  CKH401      0.2670
     15  OAR        1.9490   18.3870   41.3270 O.2   401  CKH401     -0.2683
     16  CAI        1.7400   16.2520   42.4110 C.ar  401  CKH401      0.0824
     17  CAJ        2.8370   16.4880   43.2280 C.ar  401  CKH401      0.0068
     18  CAK        3.1860   15.5860   44.2290 C.ar  401  CKH401      0.0003
     19  CAU        2.4320   14.4330   44.4160 C.ar  401  CKH401      0.0023
     20  CAT        1.3330   14.1930   43.6000 C.ar  401  CKH401      0.0298
     21  CAS        0.9860   15.0950   42.6030 C.ar  401  CKH401      0.1445
     22  FAV       -0.0980   14.8300   41.8450 F     401  CKH401     -0.2040
@<TRIPOS>BOND
     1     6     7   ar
     2     6     5   ar
     3     7     8   ar
     4     5     4   ar
     5     8     9   ar
     6     4     9   ar
     7     4     3    2
     8     9    10    2
     9     3     2    2
    10    10     2    1
    11    10    11    1
    12     2     1    1
    13    11    12    1
    14    12    13    1
    15    13    14   am
    16    15    14    2
    17    14    16    1
    18    22    21    1
    19    16    21   ar
    20    16    17   ar
    21    21    20   ar
    22    17    18   ar
    23    20    19   ar
    24    18    19   ar
