@<TRIPOS>MOLECULE
3uku_C69_A_1.pdb
 23 25 0 0 0
SMALL
GASTEIGER

@<TRIPOS>ATOM
      1  CAB       14.0440   17.3540   49.5310 C.3   501  C69501      0.2525
      2  OAA       14.1670   17.6880   50.9160 O.3   501  C69501     -0.4701
      3  CAD       13.2980   16.9430   51.6460 C.ar  501  C69501      0.1553
      4  CAC       13.6600   15.6500   52.0020 C.ar  501  C69501      0.0750
      5  CAN       12.7390   14.8050   52.6030 C.ar  501  C69501      0.1418
      6  OAM       13.1050   13.5420   52.9400 O.3   501  C69501     -0.4713
      7  CAL       12.9150   12.7030   51.7970 C.3   501  C69501      0.2525
      8  CAO       11.4480   15.2650   52.8500 C.ar  501  C69501      0.0384
      9  CAP       11.1010   16.5640   52.5000 C.ar  501  C69501      0.0211
     10  CAE       12.0180   17.4220   51.9070 C.ar  501  C69501      0.0891
     11  NAF       11.7690   18.7320   51.8810 N.am  501  C69501     -0.2435
     12  CAQ       10.5260   19.2100   51.8420 C.2   501  C69501      0.2413
     13  OAW        9.5430   18.4790   51.7450 O.2   501  C69501     -0.2736
     14  CAR       10.3670   20.7360   51.8200 C.3   501  C69501      0.1448
     15  SAS       11.9870   21.2430   51.1540 S.3   501  C69501     -0.1066
     16  CAG       12.8470   19.7100   51.6510 C.3   501  C69501      0.1510
     17  CAH       13.6800   19.9280   52.9180 C.ar  501  C69501      0.0069
     18  CAI       13.1080   19.8670   54.1870 C.ar  501  C69501      0.0049
     19  CAJ       13.8950   20.0390   55.3220 C.ar  501  C69501      0.0343
     20 BRA        13.1350   19.9850   57.0590 Br    501  C69501     -0.0490
     21  CAV       15.2570   20.2680   55.1920 C.ar  501  C69501      0.0067
     22  CAU       15.8340   20.3420   53.9280 C.ar  501  C69501      0.0003
     23  CAT       15.0420   20.1750   52.7980 C.ar  501  C69501     -0.0018
@<TRIPOS>BOND
     1     1     2    1
     2     2     3    1
     3    15    16    1
     4    15    14    1
     5     3    10   ar
     6     3     4   ar
     7    16    11    1
     8    16    17    1
     9    13    12    2
    10     7     6    1
    11    14    12    1
    12    12    11   am
    13    11    10    1
    14    10     9   ar
    15     4     5   ar
    16     9     8   ar
    17     5     8   ar
    18     5     6    1
    19    23    17   ar
    20    23    22   ar
    21    17    18   ar
    22    22    21   ar
    23    18    19   ar
    24    21    19   ar
    25    19    20    1
