@<TRIPOS>MOLECULE
3ul2_GAL_A_1.pdb
 12 12 0 0 0
SMALL
GASTEIGER

@<TRIPOS>ATOM
      1  C1        24.6120  -44.9480    8.7410 C.3   303  GAL303      0.3024
      2  C2        24.0060  -45.9590    7.7630 C.3   303  GAL303      0.2434
      3  C3        22.5190  -46.1850    8.0570 C.3   303  GAL303      0.2199
      4  C4        22.2860  -46.4780    9.5410 C.3   303  GAL303      0.2144
      5  C5        22.9560  -45.3800   10.3690 C.3   303  GAL303      0.1836
      6  C6        22.7460  -45.5570   11.8690 C.3   303  GAL303      0.2142
      7  O1        26.0110  -44.9170    8.5660 O.3   303  GAL303     -0.1869
      8  O2        24.1790  -45.5220    6.4340 O.3   303  GAL303     -0.2148
      9  O3        22.0230  -47.2400    7.2650 O.3   303  GAL303     -0.2174
     10  O4        22.8250  -47.7330    9.8810 O.3   303  GAL303     -0.2176
     11  O5        24.3410  -45.3410   10.0730 O.3   303  GAL303     -0.3236
     12  O6        23.2530  -44.4160   12.5250 O.3   303  GAL303     -0.2176
@<TRIPOS>BOND
     1     8     2    1
     2     9     3    1
     3     2     3    1
     4     2     1    1
     5     3     4    1
     6     7     1    1
     7     1    11    1
     8     4    10    1
     9     4     5    1
    10    11     5    1
    11     5     6    1
    12     6    12    1
