@<TRIPOS>MOLECULE
3ule_C69_A_1.pdb
 23 25 0 0 0
SMALL
GASTEIGER

@<TRIPOS>ATOM
      1  CAB       14.4910   18.5960   48.4010 C.3   1002  C691002     0.2525
      2  OAA       14.5060   18.9530   49.7860 O.3   1002  C691002    -0.4701
      3  CAD       13.5500   18.2560   50.4540 C.ar  1002  C691002     0.1553
      4  CAC       13.8250   16.9470   50.8380 C.ar  1002  C691002     0.0750
      5  CAN       12.8320   16.1570   51.4010 C.ar  1002  C691002     0.1418
      6  OAM       13.1300   14.9100   51.8570 O.3   1002  C691002    -0.4713
      7  CAL       13.0940   13.9760   50.7750 C.3   1002  C691002     0.2525
      8  CAO       11.5550   16.6810   51.5640 C.ar  1002  C691002     0.0384
      9  CAP       11.2930   17.9910   51.1830 C.ar  1002  C691002     0.0211
     10  CAE       12.2850   18.8010   50.6390 C.ar  1002  C691002     0.0891
     11  NAF       12.0940   20.1240   50.6200 N.am  1002  C691002    -0.2435
     12  CAQ       10.8730   20.6380   50.4870 C.2   1002  C691002     0.2413
     13  OAW        9.8810   19.9310   50.2830 O.2   1002  C691002    -0.2736
     14  CAR       10.7430   22.1640   50.4960 C.3   1002  C691002     0.1448
     15  SAS       12.4530   22.6850   50.1180 S.3   1002  C691002    -0.1066
     16  CAG       13.2170   21.0660   50.4830 C.3   1002  C691002     0.1510
     17  CAH       14.0160   21.1330   51.7910 C.ar  1002  C691002     0.0069
     18  CAI       13.3900   21.0580   53.0280 C.ar  1002  C691002     0.0049
     19  CAJ       14.1460   21.0820   54.2000 C.ar  1002  C691002     0.0343
     20 BRA        13.3220   20.9600   55.9010 Br    1002  C691002    -0.0490
     21  CAV       15.5300   21.1860   54.1280 C.ar  1002  C691002     0.0067
     22  CAU       16.1590   21.2650   52.8900 C.ar  1002  C691002     0.0003
     23  CAT       15.4030   21.2380   51.7240 C.ar  1002  C691002    -0.0018
@<TRIPOS>BOND
     1     1     2    1
     2     2     3    1
     3    15    16    1
     4    15    14    1
     5    13    12    2
     6     3    10   ar
     7     3     4   ar
     8    16    11    1
     9    16    17    1
    10    12    14    1
    11    12    11   am
    12    11    10    1
    13    10     9   ar
    14     7     6    1
    15     4     5   ar
    16     9     8   ar
    17     5     8   ar
    18     5     6    1
    19    23    17   ar
    20    23    22   ar
    21    17    18   ar
    22    22    21   ar
    23    18    19   ar
    24    21    19   ar
    25    19    20    1
