@<TRIPOS>MOLECULE
3ule_ATP_A_1.pdb
 31 33 0 0 0
SMALL
GASTEIGER

@<TRIPOS>ATOM
      1  PG        19.6320   15.7020   41.4320 P.3   1001  ATP1001     0.5373
      2  O1G       19.1110   14.8800   40.3120 O.2   1001  ATP1001    -0.2221
      3  O2G       19.6810   17.2790   41.0910 O.3   1001  ATP1001    -0.1143
      4  O3G       18.7340   15.5710   42.7660 O.3   1001  ATP1001    -0.1143
      5  PB        22.2380   16.3070   42.3440 P.3   1001  ATP1001     0.2277
      6  O1B       21.5650   17.6030   42.5980 O.2   1001  ATP1001    -0.5168
      7  O2B       23.0180   15.6800   43.4340 O.3   1001  ATP1001    -0.4368
      8  O3B       21.1210   15.2430   41.8650 O.3   1001  ATP1001    -0.2258
      9  PA        24.6490   17.0220   41.0880 P.3   1001  ATP1001     0.2189
     10  O1A       24.6200   18.3470   40.4270 O.2   1001  ATP1001    -0.5170
     11  O2A       25.1430   16.9370   42.4820 O.3   1001  ATP1001    -0.4371
     12  O3A       23.1500   16.4360   41.0180 O.3   1001  ATP1001    -0.2700
     13  O5'       25.4660   15.9810   40.1740 O.3   1001  ATP1001    -0.3112
     14  C5'       26.1870   14.8830   40.7450 C.3   1001  ATP1001     0.1813
     15  C4'       26.7020   13.9850   39.6190 C.3   1001  ATP1001     0.1821
     16  O4'       27.5200   14.7820   38.7450 O.3   1001  ATP1001    -0.3135
     17  C3'       27.5780   12.8220   40.0950 C.3   1001  ATP1001     0.2184
     18  O3'       27.2060   11.6320   39.3950 O.3   1001  ATP1001    -0.2174
     19  C2'       28.9730   13.2520   39.6430 C.3   1001  ATP1001     0.2570
     20  O2'       29.7560   12.0900   39.3610 O.3   1001  ATP1001    -0.2130
     21  C1'       28.5790   13.9130   38.3240 C.3   1001  ATP1001     0.3186
     22  N9        29.6910   14.7130   37.7660 N.pl3 1001  ATP1001    -0.1439
     23  C8        30.3860   15.6470   38.4070 C.3   1001  ATP1001     0.3377
     24  N7        31.2530   16.2050   37.5640 N.2   1001  ATP1001    -0.2095
     25  C5        31.1100   15.6220   36.3780 C.2   1001  ATP1001     0.2526
     26  C6        31.7240   15.7960   35.1440 C.2   1001  ATP1001     0.4393
     27  N6        32.6660   16.7190   34.9700 N.pl3 1001  ATP1001     0.2180
     28  N1        31.3170   14.9860   34.0770 N.2   1001  ATP1001     0.0021
     29  C2        30.3130   14.0320   34.2830 C.3   1001  ATP1001     0.5254
     30  N3        29.7480   13.8960   35.4700 N.2   1001  ATP1001    -0.0055
     31  C4        30.1130   14.6580   36.5070 C.2   1001  ATP1001     0.3518
@<TRIPOS>BOND
     1    28    29    1
     2    28    26    2
     3    29    30    1
     4    27    26    1
     5    26    25    1
     6    30    31    2
     7    25    31    1
     8    25    24    2
     9    31    22    1
    10    24    23    1
    11    22    21    1
    12    22    23    1
    13    21    16    1
    14    21    19    1
    15    16    15    1
    16    20    19    1
    17    18    17    1
    18    15    17    1
    19    15    14    1
    20    19    17    1
    21    13    14    1
    22    13     9    1
    23     2     1    2
    24    10     9    2
    25    12     9    1
    26    12     5    1
    27     9    11    1
    28     3     1    1
    29     1     8    1
    30     1     4    1
    31     8     5    1
    32     5     6    2
    33     5     7    1
