@<TRIPOS>MOLECULE
3ulf_FMN_A_1.pdb
 31 33 0 0 0
SMALL
GASTEIGER

@<TRIPOS>ATOM
      1  N1        19.9100  -14.0040   19.1290 N.2   501  FMN501     -0.2937
      2  C2        19.6340  -14.7460   20.2610 C.1   501  FMN501      0.3663
      3  O2        20.4930  -14.8560   21.1340 O.2   501  FMN501     -0.1745
      4  N3        18.4140  -15.3710   20.4280 N.2   501  FMN501     -0.2346
      5  C4        17.4260  -15.2640   19.4720 C.1   501  FMN501      0.2239
      6  O4        16.3250  -15.7560   19.7170 O.2   501  FMN501     -0.2109
      7  C4A       17.4890  -14.0690   18.5010 C.3   501  FMN501      0.2884
      8  N5        16.7700  -14.3300   17.2430 N.2   501  FMN501     -0.2455
      9  C5A       17.0760  -13.5810   16.1240 C.2   501  FMN501      0.0904
     10  C6        16.1300  -13.4360   15.1160 C.2   501  FMN501      0.0118
     11  C7        16.4230  -12.6860   13.9830 C.2   501  FMN501     -0.0386
     12  C7M       15.3410  -12.3880   12.9850 C.3   501  FMN501      0.0267
     13  C8        17.6690  -12.0790   13.8620 C.3   501  FMN501      0.0416
     14  C8M       17.9840  -11.2560   12.6440 C.3   501  FMN501      0.0091
     15  C9        18.6150  -12.2240   14.8740 C.2   501  FMN501     -0.0060
     16  C9A       18.3250  -12.9750   16.0090 C.2   501  FMN501      0.0668
     17  N10       19.2750  -13.1150   17.0140 N.pl3 501  FMN501     -0.2591
     18  C10       18.9670  -13.8600   18.1350 C.2   501  FMN501      0.2191
     19  C1'       20.7230  -12.8770   16.6860 C.3   501  FMN501      0.1333
     20  C2'       21.2200  -11.5620   17.2840 C.3   501  FMN501      0.2048
     21  O2'       20.2220  -10.5660   17.1990 O.3   501  FMN501     -0.2185
     22  C3'       22.4890  -11.1080   16.5720 C.3   501  FMN501      0.2165
     23  O3'       22.2280  -11.0190   15.1890 O.3   501  FMN501     -0.2175
     24  C4'       23.6210  -12.0990   16.8430 C.3   501  FMN501      0.2147
     25  O4'       23.7980  -12.2230   18.2350 O.3   501  FMN501     -0.2176
     26  C5'       24.9570  -11.6710   16.2560 C.3   501  FMN501      0.1892
     27  O5'       24.9950  -10.2690   16.2210 O.3   501  FMN501     -0.2674
     28  P         25.9700   -9.4520   17.1980 P.3   501  FMN501      0.5327
     29  O1P       25.2730   -9.3520   18.5300 O.3   501  FMN501     -0.1145
     30  O2P       26.2200   -8.0660   16.6540 O.2   501  FMN501     -0.2224
     31  O3P       27.2740  -10.1960   17.3620 O.3   501  FMN501     -0.1145
@<TRIPOS>BOND
     1    14    13    1
     2    12    11    1
     3    13    11    1
     4    13    15    1
     5    11    10    2
     6    15    16    2
     7    10     9    1
     8    23    22    1
     9    16     9    1
    10    16    17    1
    11     9     8    2
    12    27    26    1
    13    27    28    1
    14    26    24    1
    15    22    24    1
    16    22    20    1
    17    30    28    2
    18    19    17    1
    19    19    20    1
    20    24    25    1
    21    17    18    1
    22    28    31    1
    23    28    29    1
    24    21    20    1
    25     8     7    1
    26    18     7    1
    27    18     1    2
    28     7     5    1
    29     1     2    2
    30     5     6    2
    31     5     4    2
    32     2     4    2
    33     2     3    2
