@<TRIPOS>MOLECULE
3ulk_NDP_A_1.pdb
 48 52 0 0 0
SMALL
GASTEIGER

@<TRIPOS>ATOM
      1  PA         6.6120   45.5940   65.0180 P.3   492  NDP492      0.2189
      2  O1A        6.7260   46.9240   64.3850 O.2   492  NDP492     -0.5170
      3  O2A        5.2700   45.3810   65.6030 O.3   492  NDP492     -0.4371
      4  O5B        6.9880   44.4040   64.0010 O.3   492  NDP492     -0.3112
      5  C5B        6.3060   44.2940   62.7870 C.3   492  NDP492      0.1813
      6  C4B        6.9010   43.1810   61.9470 C.3   492  NDP492      0.1820
      7  O4B        7.0260   41.9660   62.6680 O.3   492  NDP492     -0.3136
      8  C3B        5.9750   42.9270   60.7690 C.3   492  NDP492      0.2157
      9  O3B        6.7610   42.9710   59.6070 O.3   492  NDP492     -0.2175
     10  C2B        5.4700   41.5200   60.9730 C.3   492  NDP492      0.2314
     11  O2B        5.3910   40.8070   59.7620 O.3   492  NDP492     -0.2630
     12  C1B        6.5360   40.9140   61.8610 C.3   492  NDP492      0.3158
     13  N9A        5.9870   39.7710   62.6030 N.pl3 492  NDP492     -0.1439
     14  C8A        5.0430   39.7810   63.5900 C.3   492  NDP492      0.3377
     15  N7A        4.8410   38.5020   63.9900 N.2   492  NDP492     -0.2095
     16  C5A        5.6410   37.6890   63.2650 C.2   492  NDP492      0.2526
     17  C6A        5.8240   36.3140   63.2600 C.2   492  NDP492      0.4393
     18  N6A        5.0140   35.5320   63.9750 N.pl3 492  NDP492      0.2180
     19  N1A        6.7310   35.7610   62.3790 N.2   492  NDP492      0.0021
     20  C2A        7.4530   36.5630   61.5180 C.3   492  NDP492      0.5254
     21  N3A        7.2620   37.9260   61.5250 N.2   492  NDP492     -0.0055
     22  C4A        6.3690   38.4740   62.3890 C.2   492  NDP492      0.3518
     23  O3         7.8080   45.4100   66.0770 O.3   492  NDP492     -0.2703
     24  PN         8.5380   46.6410   66.7990 P.3   492  NDP492      0.2189
     25  O1N        9.3900   47.3390   65.7990 O.2   492  NDP492     -0.5170
     26  O2N        7.5750   47.4230   67.6090 O.3   492  NDP492     -0.4371
     27  O5D        9.4560   45.7970   67.8150 O.3   492  NDP492     -0.3112
     28  C5D       10.5380   45.0230   67.3500 C.3   492  NDP492      0.1813
     29  C4D       11.5210   44.7960   68.4920 C.3   492  NDP492      0.1799
     30  O4D       12.1590   46.0030   68.8850 O.3   492  NDP492     -0.3327
     31  C3D       10.7840   44.2530   69.7140 C.3   492  NDP492      0.2158
     32  O3D       11.5420   43.2170   70.2940 O.3   492  NDP492     -0.2175
     33  C2D       10.7420   45.4310   70.6490 C.3   492  NDP492      0.2309
     34  O2D       10.7070   44.9790   71.9770 O.3   492  NDP492     -0.2158
     35  C1D       12.0590   46.0960   70.2910 C.3   492  NDP492      0.2263
     36  N1N       12.1260   47.4910   70.7210 N.pl3 492  NDP492     -0.2787
     37  C2N       11.0370   48.2840   70.5660 C.3   492  NDP492      0.1244
     38  C3N       11.0740   49.6250   70.9140 C.2   492  NDP492      0.0544
     39  C7N        9.8450   50.4440   70.7040 C.2   492  NDP492      0.2818
     40  O7N        9.7510   51.6920   71.3480 O.2   492  NDP492     -0.2670
     41  N7N        8.9000   49.9670   69.8910 N.am  492  NDP492     -0.0839
     42  C4N       12.3160   50.2830   71.4680 C.2   492  NDP492      0.0033
     43  C5N       13.4460   49.3070   71.5920 C.2   492  NDP492      0.0157
     44  C6N       13.3070   47.9760   71.2140 C.2   492  NDP492      0.0633
     45  P2B        4.3150   41.1880   58.6180 P.3   492  NDP492      0.5328
     46  O1X        4.1820   39.9840   57.7240 O.2   492  NDP492     -0.2224
     47  O2X        4.8270   42.3460   57.8230 O.3   492  NDP492     -0.1145
     48  O3X        2.9750   41.5980   59.1930 O.3   492  NDP492     -0.1145
@<TRIPOS>BOND
     1    46    45    2
     2    47    45    1
     3    45    48    1
     4    45    11    1
     5     9     8    1
     6    11    10    1
     7     8    10    1
     8     8     6    1
     9    10    12    1
    10    20    21    1
    11    20    19    1
    12    21    22    2
    13    12    13    1
    14    12     7    1
    15     6     7    1
    16     6     5    1
    17    19    17    2
    18    22    13    1
    19    22    16    1
    20    13    14    1
    21     5     4    1
    22    17    16    1
    23    17    18    1
    24    16    15    2
    25    14    15    1
    26     4     1    1
    27     2     1    2
    28     1     3    1
    29     1    23    1
    30    25    24    2
    31    23    24    1
    32    24    26    1
    33    24    27    1
    34    28    27    1
    35    28    29    1
    36    29    30    1
    37    29    31    1
    38    30    35    1
    39    31    32    1
    40    31    33    1
    41    41    39   am
    42    35    33    1
    43    35    36    1
    44    37    36    1
    45    37    38    1
    46    33    34    1
    47    39    38    1
    48    39    40    2
    49    36    44    1
    50    38    42    2
    51    44    43    2
    52    42    43    1
