@<TRIPOS>MOLECULE
3um5_NDP_A_1.pdb
 48 52 0 0 0
SMALL
GASTEIGER

@<TRIPOS>ATOM
      1  PA        33.9860    4.3300   69.1450 P.3   610  NDP610      0.2189
      2  O1A       34.9750    3.6840   68.2840 O.2   610  NDP610     -0.5170
      3  O2A       32.6880    4.3550   68.4880 O.3   610  NDP610     -0.4371
      4  O5B       33.7430    3.6070   70.5230 O.3   610  NDP610     -0.3112
      5  C5B       34.9100    3.4530   71.3720 C.3   610  NDP610      0.1813
      6  C4B       34.3450    2.7160   72.5920 C.3   610  NDP610      0.1820
      7  O4B       33.6980    1.4640   72.2790 O.3   610  NDP610     -0.3136
      8  C3B       35.2460    2.3260   73.8030 C.3   610  NDP610      0.2157
      9  O3B       35.4290    3.4750   74.6950 O.3   610  NDP610     -0.2175
     10  C2B       34.4970    1.1440   74.4030 C.3   610  NDP610      0.2314
     11  O2B       33.4200    1.9080   74.9880 O.3   610  NDP610     -0.2630
     12  C1B       34.0620    0.3950   73.1550 C.3   610  NDP610      0.3158
     13  N9A       35.1010   -0.4440   72.5520 N.pl3 610  NDP610     -0.1439
     14  C8A       35.8820   -0.3170   71.4300 C.3   610  NDP610      0.3377
     15  N7A       36.7070   -1.4170   71.3020 N.2   610  NDP610     -0.2095
     16  C5A       36.4320   -2.2210   72.3380 C.2   610  NDP610      0.2526
     17  C6A       36.9120   -3.4390   72.7370 C.2   610  NDP610      0.4393
     18  N6A       37.8620   -4.0850   72.0410 N.pl3 610  NDP610      0.2180
     19  N1A       36.4120   -4.0060   73.8550 N.2   610  NDP610      0.0021
     20  C2A       35.4510   -3.4270   74.6170 C.3   610  NDP610      0.5254
     21  N3A       34.9560   -2.2360   74.2620 N.2   610  NDP610     -0.0055
     22  C4A       35.4370   -1.6200   73.1200 C.2   610  NDP610      0.3518
     23  O3        34.4090    5.8100   69.5450 O.3   610  NDP610     -0.2703
     24  PN        35.2400    6.8590   68.6700 P.3   610  NDP610      0.2189
     25  O1N       36.5330    6.2550   68.3340 O.2   610  NDP610     -0.5170
     26  O2N       35.4470    8.0650   69.5330 O.3   610  NDP610     -0.4371
     27  O5D       34.4050    7.1910   67.3250 O.3   610  NDP610     -0.3112
     28  C5D       33.0720    7.8370   67.5110 C.3   610  NDP610      0.1813
     29  C4D       33.0830    9.1390   66.6210 C.3   610  NDP610      0.1799
     30  O4D       33.3220    8.8560   65.2280 O.3   610  NDP610     -0.3327
     31  C3D       31.7840    9.9550   66.6440 C.3   610  NDP610      0.2158
     32  O3D       32.1240   11.3540   66.4250 O.3   610  NDP610     -0.2175
     33  C2D       30.9740    9.4490   65.4360 C.3   610  NDP610      0.2309
     34  O2D       30.0890   10.4650   64.9220 O.3   610  NDP610     -0.2158
     35  C1D       32.0950    9.0790   64.4720 C.3   610  NDP610      0.2263
     36  N1N       31.8710    7.8650   63.6190 N.pl3 610  NDP610     -0.2787
     37  C2N       32.2160    8.1020   62.1610 C.3   610  NDP610      0.1244
     38  C3N       32.0660    7.0660   61.2610 C.2   610  NDP610      0.0544
     39  C7N       32.4130    7.3030   59.7830 C.2   610  NDP610      0.2818
     40  O7N       32.2980    6.3890   58.9280 O.2   610  NDP610     -0.2670
     41  N7N       32.8390    8.4840   59.3900 N.am  610  NDP610     -0.0839
     42  C4N       31.5670    5.7540   61.7950 C.2   610  NDP610      0.0033
     43  C5N       31.2270    5.5510   63.2490 C.2   610  NDP610      0.0157
     44  C6N       31.3750    6.5630   64.1210 C.2   610  NDP610      0.0633
     45  P2B       33.3170    1.9180   76.5470 P.3   610  NDP610      0.5328
     46  O1X       34.2690    0.9910   77.2540 O.3   610  NDP610     -0.1145
     47  O2X       33.6370    3.3420   76.9190 O.2   610  NDP610     -0.2224
     48  O3X       31.8830    1.6710   76.9810 O.3   610  NDP610     -0.1145
@<TRIPOS>BOND
     1    40    39    2
     2    41    39   am
     3    39    38    1
     4    38    42    2
     5    38    37    1
     6    42    43    1
     7    37    36    1
     8    43    44    2
     9    36    44    1
    10    36    35    1
    11    35    30    1
    12    35    33    1
    13    34    33    1
    14    30    29    1
    15    33    31    1
    16    32    31    1
    17    29    31    1
    18    29    28    1
    19    27    28    1
    20    27    24    1
    21     2     1    2
    22    25    24    2
    23     3     1    1
    24    24    26    1
    25    24    23    1
    26     1    23    1
    27     1     4    1
    28     4     5    1
    29    15    14    1
    30    15    16    2
    31     5     6    1
    32    14    13    1
    33    18    17    1
    34     7     6    1
    35     7    12    1
    36    16    17    1
    37    16    22    1
    38    13    22    1
    39    13    12    1
    40     6     8    1
    41    17    19    2
    42    22    21    2
    43    12    10    1
    44     8    10    1
    45     8     9    1
    46    19    20    1
    47    21    20    1
    48    10    11    1
    49    11    45    1
    50    45    47    2
    51    45    48    1
    52    45    46    1
