@<TRIPOS>MOLECULE
3um5_CP6_A_1.pdb
 17 18 0 0 0
SMALL
GASTEIGER

@<TRIPOS>ATOM
      1  N1        29.9140    4.1220   56.7220 N.2   609  CP6609     -0.3112
      2  C2        29.3240    4.9030   55.7340 C.1   609  CP6609      0.2419
      3  C3        29.5360    4.2550   58.0550 C.2   609  CP6609      0.2201
      4  C4        28.4730    5.2440   58.4760 C.3   609  CP6609      0.1421
      5  C5        27.8940    6.0490   57.2970 C.2   609  CP6609      0.1122
      6  N6        28.3220    5.8640   55.9980 N.2   609  CP6609     -0.3339
      7  C7        28.0040    5.4410   59.8290 C.ar  609  CP6609     -0.0080
      8  C8        28.3740    6.5680   60.6530 C.ar  609  CP6609     -0.0026
      9  C9        27.8580    6.7310   61.9770 C.ar  609  CP6609      0.0111
     10  C10       26.9130    5.7220   62.5250 C.ar  609  CP6609      0.0577
     11  C11       26.5110    4.5860   61.7600 C.ar  609  CP6609      0.0111
     12  C12       27.0490    4.4410   60.4210 C.ar  609  CP6609     -0.0026
     13  N13       30.1160    3.4870   58.9970 N.pl3 609  CP6609     -0.0962
     14  N14       29.7400    4.7290   54.4110 N.pl3 609  CP6609     -0.0232
     15  C15       26.8050    7.0800   57.5460 C.3   609  CP6609      0.0563
     16  C16       25.3700    6.7150   57.2120 C.3   609  CP6609      0.0075
     17 CL1        26.3920    6.0470   64.0460 Cl    609  CP6609     -0.0822
@<TRIPOS>BOND
     1    14     2    1
     2     2     6    2
     3     2     1    2
     4     6     5    2
     5     1     3    2
     6    16    15    1
     7     5    15    1
     8     5     4    1
     9     3     4    1
    10     3    13    1
    11     4     7    1
    12     7    12   ar
    13     7     8   ar
    14    12    11   ar
    15     8     9   ar
    16    11    10   ar
    17     9    10   ar
    18    10    17    1
