@<TRIPOS>MOLECULE
3um5_UMP_A_1.pdb
 20 21 0 0 0
SMALL
GASTEIGER

@<TRIPOS>ATOM
      1  N1        44.2580   20.1280   19.6970 N.am  611  UMP611     -0.1790
      2  C2        43.4210   19.5640   20.7170 C.1   611  UMP611      0.2844
      3  N3        42.5130   20.4790   21.2740 N.2   611  UMP611     -0.2452
      4  C4        42.3730   21.8520   20.9160 C.1   611  UMP611      0.2182
      5  C5        43.2750   22.3310   19.8610 C.2   611  UMP611      0.1242
      6  C6        44.1840   21.4260   19.3000 C.2   611  UMP611      0.0928
      7  O2        43.4490   18.4020   21.1090 O.2   611  UMP611     -0.1918
      8  O4        41.5560   22.5930   21.4520 O.2   611  UMP611     -0.2085
      9  C1'       45.3050   19.3440   18.9600 C.3   611  UMP611      0.2090
     10  C2'       44.8970   18.2670   17.9440 C.3   611  UMP611      0.0874
     11  C3'       46.1030   18.1480   17.0090 C.3   611  UMP611      0.1857
     12  C4'       46.7330   19.5420   16.8730 C.3   611  UMP611      0.1774
     13  O3'       47.0580   17.2990   17.6700 O.3   611  UMP611     -0.2203
     14  O4'       46.2600   20.1600   18.1370 O.3   611  UMP611     -0.3339
     15  C5'       46.1260   20.3360   15.7110 C.3   611  UMP611      0.1858
     16  O5'       46.4660   19.6830   14.4460 O.3   611  UMP611     -0.2675
     17  P         45.4990   19.6380   13.2140 P.3   611  UMP611      0.5327
     18  OP1       46.2020   19.2220   12.0410 O.2   611  UMP611     -0.2224
     19  OP2       44.4610   18.6670   13.5580 O.3   611  UMP611     -0.1145
     20  OP3       44.9540   20.9470   12.9520 O.3   611  UMP611     -0.1145
@<TRIPOS>BOND
     1    18    17    2
     2    20    17    1
     3    17    19    1
     4    17    16    1
     5    16    15    1
     6    15    12    1
     7    12    11    1
     8    12    14    1
     9    11    13    1
    10    11    10    1
    11    10     9    1
    12    14     9    1
    13     9     1    1
    14     6     1    1
    15     6     5    2
    16     1     2   am
    17     5     4    1
    18     2     7    2
    19     2     3    2
    20     4     3    2
    21     4     8    2
