@<TRIPOS>MOLECULE
3um6_1CY_A_1.pdb
 17 18 0 0 0
SMALL
GASTEIGER

@<TRIPOS>ATOM
      1  N1        28.3860    6.0960   56.2570 N.2   609  1CY609     -0.1797
      2  C2        29.3060    5.2090   55.9940 C.1   609  1CY609      0.1858
      3  N3        29.8830    4.2760   56.9140 N.2   609  1CY609     -0.3007
      4  C4        29.4320    4.2400   58.2180 C.cat 609  1CY609      0.2940
      5  N5        28.3890    5.1470   58.6780 N.pl3 609  1CY609     -0.2312
      6  C6        27.8620    6.1910   57.6080 C.3   609  1CY609      0.1615
      7  N7        29.7910    5.0600   54.7250 N.pl3 609  1CY609     -0.0347
      8  N8        29.9560    3.2930   59.1270 N.pl3 609  1CY609     -0.0770
      9  C9        28.1700    7.6620   58.0730 C.3   609  1CY609      0.0465
     10  C10       26.3390    6.1550   57.2900 C.3   609  1CY609      0.0465
     11  C11       27.8000    5.0600   59.9930 C.ar  609  1CY609      0.0565
     12  C12       28.2100    5.9070   61.1280 C.ar  609  1CY609      0.0159
     13  C13       27.5810    5.7460   62.3820 C.ar  609  1CY609      0.0127
     14  C14       26.4960    4.7450   62.5390 C.ar  609  1CY609      0.0578
     15  C15       26.0620    3.8990   61.4050 C.ar  609  1CY609      0.0127
     16  C16       26.7240    4.0950   60.1780 C.ar  609  1CY609      0.0159
     17 CL17       25.7700    4.5980   63.9870 Cl    609  1CY609     -0.0822
@<TRIPOS>BOND
     1     7     2    1
     2     2     1    2
     3     2     3    2
     4     1     6    1
     5     3     4    2
     6    10     6    1
     7     6     9    1
     8     6     5    1
     9     4     5    1
    10     4     8    1
    11     5    11    1
    12    11    16   ar
    13    11    12   ar
    14    16    15   ar
    15    12    13   ar
    16    15    14   ar
    17    13    14   ar
    18    14    17    1
