@<TRIPOS>MOLECULE
3um6_NDP_A_1.pdb
 48 52 0 0 0
SMALL
GASTEIGER

@<TRIPOS>ATOM
      1  PA        34.0390    4.3040   69.0350 P.3   610  NDP610      0.2189
      2  O1A       34.9710    3.5840   68.1760 O.2   610  NDP610     -0.5170
      3  O2A       32.7760    4.4390   68.3470 O.3   610  NDP610     -0.4371
      4  O5B       33.7760    3.6090   70.4050 O.3   610  NDP610     -0.3112
      5  C5B       34.9410    3.3850   71.2390 C.3   610  NDP610      0.1813
      6  C4B       34.3510    2.7020   72.4870 C.3   610  NDP610      0.1820
      7  O4B       33.6910    1.4460   72.2280 O.3   610  NDP610     -0.3136
      8  C3B       35.2710    2.3610   73.6960 C.3   610  NDP610      0.2157
      9  O3B       35.4390    3.5320   74.5620 O.3   610  NDP610     -0.2175
     10  C2B       34.5630    1.1720   74.3280 C.3   610  NDP610      0.2314
     11  O2B       33.5170    1.9420   74.9230 O.3   610  NDP610     -0.2630
     12  C1B       34.0660    0.3990   73.1230 C.3   610  NDP610      0.3158
     13  N9A       35.1190   -0.4300   72.5360 N.pl3 610  NDP610     -0.1439
     14  C8A       35.8720   -0.2820   71.3930 C.3   610  NDP610      0.3377
     15  N7A       36.7460   -1.3400   71.2530 N.2   610  NDP610     -0.2095
     16  C5A       36.5240   -2.1400   72.3070 C.2   610  NDP610      0.2526
     17  C6A       37.0780   -3.3190   72.7010 C.2   610  NDP610      0.4393
     18  N6A       38.0480   -3.9110   71.9820 N.pl3 610  NDP610      0.2180
     19  N1A       36.6280   -3.8910   73.8320 N.2   610  NDP610      0.0021
     20  C2A       35.6540   -3.3570   74.6090 C.3   610  NDP610      0.5254
     21  N3A       35.0890   -2.2020   74.2600 N.2   610  NDP610     -0.0055
     22  C4A       35.5160   -1.5800   73.1070 C.2   610  NDP610      0.3518
     23  O3        34.5080    5.7720   69.4380 O.3   610  NDP610     -0.2703
     24  PN        35.3760    6.7690   68.5410 P.3   610  NDP610      0.2189
     25  O1N       36.6550    6.1140   68.2310 O.2   610  NDP610     -0.5170
     26  O2N       35.5560    8.0220   69.3440 O.3   610  NDP610     -0.4371
     27  O5D       34.5420    7.1000   67.2000 O.3   610  NDP610     -0.3112
     28  C5D       33.2240    7.7720   67.4050 C.3   610  NDP610      0.1813
     29  C4D       33.2730    9.0490   66.4850 C.3   610  NDP610      0.1799
     30  O4D       33.4980    8.6770   65.1090 O.3   610  NDP610     -0.3327
     31  C3D       32.0160    9.9350   66.4910 C.3   610  NDP610      0.2158
     32  O3D       32.3860   11.3340   66.2860 O.3   610  NDP610     -0.2175
     33  C2D       31.1940    9.4430   65.2870 C.3   610  NDP610      0.2309
     34  O2D       30.4170   10.5160   64.7120 O.3   610  NDP610     -0.2158
     35  C1D       32.2910    8.9670   64.3490 C.3   610  NDP610      0.2263
     36  N1N       32.0450    7.7820   63.4720 N.pl3 610  NDP610     -0.2787
     37  C2N       32.4020    8.0700   62.0260 C.3   610  NDP610      0.1244
     38  C3N       32.2540    7.0830   61.0750 C.2   610  NDP610      0.0544
     39  C7N       32.6210    7.3950   59.6090 C.2   610  NDP610      0.2818
     40  O7N       32.5030    6.5150   58.7080 O.2   610  NDP610     -0.2670
     41  N7N       33.0700    8.5980   59.2840 N.am  610  NDP610     -0.0839
     42  C4N       31.7330    5.7620   61.5620 C.2   610  NDP610      0.0033
     43  C5N       31.3830    5.5110   63.0090 C.2   610  NDP610      0.0157
     44  C6N       31.5290    6.4770   63.9330 C.2   610  NDP610      0.0633
     45  P2B       33.3360    1.9340   76.4660 P.3   610  NDP610      0.5328
     46  O1X       34.2000    0.9420   77.1820 O.3   610  NDP610     -0.1145
     47  O2X       33.7350    3.3650   76.7570 O.2   610  NDP610     -0.2224
     48  O3X       31.8750    1.7720   76.8630 O.3   610  NDP610     -0.1145
@<TRIPOS>BOND
     1    40    39    2
     2    41    39   am
     3    39    38    1
     4    38    42    2
     5    38    37    1
     6    42    43    1
     7    37    36    1
     8    43    44    2
     9    36    44    1
    10    36    35    1
    11    35    30    1
    12    35    33    1
    13    34    33    1
    14    30    29    1
    15    33    31    1
    16    32    31    1
    17    29    31    1
    18    29    28    1
    19    27    28    1
    20    27    24    1
    21     2     1    2
    22    25    24    2
    23     3     1    1
    24    24    26    1
    25    24    23    1
    26     1    23    1
    27     1     4    1
    28     4     5    1
    29     5     6    1
    30    15    14    1
    31    15    16    2
    32    14    13    1
    33    18    17    1
    34     7     6    1
    35     7    12    1
    36    16    17    1
    37    16    22    1
    38     6     8    1
    39    13    22    1
    40    13    12    1
    41    17    19    2
    42    22    21    2
    43    12    10    1
    44     8    10    1
    45     8     9    1
    46    19    20    1
    47    21    20    1
    48    10    11    1
    49    11    45    1
    50    45    47    2
    51    45    48    1
    52    45    46    1
