@<TRIPOS>MOLECULE
3um6_UMP_A_1.pdb
 20 21 0 0 0
SMALL
GASTEIGER

@<TRIPOS>ATOM
      1  N1        44.3160   20.2170   19.7220 N.am  611  UMP611     -0.1790
      2  C2        43.5680   19.6190   20.7810 C.1   611  UMP611      0.2844
      3  N3        42.6220   20.4730   21.3630 N.2   611  UMP611     -0.2452
      4  C4        42.3670   21.8250   20.9890 C.1   611  UMP611      0.2182
      5  C5        43.1830   22.3460   19.8860 C.2   611  UMP611      0.1242
      6  C6        44.1330   21.4950   19.3030 C.2   611  UMP611      0.0928
      7  O2        43.7000   18.4760   21.1870 O.2   611  UMP611     -0.1918
      8  O4        41.5230   22.5120   21.5520 O.2   611  UMP611     -0.2085
      9  C1'       45.3820   19.4910   18.9680 C.3   611  UMP611      0.2090
     10  C2'       45.0170   18.3870   17.9630 C.3   611  UMP611      0.0874
     11  C3'       46.2370   18.2990   17.0480 C.3   611  UMP611      0.1857
     12  C4'       46.7970   19.7270   16.8870 C.3   611  UMP611      0.1774
     13  O3'       47.2220   17.4910   17.7400 O.3   611  UMP611     -0.2203
     14  O4'       46.2830   20.3490   18.1300 O.3   611  UMP611     -0.3339
     15  C5'       46.1590   20.4570   15.7020 C.3   611  UMP611      0.1858
     16  O5'       46.5960   19.8200   14.4660 O.3   611  UMP611     -0.2675
     17  P         45.6720   19.5940   13.2360 P.3   611  UMP611      0.5327
     18  OP1       46.3950   18.9280   12.1740 O.2   611  UMP611     -0.2224
     19  OP2       44.5990   18.7390   13.7030 O.3   611  UMP611     -0.1145
     20  OP3       45.1890   20.8590   12.7320 O.3   611  UMP611     -0.1145
@<TRIPOS>BOND
     1    18    17    2
     2    20    17    1
     3    17    19    1
     4    17    16    1
     5    16    15    1
     6    15    12    1
     7    12    11    1
     8    12    14    1
     9    11    13    1
    10    11    10    1
    11    10     9    1
    12    14     9    1
    13     9     1    1
    14     6     1    1
    15     6     5    2
    16     1     2   am
    17     5     4    1
    18     2     7    2
    19     2     3    2
    20     4     3    2
    21     4     8    2
