@<TRIPOS>MOLECULE
3um8_NDP_A_1.pdb
 48 52 0 0 0
SMALL
GASTEIGER

@<TRIPOS>ATOM
      1  PA        35.6870    3.9130   68.4620 P.3   610  NDP610      0.2189
      2  O1A       36.7260    3.2690   67.6630 O.2   610  NDP610     -0.5170
      3  O2A       34.4130    3.9050   67.7670 O.3   610  NDP610     -0.4371
      4  O5B       35.5190    3.2070   69.8520 O.3   610  NDP610     -0.3112
      5  C5B       36.7220    3.1350   70.6580 C.3   610  NDP610      0.1813
      6  C4B       36.2400    2.4180   71.9200 C.3   610  NDP610      0.1820
      7  O4B       35.5480    1.1890   71.6640 O.3   610  NDP610     -0.3136
      8  C3B       37.2280    2.0250   73.0630 C.3   610  NDP610      0.2157
      9  O3B       37.5870    3.1590   73.9140 O.3   610  NDP610     -0.2175
     10  C2B       36.4660    0.9040   73.7400 C.3   610  NDP610      0.2314
     11  O2B       35.4310    1.6940   74.3970 O.3   610  NDP610     -0.2630
     12  C1B       35.9760    0.1270   72.5220 C.3   610  NDP610      0.3158
     13  N9A       36.9970   -0.7090   71.8680 N.pl3 610  NDP610     -0.1439
     14  C8A       37.6870   -0.5710   70.6920 C.3   610  NDP610      0.3377
     15  N7A       38.5470   -1.6270   70.4970 N.2   610  NDP610     -0.2095
     16  C5A       38.3800   -2.4300   71.5610 C.2   610  NDP610      0.2526
     17  C6A       38.9520   -3.6210   71.9360 C.2   610  NDP610      0.4393
     18  N6A       39.8700   -4.2360   71.1830 N.pl3 610  NDP610      0.2180
     19  N1A       38.5630   -4.1930   73.0920 N.2   610  NDP610      0.0021
     20  C2A       37.6410   -3.6540   73.9260 C.3   610  NDP610      0.5254
     21  N3A       37.0600   -2.4970   73.6100 N.2   610  NDP610     -0.0055
     22  C4A       37.4250   -1.8610   72.4240 C.2   610  NDP610      0.3518
     23  O3        35.9590    5.4400   68.8220 O.3   610  NDP610     -0.2703
     24  PN        36.8100    6.4550   67.9370 P.3   610  NDP610      0.2189
     25  O1N       38.0630    5.7740   67.5940 O.2   610  NDP610     -0.5170
     26  O2N       37.0620    7.6850   68.7570 O.3   610  NDP610     -0.4371
     27  O5D       35.9670    6.8360   66.6150 O.3   610  NDP610     -0.3112
     28  C5D       34.6710    7.5170   66.9170 C.3   610  NDP610      0.1813
     29  C4D       34.5710    8.8130   66.0280 C.3   610  NDP610      0.1799
     30  O4D       34.8210    8.5150   64.6420 O.3   610  NDP610     -0.3327
     31  C3D       33.2010    9.5080   66.0290 C.3   610  NDP610      0.2158
     32  O3D       33.4470   10.9210   65.7710 O.3   610  NDP610     -0.2175
     33  C2D       32.4240    8.8890   64.8430 C.3   610  NDP610      0.2309
     34  O2D       31.4300    9.7810   64.2950 O.3   610  NDP610     -0.2158
     35  C1D       33.5690    8.6080   63.8800 C.3   610  NDP610      0.2263
     36  N1N       33.4920    7.4020   62.9880 N.pl3 610  NDP610     -0.2787
     37  C2N       33.6370    7.7340   61.5030 C.3   610  NDP610      0.1244
     38  C3N       33.6010    6.7140   60.5540 C.2   610  NDP610      0.0544
     39  C7N       33.7460    7.0660   59.0530 C.2   610  NDP610      0.2818
     40  O7N       33.7180    6.1550   58.1830 O.2   610  NDP610     -0.2670
     41  N7N       33.9010    8.3250   58.6710 N.am  610  NDP610     -0.0839
     42  C4N       33.4180    5.3060   61.0680 C.2   610  NDP610      0.0033
     43  C5N       33.2740    5.0250   62.5490 C.2   610  NDP610      0.0157
     44  C6N       33.3090    6.0110   63.4690 C.2   610  NDP610      0.0633
     45  P2B       35.1320    1.5240   75.9290 P.3   610  NDP610      0.5328
     46  O1X       35.9110    0.4240   76.5680 O.3   610  NDP610     -0.1145
     47  O2X       35.5100    2.8520   76.5430 O.3   610  NDP610     -0.1145
     48  O3X       33.6810    1.2680   76.2670 O.2   610  NDP610     -0.2224
@<TRIPOS>BOND
     1    40    39    2
     2    41    39   am
     3    39    38    1
     4    38    42    2
     5    38    37    1
     6    42    43    1
     7    37    36    1
     8    43    44    2
     9    36    44    1
    10    36    35    1
    11    35    30    1
    12    35    33    1
    13    34    33    1
    14    30    29    1
    15    33    31    1
    16    32    31    1
    17    29    31    1
    18    29    28    1
    19    27    28    1
    20    27    24    1
    21    25    24    2
    22     2     1    2
    23     3     1    1
    24    24    26    1
    25    24    23    1
    26     1    23    1
    27     1     4    1
    28     4     5    1
    29    15    14    1
    30    15    16    2
    31     5     6    1
    32    14    13    1
    33    18    17    1
    34    16    17    1
    35    16    22    1
    36     7     6    1
    37     7    12    1
    38    13    22    1
    39    13    12    1
    40     6     8    1
    41    17    19    2
    42    22    21    2
    43    12    10    1
    44     8    10    1
    45     8     9    1
    46    19    20    1
    47    21    20    1
    48    10    11    1
    49    11    45    1
    50    45    48    2
    51    45    47    1
    52    45    46    1
