@<TRIPOS>MOLECULE
3um8_1CY_A_1.pdb
 17 18 0 0 0
SMALL
GASTEIGER

@<TRIPOS>ATOM
      1  N1        29.7180    5.8640   55.7940 N.2   609  1CY609     -0.1797
      2  C2        30.5300    4.8790   55.4210 C.1   609  1CY609      0.1858
      3  N3        31.2150    3.9730   56.3100 N.2   609  1CY609     -0.3007
      4  C4        30.9100    4.0600   57.6300 C.cat 609  1CY609      0.2940
      5  N5        30.0190    5.0370   58.1950 N.pl3 609  1CY609     -0.2312
      6  C6        29.4750    6.1320   57.2320 C.3   609  1CY609      0.1615
      7  N7        30.7510    4.6540   54.0390 N.pl3 609  1CY609     -0.0347
      8  N8        31.5430    3.1850   58.4920 N.pl3 609  1CY609     -0.0770
      9  C9        30.1720    7.4990   57.5700 C.3   609  1CY609      0.0465
     10  C10       27.9290    6.3880   57.4330 C.3   609  1CY609      0.0465
     11  C11       29.5860    4.9000   59.5600 C.ar  609  1CY609      0.0565
     12  C12       30.0810    5.8220   60.5970 C.ar  609  1CY609      0.0159
     13  C13       29.6710    5.6940   61.9620 C.ar  609  1CY609      0.0127
     14  C14       28.7570    4.6530   62.3470 C.ar  609  1CY609      0.0578
     15  C15       28.2130    3.6970   61.3560 C.ar  609  1CY609      0.0127
     16  C16       28.6160    3.8120   59.9830 C.ar  609  1CY609      0.0159
     17 CL17       28.3370    4.5460   63.9240 Cl    609  1CY609     -0.0822
@<TRIPOS>BOND
     1     7     2    1
     2     2     1    2
     3     2     3    2
     4     1     6    1
     5     3     4    2
     6     6    10    1
     7     6     9    1
     8     6     5    1
     9     4     5    1
    10     4     8    1
    11     5    11    1
    12    11    16   ar
    13    11    12   ar
    14    16    15   ar
    15    12    13   ar
    16    15    14   ar
    17    13    14   ar
    18    14    17    1
