@<TRIPOS>MOLECULE
3uml_ISJ_B_1.pdb
 16 16 0 0 0
SMALL
GASTEIGER

@<TRIPOS>ATOM
      1  C1       -35.9180  -21.0980  -43.0570 C.3   173  ISJ173      0.2011
      2  C2       -34.9420  -20.3480  -42.1820 C.3   173  ISJ173      0.0789
      3  C3       -35.3820  -19.3460  -41.4100 C.2   173  ISJ173      0.0571
      4  C4       -36.8090  -19.2870  -41.0390 C.2   173  ISJ173     -0.0210
      5  C5       -37.6730  -20.1020  -41.6370 C.3   173  ISJ173      0.0626
      6  C6       -37.1770  -21.3910  -42.2500 C.3   173  ISJ173      0.1962
      7  C7       -34.4560  -18.3210  -40.9380 C.2   173  ISJ173      0.3837
      8  O8       -33.5010  -17.9090  -41.6310 O.co2 173  ISJ173     -0.2409
      9  O9       -35.0990  -17.4230  -40.2030 O.co2 173  ISJ173     -0.2409
     10  O10      -38.1870  -21.9390  -43.1040 O.3   173  ISJ173     -0.2189
     11  O11      -35.3260  -22.3160  -43.5060 O.2   173  ISJ173     -0.4699
     12  C12      -35.2560  -23.6290  -42.8850 C.2   173  ISJ173      0.2182
     13  C13      -34.7220  -24.8080  -43.5720 C.2   173  ISJ173      0.4211
     14  O14      -35.1580  -25.9760  -43.2210 O.co2 173  ISJ173     -0.2371
     15  O15      -34.2450  -24.6010  -44.7090 O.co2 173  ISJ173     -0.2371
     16  C16      -35.2730  -23.7420  -41.5690 C.2   173  ISJ173      0.0471
@<TRIPOS>BOND
     1    15    13   ar
     2    13    14   ar
     3    13    12    1
     4    11     1    1
     5    11    12    1
     6    10     6    1
     7     1     6    1
     8     1     2    1
     9    12    16    2
    10     6     5    1
    11     2     3    1
    12     5     4    1
    13     8     7   ar
    14     3     4    2
    15     3     7    1
    16     7     9   ar
