@<TRIPOS>MOLECULE
3umm_ANP_A_1.pdb
 31 33 0 0 0
SMALL
GASTEIGER

@<TRIPOS>ATOM
      1  PG        66.0110  -17.5920    7.9160 P.3   2001  ANP2001     0.4884
      2  O1G       67.4040  -17.6190    8.8880 O.3   2001  ANP2001    -0.1240
      3  O2G       66.4360  -17.6290    6.4140 O.2   2001  ANP2001    -0.2331
      4  O3G       65.1710  -16.1720    8.2100 O.3   2001  ANP2001    -0.1240
      5  PB        64.5420  -19.0080    9.7990 P.3   2001  ANP2001     0.4669
      6  O1B       63.6650  -20.4000    9.5190 O.2   2001  ANP2001    -0.2351
      7  O2B       63.5580  -17.8650   10.1990 O.3   2001  ANP2001    -0.1253
      8  N3B       65.0620  -18.8980    8.2360 N.3   2001  ANP2001    -0.0163
      9  PA        65.6150  -19.0560   12.5890 P.3   2001  ANP2001     0.2220
     10  O1A       64.3050  -17.9980   12.5540 O.2   2001  ANP2001    -0.5170
     11  O2A       66.8840  -18.2420   12.8590 O.3   2001  ANP2001    -0.4370
     12  O3A       65.6370  -19.6450   10.9840 O.3   2001  ANP2001    -0.2360
     13  O5'       64.9520  -19.4410   14.0550 O.3   2001  ANP2001    -0.3111
     14  C5'       64.1480  -20.6740   13.8640 C.3   2001  ANP2001     0.1813
     15  C4'       62.6560  -20.9990   14.3810 C.3   2001  ANP2001     0.1821
     16  O4'       62.3560  -20.5390   15.6850 O.3   2001  ANP2001    -0.3135
     17  C3'       61.7360  -20.3120   13.4270 C.3   2001  ANP2001     0.2184
     18  O3'       60.5930  -21.1080   13.1790 O.3   2001  ANP2001    -0.2174
     19  C2'       61.4970  -18.9390   14.1190 C.3   2001  ANP2001     0.2570
     20  O2'       60.2850  -18.3220   13.7210 O.3   2001  ANP2001    -0.2130
     21  C1'       61.6320  -19.2960   15.5560 C.3   2001  ANP2001     0.3186
     22  N9        62.3470  -18.2250   16.3390 N.pl3 2001  ANP2001    -0.1439
     23  C8        63.6030  -17.7460   16.2470 C.3   2001  ANP2001     0.3377
     24  N7        63.9370  -16.7670   17.0800 N.2   2001  ANP2001    -0.2095
     25  C5        62.7930  -16.6060   17.7650 C.2   2001  ANP2001     0.2526
     26  C6        62.3550  -15.7200   18.8370 C.2   2001  ANP2001     0.4393
     27  N6        63.2010  -14.7880   19.3730 N.pl3 2001  ANP2001     0.2180
     28  N1        61.0440  -15.8090   19.3480 N.2   2001  ANP2001     0.0021
     29  C2        60.1630  -16.7370   18.8320 C.3   2001  ANP2001     0.5254
     30  N3        60.4910  -17.6030   17.8220 N.2   2001  ANP2001    -0.0055
     31  C4        61.7790  -17.5030   17.3270 C.2   2001  ANP2001     0.3518
@<TRIPOS>BOND
     1     3     1    2
     2     1     4    1
     3     1     8    1
     4     1     2    1
     5     8     5    1
     6     6     5    2
     7     5     7    1
     8     5    12    1
     9    12     9    1
    10    10     9    2
    11     9    11    1
    12     9    13    1
    13    18    17    1
    14    17    19    1
    15    17    15    1
    16    20    19    1
    17    14    13    1
    18    14    15    1
    19    19    21    1
    20    15    16    1
    21    21    16    1
    22    21    22    1
    23    23    22    1
    24    23    24    1
    25    22    31    1
    26    24    25    2
    27    31    25    1
    28    31    30    2
    29    25    26    1
    30    30    29    1
    31    29    28    1
    32    26    28    2
    33    26    27    1
