@<TRIPOS>MOLECULE
3umm_ADP_A_1.pdb
 27 29 0 0 0
SMALL
GASTEIGER

@<TRIPOS>ATOM
      1  PB        46.0880    1.3160   13.0860 P.3   2005  ADP2005     0.5373
      2  O1B       45.2390    0.1440   12.9090 O.2   2005  ADP2005    -0.2221
      3  O2B       45.4870    2.4810   13.7430 O.3   2005  ADP2005    -0.1143
      4  O3B       47.3960    0.9890   13.8590 O.3   2005  ADP2005    -0.1143
      5  PA        47.5370    2.7890   11.1600 P.3   2005  ADP2005     0.2231
      6  O1A       48.8710    2.5320   11.6730 O.3   2005  ADP2005    -0.4370
      7  O2A       46.8260    4.0620   11.4280 O.2   2005  ADP2005    -0.5169
      8  O3A       46.5380    1.6650   11.6100 O.3   2005  ADP2005    -0.2261
      9  O5'       47.5090    2.5690    9.6290 O.3   2005  ADP2005    -0.3111
     10  C5'       46.2970    2.7640    8.8860 C.3   2005  ADP2005     0.1813
     11  C4'       46.2730    1.8940    7.6550 C.3   2005  ADP2005     0.1821
     12  O4'       47.3060    1.9200    6.9190 O.3   2005  ADP2005    -0.3135
     13  C3'       45.9760    0.4430    7.9620 C.3   2005  ADP2005     0.2184
     14  O3'       45.0030    0.0880    7.1630 O.3   2005  ADP2005    -0.2174
     15  C2'       47.2850   -0.2320    7.6630 C.3   2005  ADP2005     0.2570
     16  O2'       47.2300   -1.5660    7.2580 O.3   2005  ADP2005    -0.2130
     17  C1'       47.8350    0.6360    6.6110 C.3   2005  ADP2005     0.3186
     18  N9        49.2980    0.7100    6.6330 N.pl3 2005  ADP2005    -0.1439
     19  C8        50.0830    1.3470    7.5600 C.3   2005  ADP2005     0.3377
     20  N7        51.3550    1.2250    7.2940 N.2   2005  ADP2005    -0.2095
     21  C5        51.4100    0.4630    6.1300 C.2   2005  ADP2005     0.2526
     22  C6        52.4840    0.0110    5.3670 C.2   2005  ADP2005     0.4393
     23  N6        53.7020    0.2500    5.6690 N.pl3 2005  ADP2005     0.2180
     24  N1        52.1270   -0.7110    4.2830 N.2   2005  ADP2005     0.0021
     25  C2        50.8580   -0.9880    3.9280 C.3   2005  ADP2005     0.5254
     26  N3        49.7800   -0.5780    4.6250 N.2   2005  ADP2005    -0.0055
     27  C4        50.1580    0.1290    5.6820 C.2   2005  ADP2005     0.3518
@<TRIPOS>BOND
     1    25    24    1
     2    25    26    1
     3    24    22    2
     4    26    27    2
     5    22    23    1
     6    22    21    1
     7    27    21    1
     8    27    18    1
     9    21    20    2
    10    17    18    1
    11    17    12    1
    12    17    15    1
    13    18    19    1
    14    12    11    1
    15    14    13    1
    16    16    15    1
    17    20    19    1
    18    11    13    1
    19    11    10    1
    20    15    13    1
    21    10     9    1
    22     9     5    1
    23     5     7    2
    24     5     8    1
    25     5     6    1
    26     8     1    1
    27     2     1    2
    28     1     3    1
    29     1     4    1
