@<TRIPOS>MOLECULE
3umo_ATP_A_1.pdb
 31 33 0 0 0
SMALL
GASTEIGER

@<TRIPOS>ATOM
      1  PG         8.5350  -15.7940   16.2410 P.3   313  ATP313      0.5373
      2  O1G        9.3870  -15.6450   17.4520 O.3   313  ATP313     -0.1143
      3  O2G        7.1210  -15.4710   16.7160 O.3   313  ATP313     -0.1143
      4  O3G        8.9430  -14.9080   15.1150 O.2   313  ATP313     -0.2221
      5  PB         9.7960  -18.1030   15.4680 P.3   313  ATP313      0.2277
      6  O1B       10.5590  -17.4840   14.2570 O.2   313  ATP313     -0.5168
      7  O2B       10.6700  -18.3090   16.7230 O.3   313  ATP313     -0.4368
      8  O3B        8.4680  -17.2890   15.8110 O.3   313  ATP313     -0.2258
      9  PA         8.5400  -20.1130   13.8340 P.3   313  ATP313      0.2189
     10  O1A        8.4220  -19.0650   12.7670 O.2   313  ATP313     -0.5170
     11  O2A        9.2260  -21.3940   13.3550 O.3   313  ATP313     -0.4371
     12  O3A        9.2820  -19.5560   15.0790 O.3   313  ATP313     -0.2700
     13  O5'        7.0550  -20.4120   14.3760 O.3   313  ATP313     -0.3112
     14  C5'        6.8500  -21.4700   15.2490 C.3   313  ATP313      0.1813
     15  C4'        5.8050  -22.4310   14.9010 C.3   313  ATP313      0.1821
     16  O4'        4.6290  -21.6910   14.5070 O.3   313  ATP313     -0.3135
     17  C3'        6.1360  -23.2160   13.7010 C.3   313  ATP313      0.2184
     18  O3'        6.9130  -24.3120   14.0060 O.3   313  ATP313     -0.2174
     19  C2'        4.8090  -23.5720   13.1700 C.3   313  ATP313      0.2570
     20  O2'        4.2390  -24.5510   13.9390 O.3   313  ATP313     -0.2130
     21  C1'        4.0510  -22.3190   13.3860 C.3   313  ATP313      0.3186
     22  N9         4.1210  -21.4380   12.2220 N.pl3 313  ATP313     -0.1439
     23  C8         4.9450  -20.3850   12.0690 C.3   313  ATP313      0.3377
     24  N7         4.6950  -19.8410   10.8520 N.2   313  ATP313     -0.2095
     25  C5         3.7200  -20.5480   10.2440 C.2   313  ATP313      0.2526
     26  C6         3.0700  -20.4410    9.0100 C.2   313  ATP313      0.4393
     27  N6         3.4270  -19.3580    8.0340 N.pl3 313  ATP313      0.2180
     28  N1         2.1150  -21.3380    8.7090 N.2   313  ATP313      0.0021
     29  C2         1.7810  -22.3180    9.5660 C.3   313  ATP313      0.5254
     30  N3         2.3840  -22.4390   10.7520 N.2   313  ATP313     -0.0055
     31  C4         3.3470  -21.5740   11.1160 C.2   313  ATP313      0.3518
@<TRIPOS>BOND
     1    27    26    1
     2    28    26    2
     3    28    29    1
     4    26    25    1
     5    29    30    1
     6    25    24    2
     7    25    31    1
     8    30    31    2
     9    24    23    1
    10    31    22    1
    11    23    22    1
    12    22    21    1
    13    10     9    2
    14    19    21    1
    15    19    17    1
    16    19    20    1
    17    11     9    1
    18    21    16    1
    19    17    18    1
    20    17    15    1
    21     9    13    1
    22     9    12    1
    23     6     5    2
    24    13    14    1
    25    16    15    1
    26    15    14    1
    27    12     5    1
    28     4     1    2
    29     5     8    1
    30     5     7    1
    31     8     1    1
    32     1     3    1
    33     1     2    1
