@<TRIPOS>MOLECULE
3ump_ATP_A_1.pdb
 31 33 0 0 0
SMALL
GASTEIGER

@<TRIPOS>ATOM
      1  PG        13.3670   60.2200   16.2880 P.3   313  ATP313      0.5373
      2  O1G       12.4950   60.0390   17.4880 O.3   313  ATP313     -0.1143
      3  O2G       14.7860   59.8980   16.7680 O.3   313  ATP313     -0.1143
      4  O3G       13.0250   59.3730   15.1190 O.2   313  ATP313     -0.2221
      5  PB        12.1060   62.5210   15.5120 P.3   313  ATP313      0.2277
      6  O1B       11.4130   61.8610   14.2830 O.2   313  ATP313     -0.5168
      7  O2B       11.2240   62.6970   16.7810 O.3   313  ATP313     -0.4368
      8  O3B       13.4210   61.7130   15.8940 O.3   313  ATP313     -0.2258
      9  PA        13.4030   64.4790   13.8650 P.3   313  ATP313      0.2189
     10  O1A       13.5420   63.4080   12.8100 O.2   313  ATP313     -0.5170
     11  O2A       12.7340   65.7450   13.3720 O.3   313  ATP313     -0.4371
     12  O3A       12.6380   63.9660   15.1140 O.3   313  ATP313     -0.2700
     13  O5'       14.8880   64.8000   14.4230 O.3   313  ATP313     -0.3112
     14  C5'       15.1090   65.8300   15.3330 C.3   313  ATP313      0.1813
     15  C4'       16.1180   66.8310   14.9610 C.3   313  ATP313      0.1821
     16  O4'       17.3000   66.1000   14.5460 O.3   313  ATP313     -0.3135
     17  C3'       15.7720   67.5840   13.7500 C.3   313  ATP313      0.2184
     18  O3'       15.0070   68.6860   14.0450 O.3   313  ATP313     -0.2174
     19  C2'       17.0920   67.9610   13.2040 C.3   313  ATP313      0.2570
     20  O2'       17.6720   68.9340   13.9720 O.3   313  ATP313     -0.2130
     21  C1'       17.8680   66.7320   13.4100 C.3   313  ATP313      0.3186
     22  N9        17.8010   65.8570   12.2520 N.pl3 313  ATP313     -0.1439
     23  C8        16.9900   64.7860   12.1160 C.3   313  ATP313      0.3377
     24  N7        17.2490   64.2500   10.9010 N.2   313  ATP313     -0.2095
     25  C5        18.2110   64.9900   10.2870 C.2   313  ATP313      0.2526
     26  C6        18.8670   64.9170    9.0550 C.2   313  ATP313      0.4393
     27  N6        18.5260   63.8380    8.0820 N.pl3 313  ATP313      0.2180
     28  N1        19.8070   65.8350    8.7600 N.2   313  ATP313      0.0021
     29  C2        20.1240   66.8140    9.6200 C.3   313  ATP313      0.5254
     30  N3        19.5190   66.9130   10.8080 N.2   313  ATP313     -0.0055
     31  C4        18.5720   66.0190   11.1530 C.2   313  ATP313      0.3518
@<TRIPOS>BOND
     1    27    26    1
     2    28    26    2
     3    28    29    1
     4    26    25    1
     5    29    30    1
     6    25    24    2
     7    25    31    1
     8    30    31    2
     9    24    23    1
    10    31    22    1
    11    23    22    1
    12    22    21    1
    13    10     9    2
    14    19    21    1
    15    19    17    1
    16    19    20    1
    17    11     9    1
    18    21    16    1
    19    17    18    1
    20    17    15    1
    21     9    13    1
    22     9    12    1
    23     6     5    2
    24    13    14    1
    25    16    15    1
    26    15    14    1
    27    12     5    1
    28     4     1    2
    29     5     8    1
    30     5     7    1
    31     8     1    1
    32     1     3    1
    33     1     2    1
