@<TRIPOS>MOLECULE
3umr_GDP_A_1.pdb
 28 30 0 0 0
SMALL
GASTEIGER

@<TRIPOS>ATOM
      1  PB        22.2350  -38.4610    1.3190 P.3   400  GDP400      0.5373
      2  O1B       23.6610  -37.9720    1.2880 O.3   400  GDP400     -0.1143
      3  O2B       21.7870  -38.7900    2.7270 O.3   400  GDP400     -0.1143
      4  O3B       21.3140  -37.4400    0.7100 O.2   400  GDP400     -0.2221
      5  O3A       21.9820  -39.7980    0.4670 O.3   400  GDP400     -0.2261
      6  PA        23.0920  -40.8050   -0.1200 P.3   400  GDP400      0.2231
      7  O1A       24.0030  -41.2030    0.9960 O.3   400  GDP400     -0.4370
      8  O2A       23.8810  -40.1880   -1.2410 O.2   400  GDP400     -0.5169
      9  O5'       22.2400  -42.0120   -0.7610 O.3   400  GDP400     -0.3111
     10  C5'       21.6440  -42.9540    0.1120 C.3   400  GDP400      0.1813
     11  C4'       21.7910  -44.3550   -0.4840 C.3   400  GDP400      0.1799
     12  O4'       21.0800  -44.4140   -1.7080 O.3   400  GDP400     -0.3326
     13  C3'       23.2480  -44.6730   -0.8110 C.3   400  GDP400      0.2158
     14  O3'       23.4740  -46.0410   -0.4940 O.3   400  GDP400     -0.2175
     15  C2'       23.3540  -44.4860   -2.3130 C.3   400  GDP400      0.2310
     16  O2'       24.2470  -45.3640   -2.9740 O.3   400  GDP400     -0.2158
     17  C1'       21.9540  -44.8300   -2.7680 C.3   400  GDP400      0.2293
     18  N9        21.4950  -44.0670   -3.9330 N.pl3 400  GDP400     -0.2354
     19  C8        21.4890  -42.7350   -4.1070 C.3   400  GDP400      0.2246
     20  N7        20.8730  -42.4170   -5.2800 N.2   400  GDP400     -0.2322
     21  C5        20.4920  -43.5900   -5.8590 C.2   400  GDP400      0.2182
     22  C6        19.7870  -43.9880   -7.0940 C.1   400  GDP400      0.2372
     23  O6        19.4150  -43.1150   -7.9210 O.2   400  GDP400     -0.2069
     24  N1        19.5740  -45.3000   -7.2990 N.2   400  GDP400     -0.2485
     25  C2        19.9470  -46.2550   -6.4290 C.1   400  GDP400      0.2531
     26  N2        19.6760  -47.5400   -6.7450 N.pl3 400  GDP400     -0.0226
     27  N3        20.5890  -45.9730   -5.2550 N.2   400  GDP400     -0.3074
     28  C4        20.8870  -44.6710   -4.9590 C.2   400  GDP400      0.2300
@<TRIPOS>BOND
     1    23    22    2
     2    24    22    2
     3    24    25    2
     4    22    21    1
     5    26    25    1
     6    25    27    2
     7    21    20    2
     8    21    28    1
     9    20    19    1
    10    27    28    2
    11    28    18    1
    12    19    18    1
    13    18    17    1
    14    16    15    1
    15    17    15    1
    16    17    12    1
    17    15    13    1
    18    12    11    1
    19     8     6    2
    20    13    14    1
    21    13    11    1
    22     9     6    1
    23     9    10    1
    24    11    10    1
    25     6     5    1
    26     6     7    1
    27     5     1    1
    28     4     1    2
    29     2     1    1
    30     1     3    1
