@<TRIPOS>MOLECULE
3ums_GDP_A_1.pdb
 28 30 0 0 0
SMALL
GASTEIGER

@<TRIPOS>ATOM
      1  PB       -22.4060   38.6410   -3.4430 P.3   355  GDP355      0.5373
      2  O1B      -22.0490   38.9760   -4.8780 O.2   355  GDP355     -0.2221
      3  O2B      -23.5060   39.5570   -2.9690 O.3   355  GDP355     -0.1143
      4  O3B      -22.9070   37.2140   -3.3500 O.3   355  GDP355     -0.1143
      5  O3A      -21.1240   38.9530   -2.5190 O.3   355  GDP355     -0.2261
      6  PA       -20.1640   37.7800   -2.0040 P.3   355  GDP355      0.2231
      7  O1A      -20.8370   37.0850   -0.8460 O.3   355  GDP355     -0.4370
      8  O2A      -19.8580   36.8130   -3.1410 O.2   355  GDP355     -0.5169
      9  O5'      -18.8490   38.5400   -1.4800 O.3   355  GDP355     -0.3111
     10  C5'      -17.9370   39.1510   -2.3760 C.3   355  GDP355      0.1813
     11  C4'      -16.5410   39.0600   -1.7670 C.3   355  GDP355      0.1799
     12  O4'      -16.5040   39.7730   -0.5340 O.3   355  GDP355     -0.3326
     13  C3'      -16.1830   37.6210   -1.4320 C.3   355  GDP355      0.2158
     14  O3'      -14.8360   37.3450   -1.8070 O.3   355  GDP355     -0.2175
     15  C2'      -16.3450   37.5290    0.0750 C.3   355  GDP355      0.2310
     16  O2'      -15.4470   36.5910    0.6570 O.3   355  GDP355     -0.2158
     17  C1'      -16.0540   38.9320    0.5410 C.3   355  GDP355      0.2293
     18  N9       -16.7960   39.3600    1.7440 N.pl3 355  GDP355     -0.2354
     19  C8       -18.1300   39.3400    1.9110 C.3   355  GDP355      0.2246
     20  N7       -18.4640   39.8880    3.1020 N.2   355  GDP355     -0.2322
     21  C5       -17.3320   40.3060    3.6930 C.2   355  GDP355      0.2182
     22  C6       -16.9560   40.9660    4.9630 C.1   355  GDP355      0.2372
     23  O6       -17.8370   41.2720    5.7780 O.2   355  GDP355     -0.2069
     24  N1       -15.6660   41.2150    5.2040 N.2   355  GDP355     -0.2485
     25  C2       -14.7060   40.8850    4.3130 C.1   355  GDP355      0.2531
     26  N2       -13.4030   41.1540    4.5710 N.pl3 355  GDP355     -0.0226
     27  N3       -14.9760   40.2800    3.1400 N.2   355  GDP355     -0.3074
     28  C4       -16.2380   39.9620    2.7850 C.2   355  GDP355      0.2300
@<TRIPOS>BOND
     1     2     1    2
     2     1     4    1
     3     1     3    1
     4     1     5    1
     5     8     6    2
     6     5     6    1
     7    10    11    1
     8    10     9    1
     9     6     9    1
    10     6     7    1
    11    14    13    1
    12    11    13    1
    13    11    12    1
    14    13    15    1
    15    12    17    1
    16    15    17    1
    17    15    16    1
    18    17    18    1
    19    18    19    1
    20    18    28    1
    21    19    20    1
    22    28    27    2
    23    28    21    1
    24    20    21    2
    25    27    25    2
    26    21    22    1
    27    25    26    1
    28    25    24    2
    29    22    24    2
    30    22    23    2
