@<TRIPOS>MOLECULE
3umw_596_A_1.pdb
 29 33 0 0 0
SMALL
GASTEIGER

@<TRIPOS>ATOM
      1  C1        16.8620  -37.1290   -3.8790 C.3   400  596400      0.1060
      2  C2        17.4120  -35.9520   -3.0510 C.3   400  596400      0.0914
      3  N3        18.2650  -36.4210   -1.9460 N.3   400  596400     -0.2663
      4  C4        17.5190  -37.3420   -1.0760 C.3   400  596400      0.0914
      5  C5        17.0800  -38.5710   -1.8670 C.3   400  596400      0.1060
      6  N6        16.2990  -38.1780   -3.0220 N.3   400  596400     -0.2151
      7  C7        18.8530  -35.2840   -1.1810 C.3   400  596400      0.1054
      8  C8        17.8050  -34.4550   -0.4260 C.ar  400  596400      0.0624
      9  C9        17.5310  -34.6960    0.9240 C.ar  400  596400      0.1483
     10  C10       16.5620  -33.9710    1.6140 C.ar  400  596400      0.0761
     11  C11       15.8390  -32.9650    1.0150 C.ar  400  596400      0.0094
     12  C12       16.0990  -32.7190   -0.3260 C.ar  400  596400      0.0369
     13  C13       17.0650  -33.4340   -1.0440 C.ar  400  596400      0.1389
     14  O14       17.2790  -33.1320   -2.3700 O.3   400  596400     -0.4716
     15  C15       16.4540  -32.2140   -3.1250 C.3   400  596400      0.2525
     16  O16       18.1650  -35.6830    1.7200 O.2   400  596400     -0.4542
     17  C17       17.6410  -35.6160    2.9770 C.ar  400  596400      0.1675
     18  C18       16.6240  -34.5600    2.9750 C.ar  400  596400      0.2289
     19  O19       15.9320  -34.2480    4.0220 O.3   400  596400     -0.2835
     20  C20       18.0430  -36.4710    4.1090 C.3   400  596400      0.1154
     21  C21       19.0460  -37.5590    4.1840 C.2   400  596400      0.0894
     22  N22       19.3090  -38.1030    5.3850 N.2   400  596400     -0.1522
     23  N23       20.2620  -39.0990    5.1430 N.2   400  596400     -0.1523
     24  C24       20.5900  -39.1470    3.8310 C.2   400  596400      0.0860
     25  C25       19.8620  -38.1920    3.1390 C.2   400  596400      0.0313
     26  C26       19.9610  -38.0200    1.7660 C.2   400  596400      0.0022
     27  C27       20.8440  -38.8330    1.0720 C.2   400  596400     -0.0041
     28  C28       21.5940  -39.8000    1.7520 C.2   400  596400     -0.0197
     29  C29       21.4730  -39.9620    3.1330 C.3   400  596400      0.0736
@<TRIPOS>BOND
     1     1     2    1
     2     1     6    1
     3    15    14    1
     4     2     3    1
     5     6     5    1
     6    14    13    1
     7     3     7    1
     8     3     4    1
     9     5     4    1
    10     7     8    1
    11    13     8   ar
    12    13    12   ar
    13     8     9   ar
    14    12    11   ar
    15     9    10   ar
    16     9    16   ar
    17    11    10   ar
    18    27    28    2
    19    27    26    1
    20    10    18   ar
    21    16    17   ar
    22    28    29    1
    23    26    25    2
    24    18    17   ar
    25    18    19    1
    26    17    20    1
    27    29    24    1
    28    25    24    1
    29    25    21    1
    30    24    23    2
    31    20    21    1
    32    21    22    2
    33    23    22    1
