@<TRIPOS>MOLECULE
3umx_Q18_A_1.pdb
 29 33 0 0 0
SMALL
GASTEIGER

@<TRIPOS>ATOM
      1  C1        24.1170   33.3250   -5.7640 C.3   400  Q18400      0.0015
      2  C2        23.0030   34.3770   -5.5360 C.3   400  Q18400      0.0173
      3  C3        22.8890   34.8270   -4.0580 C.3   400  Q18400      0.0724
      4  N4        22.6300   33.6080   -3.2470 N.3   400  Q18400     -0.2688
      5  C5        23.7890   32.7210   -3.0120 C.3   400  Q18400      0.0724
      6  C6        23.6420   31.5060   -3.9550 C.3   400  Q18400      0.0173
      7  C7        23.7650   31.8500   -5.4510 C.3   400  Q18400      0.0015
      8  C8        21.3520   33.5110   -2.4580 C.3   400  Q18400      0.1055
      9  C9        21.1670   32.3100   -1.4980 C.ar  400  Q18400      0.0673
     10  C10       21.4490   32.3860   -0.1240 C.ar  400  Q18400      0.1484
     11  C11       21.2810   31.2650    0.6670 C.ar  400  Q18400      0.0761
     12  C12       20.8360   30.0350    0.2450 C.ar  400  Q18400      0.0096
     13  C13       20.5580   29.8860   -1.1150 C.ar  400  Q18400      0.0421
     14  C14       20.6820   30.9750   -1.9960 C.ar  400  Q18400      0.1960
     15  O15       21.9060   33.5530    0.5940 O.2   400  Q18400     -0.4543
     16  C16       22.0530   33.1760    1.8990 C.ar  400  Q18400      0.1659
     17  C17       21.6550   31.7390    1.9870 C.ar  400  Q18400      0.2288
     18  C18       22.4950   34.0920    2.9980 C.3   400  Q18400      0.0958
     19  C19       22.9360   35.5070    2.9310 C.2   400  Q18400      0.0058
     20  C20       23.0180   36.3110    1.7370 C.2   400  Q18400      0.0117
     21  C21       23.5480   37.5110    2.2110 C.2   400  Q18400      0.0804
     22  N22       23.7850   37.4490    3.5650 N.2   400  Q18400     -0.2442
     23  C23       23.4250   36.2170    4.0210 C.2   400  Q18400      0.0950
     24  C24       22.6920   36.0370    0.4110 C.2   400  Q18400     -0.0202
     25  C25       22.9400   37.0650   -0.4940 C.3   400  Q18400      0.0521
     26  C26       23.4540   38.3040   -0.0500 C.2   400  Q18400     -0.0199
     27  C27       23.7600   38.5260    1.2960 C.2   400  Q18400      0.0148
     28  O28       21.6170   30.9820    3.0220 O.3   400  Q18400     -0.2835
     29  O29       20.3660   30.7870   -3.3160 O.3   400  Q18400     -0.2868
@<TRIPOS>BOND
     1     1     2    1
     2     1     7    1
     3     2     3    1
     4     7     6    1
     5     3     4    1
     6     6     5    1
     7    29    14    1
     8     4     5    1
     9     4     8    1
    10     8     9    1
    11    14     9   ar
    12    14    13   ar
    13     9    10   ar
    14    13    12   ar
    15    25    26    1
    16    25    24    1
    17    10    15   ar
    18    10    11   ar
    19    26    27    2
    20    12    11   ar
    21    24    20    2
    22    15    16   ar
    23    11    17   ar
    24    27    21    1
    25    20    21    1
    26    20    19    1
    27    16    17   ar
    28    16    18    1
    29    17    28    1
    30    21    22    2
    31    19    18    1
    32    19    23    2
    33    22    23    1
