@<TRIPOS>MOLECULE
3un3_G16_A_1.pdb
 20 20 0 0 0
SMALL
GASTEIGER

@<TRIPOS>ATOM
      1  C1        14.6530    8.5690    8.1020 C.3   399  G16399      0.2781
      2  C2        14.6970    9.8930    7.3470 C.3   399  G16399      0.2410
      3  C3        15.2210    9.6780    5.9240 C.3   399  G16399      0.2198
      4  C4        16.6000    9.0190    5.9360 C.3   399  G16399      0.2143
      5  C5        16.6290    7.8250    6.8930 C.3   399  G16399      0.1807
      6  C6        18.0810    7.5950    7.2140 C.3   399  G16399      0.1859
      7  O1        13.7460    7.6470    7.4550 O.3   399  G16399     -0.2416
      8  O2        13.3740   10.4040    7.3100 O.3   399  G16399     -0.2149
      9  O3        15.2990   10.9150    5.2190 O.3   399  G16399     -0.2174
     10  O4        16.9040    8.5560    4.6170 O.3   399  G16399     -0.2176
     11  O5        15.9810    8.0250    8.1750 O.3   399  G16399     -0.3254
     12  O6        18.2980    6.2140    7.3980 O.3   399  G16399     -0.2675
     13  P         19.5310    5.7040    8.3140 P.3   399  G16399      0.5327
     14  O1P       20.0800    4.4080    7.5370 O.2   399  G16399     -0.2224
     15  O2P       20.5640    6.7340    8.5550 O.3   399  G16399     -0.1145
     16  O3P       18.7910    5.1940    9.6540 O.3   399  G16399     -0.1145
     17  P'        12.8040    6.6950    8.3610 P.3   399  G16399      0.5346
     18  O1X       13.7700    5.7960    9.2900 O.3   399  G16399     -0.1145
     19  O2X       11.8510    5.8700    7.5730 O.2   399  G16399     -0.2223
     20  O3X       12.0060    7.6850    9.3380 O.3   399  G16399     -0.1145
@<TRIPOS>BOND
     1    10     4    1
     2     9     3    1
     3     3     4    1
     4     3     2    1
     5     4     5    1
     6     5     6    1
     7     5    11    1
     8     6    12    1
     9     8     2    1
    10     2     1    1
    11    12    13    1
    12     7     1    1
    13     7    17    1
    14    14    13    2
    15    19    17    2
    16     1    11    1
    17    13    15    1
    18    13    16    1
    19    17    18    1
    20    17    20    1
