@<TRIPOS>MOLECULE
3un4_04C_b_1.pdb
 42 44 0 0 0
SMALL
GASTEIGER

@<TRIPOS>ATOM
      1  C29       20.6800 -161.8150   50.7800 C.2   201  04C201      0.2581
      2  O37       21.1590 -160.8600   51.3980 O.2   201  04C201     -0.2718
      3  C30       20.6280 -161.7250   49.2680 C.3   201  04C201      0.1603
      4  N31       22.0310 -161.7150   48.7650 N.3   201  04C201     -0.2606
      5  O34       24.6340 -161.7260   47.7670 O.3   201  04C201     -0.3508
      6  C36       22.3740 -160.6550   47.7780 C.3   201  04C201      0.1050
      7  C32       22.6220 -163.0370   48.4040 C.3   201  04C201      0.1050
      8  C35       23.9110 -160.4700   47.9220 C.3   201  04C201      0.1595
      9  C33       24.1630 -162.8830   48.5100 C.3   201  04C201      0.1595
     10  N28       20.3130 -162.9990   51.3590 N.am  201  04C201     -0.1966
     11  C27       20.1690 -163.1450   52.8230 C.3   201  04C201      0.1728
     12  C26       21.5230 -163.3030   53.5070 C.2   201  04C201      0.2616
     13  O39       22.3480 -164.0920   53.0380 O.2   201  04C201     -0.2715
     14  C38       19.1880 -164.3060   53.1740 C.3   201  04C201      0.0334
     15  N25       21.7560 -162.4760   54.5720 N.am  201  04C201     -0.1960
     16  C24       23.0760 -162.3550   55.2140 C.3   201  04C201      0.1771
     17  C40       23.7080 -161.0120   54.7370 C.3   201  04C201      0.0574
     18  C41       24.7800 -161.2470   53.6640 C.ar  201  04C201     -0.0198
     19  C48       24.4580 -161.1770   52.2880 C.ar  201  04C201     -0.0011
     20  C47       25.4550 -161.3820   51.3240 C.ar  201  04C201      0.0366
     21  C44       26.7920 -161.6480   51.7240 C.ar  201  04C201      0.1387
     22  O45       27.8060 -161.7620   50.7380 O.3   201  04C201     -0.4714
     23  C46       27.8070 -162.9410   49.9030 C.3   201  04C201      0.2525
     24  C43       27.1030 -161.7720   53.0890 C.ar  201  04C201      0.0366
     25  C42       26.1110 -161.5350   54.0570 C.ar  201  04C201     -0.0011
     26  C23       22.9960 -162.4310   56.7410 C.2   201  04C201      0.2616
     27  O49       22.0300 -161.9230   57.3170 O.2   201  04C201     -0.2715
     28  N22       24.0230 -163.0620   57.4000 N.am  201  04C201     -0.2028
     29  C8        24.1270 -163.1240   58.8700 C.3   201  04C201      0.1300
     30  C9        25.0020 -161.9460   59.4450 C.3   201  04C201      0.1745
     31  O21       26.2670 -161.9150   58.7360 O.3   201  04C201     -0.2212
     32  C10       24.4200 -160.4680   59.6450 C.3   201  04C201      0.0652
     33  C11       22.9430 -160.5320   60.1540 C.3   201  04C201      0.0054
     34  C12       24.3050 -159.5710   58.3600 C.3   201  04C201      0.1846
     35  O13       25.1930 -159.9670   57.2860 O.3   201  04C201     -0.2203
     36  C7        24.7150 -164.5120   59.3690 C.3   201  04C201      0.0506
     37  C6        23.7400 -165.6930   59.1660 C.ar  201  04C201     -0.0204
     38  C5        22.3470 -165.4900   59.2590 C.ar  201  04C201     -0.0042
     39  C4        21.4640 -166.5470   59.0280 C.ar  201  04C201     -0.0003
     40  C3        21.9610 -167.8100   58.7150 C.ar  201  04C201     -0.0000
     41  C2        23.3540 -168.0260   58.6610 C.ar  201  04C201     -0.0003
     42  C1        24.2330 -166.9760   58.9180 C.ar  201  04C201     -0.0042
@<TRIPOS>BOND
     1     5     8    1
     2     5     9    1
     3     6     8    1
     4     6     4    1
     5     7     9    1
     6     7     4    1
     7     4     3    1
     8     3     1    1
     9    23    22    1
    10    22    21    1
    11     1    10   am
    12     1     2    2
    13    20    21   ar
    14    20    19   ar
    15    10    11    1
    16    21    24   ar
    17    19    18   ar
    18    11    14    1
    19    11    12    1
    20    13    12    2
    21    24    25   ar
    22    12    15   am
    23    18    25   ar
    24    18    17    1
    25    15    16    1
    26    17    16    1
    27    16    26    1
    28    26    27    2
    29    26    28   am
    30    35    34    1
    31    28    29    1
    32    34    32    1
    33    41    40   ar
    34    41    42   ar
    35    40    39   ar
    36    31    30    1
    37    29    36    1
    38    29    30    1
    39    42    37   ar
    40    39    38   ar
    41    37    38   ar
    42    37    36    1
    43    30    32    1
    44    32    33    1
