@<TRIPOS>MOLECULE
3un8_049_K_1.pdb
 18 19 0 0 0
SMALL
GASTEIGER

@<TRIPOS>ATOM
      1  C4         9.6910 -133.9800   13.7040 C.ar  213  049213     -0.0003
      2  C5         9.6910 -135.3520   14.0020 C.ar  213  049213     -0.0042
      3  C6        10.7890 -136.1340   13.6910 C.ar  213  049213     -0.0204
      4  C7        11.7390 -138.4130   13.5560 C.3   213  049213      0.1323
      5  C8        10.7600 -137.5340   13.8680 C.3   213  049213      0.0507
      6  C10       12.0120 -140.5210   12.7030 C.3   213  049213      0.1496
      7  O21       13.3290 -138.2460   12.0150 O.3   213  049213     -0.2187
      8  C9        12.1540 -138.9970   12.2830 C.3   213  049213      0.1990
      9  C12       13.1900 -141.5300   12.3360 C.3   213  049213      0.1717
     10  O13       12.9060 -141.0670   13.6340 O.3   213  049213     -0.3509
     11  C11       10.6010 -141.1660   12.7260 C.3   213  049213      0.0349
     12  N22       12.9480 -138.1080   14.3690 N.am  213  049213     -0.2041
     13  C23       13.2840 -138.8310   15.4830 C.2   213  049213      0.2419
     14  C18       14.7010 -138.7420   15.9910 C.3   213  049213      0.0964
     15  O49       12.5210 -139.6010   16.0420 O.2   213  049213     -0.2733
     16  C3        10.8400 -133.3770   13.1460 C.ar  213  049213     -0.0000
     17  C2        11.9670 -134.1530   12.8690 C.ar  213  049213     -0.0003
     18  C1        11.9550 -135.5130   13.1410 C.ar  213  049213     -0.0042
@<TRIPOS>BOND
     1     7     8    1
     2     8     6    1
     3     8     4    1
     4     9     6    1
     5     9    10    1
     6     6    11    1
     7     6    10    1
     8    17    18   ar
     9    17    16   ar
    10    18     3   ar
    11    16     1   ar
    12     4     5    1
    13     4    12    1
    14     3     5    1
    15     3     2   ar
    16     1     2   ar
    17    12    13   am
    18    13    14    1
    19    13    15    2
