@<TRIPOS>MOLECULE
3una_NAD_A_1.pdb
 23 25 0 0 0
SMALL
GASTEIGER

@<TRIPOS>ATOM
      1  PA        32.0060   59.3110   29.0600 P.3   1338  NAD1338     0.5327
      2  O1A       30.8170   58.5170   28.6070 O.2   1338  NAD1338    -0.2224
      3  O2A       31.6420   60.2880   30.1490 O.3   1338  NAD1338    -0.1145
      4  O5B       32.6080   60.1490   27.9550 O.3   1338  NAD1338    -0.2675
      5  C5B       33.6170   61.1590   28.3420 C.3   1338  NAD1338     0.1860
      6  C4B       34.0970   62.5050   27.7990 C.3   1338  NAD1338     0.1823
      7  O4B       32.9130   63.3050   27.6090 O.3   1338  NAD1338    -0.3135
      8  C3B       34.9500   63.2900   28.7850 C.3   1338  NAD1338     0.2184
      9  O3B       36.3610   62.9660   28.4890 O.3   1338  NAD1338    -0.2174
     10  C2B       34.5750   64.7450   28.3970 C.3   1338  NAD1338     0.2570
     11  O2B       35.4040   65.2020   27.2750 O.3   1338  NAD1338    -0.2130
     12  C1B       33.0850   64.7160   27.9460 C.3   1338  NAD1338     0.3186
     13  N9A       32.1560   65.1280   29.0390 N.pl3 1338  NAD1338    -0.1439
     14  C8A       31.2260   64.5050   29.7800 C.3   1338  NAD1338     0.3377
     15  N7A       30.5780   65.3510   30.7250 N.2   1338  NAD1338    -0.2095
     16  C5A       31.2130   66.6070   30.4920 C.2   1338  NAD1338     0.2526
     17  C6A       31.0080   67.8680   31.1150 C.2   1338  NAD1338     0.4393
     18  N6A       30.0450   68.0580   32.1570 N.pl3 1338  NAD1338     0.2180
     19  N1A       31.8120   68.9910   30.6620 N.2   1338  NAD1338     0.0021
     20  C2A       32.7720   68.7960   29.6210 C.3   1338  NAD1338     0.5254
     21  N3A       33.0330   67.5640   28.9500 N.2   1338  NAD1338    -0.0055
     22  C4A       32.1850   66.5080   29.4690 C.2   1338  NAD1338     0.3518
     23  O3        33.1310   58.3840   29.4330 O.3   1338  NAD1338    -0.1145
@<TRIPOS>BOND
     1    11    10    1
     2     7     6    1
     3     7    12    1
     4     6     5    1
     5     6     8    1
     6    12    10    1
     7    12    13    1
     8     4     5    1
     9     4     1    1
    10    10     8    1
    11     9     8    1
    12     2     1    2
    13    21    22    2
    14    21    20    1
    15    13    22    1
    16    13    14    1
    17     1    23    1
    18     1     3    1
    19    22    16    1
    20    20    19    1
    21    14    15    1
    22    16    15    2
    23    16    17    1
    24    19    17    2
    25    17    18    1
