@<TRIPOS>MOLECULE
3unb_04C_1_1.pdb
 42 44 0 0 0
SMALL
GASTEIGER

@<TRIPOS>ATOM
      1  C29       64.5250   35.0100  109.5220 C.2   301  04C301      0.2581
      2  O37       63.9780   34.7210  110.5780 O.2   301  04C301     -0.2718
      3  C30       65.5100   36.1590  109.5060 C.3   301  04C301      0.1603
      4  N31       66.4650   36.1620  110.6490 N.3   301  04C301     -0.2606
      5  O34       68.8870   36.8840  112.0080 O.3   301  04C301     -0.3508
      6  C36       66.6590   37.5260  111.2150 C.3   301  04C301      0.1050
      7  C32       67.7450   35.4540  110.3610 C.3   301  04C301      0.1050
      8  C35       67.6460   37.4950  112.4120 C.3   301  04C301      0.1595
      9  C33       68.7170   35.5200  111.5690 C.3   301  04C301      0.1595
     10  N28       64.3270   34.3360  108.3570 N.am  301  04C301     -0.1966
     11  C27       63.4420   33.1690  108.2420 C.3   301  04C301      0.1728
     12  C26       64.1640   31.8930  108.6270 C.2   301  04C301      0.2616
     13  O39       65.3880   31.8670  108.5850 O.2   301  04C301     -0.2715
     14  C38       62.9120   33.0850  106.7880 C.3   301  04C301      0.0334
     15  N25       63.4100   30.8410  109.0420 N.am  301  04C301     -0.1960
     16  C24       63.9720   29.6610  109.7000 C.3   301  04C301      0.1771
     17  C40       63.5900   29.7380  111.1970 C.3   301  04C301      0.0574
     18  C41       64.6700   30.4740  112.0510 C.ar  301  04C301     -0.0198
     19  C48       64.5230   31.8560  112.3890 C.ar  301  04C301     -0.0011
     20  C47       65.4890   32.4870  113.1300 C.ar  301  04C301      0.0366
     21  C44       66.6470   31.7520  113.5930 C.ar  301  04C301      0.1387
     22  O45       67.3930   32.2620  114.3620 O.3   301  04C301     -0.4714
     23  C46       67.1990   32.0040  115.7700 C.3   301  04C301      0.2525
     24  C43       66.8390   30.4290  113.1860 C.ar  301  04C301      0.0366
     25  C42       65.8440   29.7760  112.4470 C.ar  301  04C301     -0.0011
     26  C23       63.3570   28.4080  109.1280 C.2   301  04C301      0.2616
     27  O49       62.4040   28.5280  108.3700 O.2   301  04C301     -0.2715
     28  N22       63.8790   27.2070  109.5160 N.am  301  04C301     -0.2028
     29  C8        63.5740   25.9340  108.8510 C.3   301  04C301      0.1300
     30  C9        63.3110   24.7880  109.8920 C.3   301  04C301      0.1745
     31  O21       64.3850   24.8710  110.8500 O.3   301  04C301     -0.2212
     32  C10       61.9120   24.7340  110.6440 C.3   301  04C301      0.0652
     33  C11       60.7630   25.3930  109.8170 C.3   301  04C301      0.0054
     34  C12       61.9220   25.4410  112.0300 C.3   301  04C301      0.1846
     35  O13       62.2000   26.8450  111.8800 O.3   301  04C301     -0.2203
     36  C7        64.8150   25.5270  108.0040 C.3   301  04C301      0.0506
     37  C6        64.9220   25.9970  106.5950 C.ar  301  04C301     -0.0204
     38  C5        63.9080   26.8370  106.0380 C.ar  301  04C301     -0.0042
     39  C4        64.0900   27.4200  104.7880 C.ar  301  04C301     -0.0003
     40  C3        65.2750   27.1760  104.0680 C.ar  301  04C301     -0.0000
     41  C2        66.2550   26.2960  104.5930 C.ar  301  04C301     -0.0003
     42  C1        66.0490   25.6800  105.8320 C.ar  301  04C301     -0.0042
@<TRIPOS>BOND
     1    40    41   ar
     2    40    39   ar
     3    41    42   ar
     4    39    38   ar
     5    42    37   ar
     6    38    37   ar
     7    37    36    1
     8    14    11    1
     9    36    29    1
    10    11    10    1
    11    11    12    1
    12    10     1   am
    13    27    26    2
    14    13    12    2
    15    12    15   am
    16    29    28    1
    17    29    30    1
    18    15    16    1
    19    26    28   am
    20    26    16    1
    21     3     1    1
    22     3     4    1
    23     1     2    2
    24    16    17    1
    25    33    32    1
    26    30    32    1
    27    30    31    1
    28     7     4    1
    29     7     9    1
    30    32    34    1
    31     4     6    1
    32    17    18    1
    33     6     8    1
    34     9     5    1
    35    35    34    1
    36     5     8    1
    37    18    19   ar
    38    18    25   ar
    39    19    20   ar
    40    25    24   ar
    41    20    21   ar
    42    24    21   ar
    43    21    22    1
    44    22    23    1
