@<TRIPOS>MOLECULE
3und_PEP_A_1.pdb
 10 9 0 0 0
SMALL
GASTEIGER

@<TRIPOS>ATOM
      1  C1       -12.5470   -5.7840   -3.1460 C.2   304  PEP304      0.4216
      2  O1       -11.9160   -6.7950   -3.5490 O.co2 304  PEP304     -0.2371
      3  O2'      -13.5950   -5.8820   -2.4330 O.co2 304  PEP304     -0.2371
      4  C2       -12.0890   -4.4530   -3.5860 C.2   304  PEP304      0.2283
      5  C3       -12.3770   -3.3840   -2.8740 C.2   304  PEP304      0.0477
      6  O2       -11.4110   -4.3370   -4.8590 O.2   304  PEP304     -0.3930
      7  P        -10.3840   -3.1650   -5.3850 P.3   304  PEP304      0.5889
      8  O1P      -11.3640   -2.2880   -6.1440 O.3   304  PEP304     -0.1039
      9  O2P       -9.6780   -2.6080   -4.1720 O.3   304  PEP304     -0.1039
     10  O3P       -9.5720   -3.9650   -6.3570 O.2   304  PEP304     -0.2114
@<TRIPOS>BOND
     1    10     7    2
     2     8     7    1
     3     7     6    1
     4     7     9    1
     5     6     4    1
     6     4     1    1
     7     4     5    2
     8     2     1   ar
     9     1     3   ar
