@<TRIPOS>MOLECULE
3und_A5P_A_1.pdb
 14 13 0 0 0
SMALL
GASTEIGER

@<TRIPOS>ATOM
      1  C1       -14.5880   -2.8370   -4.3120 C.3   301  A5P301      0.2175
      2  O1       -15.7730   -3.5550   -4.4770 O.3   301  A5P301     -0.2175
      3  C2       -14.6730   -1.3520   -4.5460 C.3   301  A5P301      0.2175
      4  O2       -13.4810   -0.9020   -5.2350 O.3   301  A5P301     -0.2175
      5  C3       -15.8850   -1.0130   -5.3960 C.3   301  A5P301      0.2174
      6  O3       -15.6120   -1.2740   -6.7920 O.3   301  A5P301     -0.2175
      7  C4       -16.2120    0.4470   -5.2480 C.3   301  A5P301      0.2147
      8  O4       -16.3440    0.7840   -3.8560 O.3   301  A5P301     -0.2176
      9  C5       -17.4840    0.7500   -6.0150 C.3   301  A5P301      0.1892
     10  O5       -17.3580    2.0640   -6.5690 O.3   301  A5P301     -0.2674
     11  P        -18.7080    2.9120   -6.8740 P.3   301  A5P301      0.5327
     12  O1P      -18.3110    3.8650   -7.9480 O.2   301  A5P301     -0.2224
     13  O2P      -19.7540    1.9000   -7.3190 O.3   301  A5P301     -0.1145
     14  O3P      -18.9720    3.5310   -5.5050 O.3   301  A5P301     -0.1145
@<TRIPOS>BOND
     1    12    11    2
     2    13    11    1
     3    11    10    1
     4    11    14    1
     5     6     5    1
     6    10     9    1
     7     9     7    1
     8     5     7    1
     9     5     3    1
    10     7     8    1
    11     4     3    1
    12     3     1    1
    13     2     1    1
