@<TRIPOS>MOLECULE
3und_KD0_A_1.pdb
 20 19 0 0 0
SMALL
GASTEIGER

@<TRIPOS>ATOM
      1  O4P      -18.2860    3.6770   -7.8920 O.2   306  KD0306     -0.2224
      2  P        -18.6570    2.7310   -6.7850 P.3   306  KD0306      0.5327
      3  O2P      -19.7540    1.7490   -7.1510 O.3   306  KD0306     -0.1145
      4  O3P      -18.9020    3.3880   -5.4400 O.3   306  KD0306     -0.1145
      5  O1P      -17.3160    1.8270   -6.5130 O.3   306  KD0306     -0.2674
      6  C8       -17.3930    0.4570   -6.0560 C.3   306  KD0306      0.1892
      7  C7       -16.1480    0.1320   -5.2240 C.3   306  KD0306      0.2147
      8  O7       -16.2800    0.5960   -3.8730 O.3   306  KD0306     -0.2176
      9  C6       -15.8210   -1.3540   -5.1800 C.3   306  KD0306      0.2173
     10  O6       -15.5940   -1.8520   -6.5220 O.3   306  KD0306     -0.2175
     11  C5       -14.5650   -1.5650   -4.3600 C.3   306  KD0306      0.2153
     12  O5       -13.5010   -0.7390   -4.8940 O.3   306  KD0306     -0.2176
     13  C4       -14.1500   -3.0210   -4.4650 C.3   306  KD0306      0.1927
     14  O4       -15.1910   -3.9090   -4.0020 O.3   306  KD0306     -0.2198
     15  C3       -12.8490   -3.2180   -3.6950 C.3   306  KD0306      0.1118
     16  C1       -12.4800   -4.6600   -3.8120 C.2   306  KD0306      0.2546
     17  O3       -11.7220   -4.9910   -4.6830 O.2   306  KD0306     -0.2842
     18  C2       -13.0510   -5.6880   -2.9230 C.2   306  KD0306      0.4219
     19  O1       -12.6330   -6.8670   -3.0240 O.co2 306  KD0306     -0.2373
     20  O2       -13.9260   -5.3730   -2.0920 O.co2 306  KD0306     -0.2373
@<TRIPOS>BOND
     1     1     2    2
     2     3     2    1
     3     2     5    1
     4     2     4    1
     5    10     9    1
     6     5     6    1
     7     6     7    1
     8     7     9    1
     9     7     8    1
    10     9    11    1
    11    12    11    1
    12    17    16    2
    13    13    11    1
    14    13    14    1
    15    13    15    1
    16    16    15    1
    17    16    18    1
    18    19    18   ar
    19    18    20   ar
