@<TRIPOS>MOLECULE
3unf_04C_b_1.pdb
 42 44 0 0 0
SMALL
GASTEIGER

@<TRIPOS>ATOM
      1  C29       40.1990  -67.1960   14.4760 C.2   201  04C201      0.2581
      2  O37       39.7090  -67.6380   13.4380 O.2   201  04C201     -0.2718
      3  C30       40.3050  -65.6870   14.6220 C.3   201  04C201      0.1603
      4  N31       39.1380  -64.9980   13.9990 N.3   201  04C201     -0.2606
      5  O34       37.0860  -63.1380   13.3250 O.3   201  04C201     -0.3508
      6  C36       39.4880  -63.7690   13.2340 C.3   201  04C201      0.1050
      7  C32       37.9710  -64.8040   14.9120 C.3   201  04C201      0.1050
      8  C35       38.2300  -63.2930   12.4470 C.3   201  04C201      0.1595
      9  C33       36.7470  -64.3320   14.0760 C.3   201  04C201      0.1595
     10  N28       40.5700  -67.9710   15.5330 N.am  201  04C201     -0.1966
     11  C27       40.6140  -69.4440   15.4950 C.3   201  04C201      0.1728
     12  C26       39.2350  -70.0630   15.3030 C.2   201  04C201      0.2616
     13  O39       38.2740  -69.5590   15.8850 O.2   201  04C201     -0.2715
     14  C38       41.2480  -69.9720   16.8130 C.3   201  04C201      0.0334
     15  N25       39.1410  -71.1360   14.4660 N.am  201  04C201     -0.1960
     16  C24       37.8630  -71.7970   14.1610 C.3   201  04C201      0.1771
     17  C40       37.4350  -71.2730   12.7660 C.3   201  04C201      0.0574
     18  C41       36.3500  -70.1820   12.7410 C.ar  201  04C201     -0.0198
     19  C48       36.6820  -68.8280   12.9190 C.ar  201  04C201     -0.0011
     20  C47       35.6900  -67.8310   12.7710 C.ar  201  04C201      0.0366
     21  C44       34.3560  -68.1930   12.5360 C.ar  201  04C201      0.1387
     22  O45       33.3900  -67.1980   12.3900 O.3   201  04C201     -0.4714
     23  C46       33.2160  -66.2350   13.4530 C.3   201  04C201      0.2525
     24  C43       34.0070  -69.5520   12.4340 C.ar  201  04C201      0.0366
     25  C42       35.0090  -70.5420   12.5040 C.ar  201  04C201     -0.0011
     26  C23       38.0160  -73.3130   14.0870 C.2   201  04C201      0.2616
     27  O49       39.1050  -73.8030   13.7940 O.2   201  04C201     -0.2715
     28  N22       36.8930  -74.0680   14.2430 N.am  201  04C201     -0.2028
     29  C8        36.9300  -75.5310   14.3700 C.3   201  04C201      0.1300
     30  C9        36.3190  -76.2430   13.1120 C.3   201  04C201      0.1745
     31  O21       35.1660  -75.4680   12.7060 O.3   201  04C201     -0.2212
     32  C10       37.2680  -76.5190   11.8720 C.3   201  04C201      0.0652
     33  C11       38.6960  -76.9150   12.3420 C.3   201  04C201      0.0054
     34  C12       37.4990  -75.3010   10.9270 C.3   201  04C201      0.1846
     35  O13       36.7770  -74.1550   11.4040 O.3   201  04C201     -0.2203
     36  C7        36.0430  -75.9090   15.5880 C.3   201  04C201      0.0506
     37  C6        36.6380  -75.6610   17.0250 C.ar  201  04C201     -0.0204
     38  C5        38.0300  -75.7350   17.2410 C.ar  201  04C201     -0.0042
     39  C4        38.5570  -75.5060   18.5180 C.ar  201  04C201     -0.0003
     40  C3        37.6880  -75.2670   19.6060 C.ar  201  04C201     -0.0000
     41  C2        36.3080  -75.2720   19.4100 C.ar  201  04C201     -0.0003
     42  C1        35.7820  -75.4120   18.1090 C.ar  201  04C201     -0.0042
@<TRIPOS>BOND
     1    34    35    1
     2    34    32    1
     3    32    33    1
     4    32    30    1
     5    22    21    1
     6    22    23    1
     7    24    25   ar
     8    24    21   ar
     9     8     6    1
    10     8     5    1
    11    25    18   ar
    12    21    20   ar
    13    31    30    1
    14    18    17    1
    15    18    19   ar
    16    17    16    1
    17    20    19   ar
    18    30    29    1
    19     6     4    1
    20     5     9    1
    21     2     1    2
    22    27    26    2
    23     4     3    1
    24     4     7    1
    25     9     7    1
    26    26    16    1
    27    26    28   am
    28    16    15    1
    29    28    29    1
    30    29    36    1
    31    15    12   am
    32     1     3    1
    33     1    10   am
    34    12    11    1
    35    12    13    2
    36    11    10    1
    37    11    14    1
    38    36    37    1
    39    37    38   ar
    40    37    42   ar
    41    38    39   ar
    42    42    41   ar
    43    39    40   ar
    44    41    40   ar
