@<TRIPOS>MOLECULE
3ung_ADP_C_1.pdb
 27 29 0 0 0
SMALL
GASTEIGER

@<TRIPOS>ATOM
      1  PB        15.3120   30.1280    6.5630 P.3   904  ADP904      0.5373
      2  O1B       13.8060   30.1280    6.4680 O.3   904  ADP904     -0.1143
      3  O2B       15.9310   31.4250    6.0950 O.3   904  ADP904     -0.1143
      4  O3B       15.9800   28.8870    6.0230 O.2   904  ADP904     -0.2221
      5  PA        14.7570   30.8840    9.2330 P.3   904  ADP904      0.2231
      6  O1A       13.8700   31.8490    8.4770 O.2   904  ADP904     -0.5169
      7  O2A       15.6880   31.3960   10.3100 O.3   904  ADP904     -0.4370
      8  O3A       15.6530   30.0980    8.1430 O.3   904  ADP904     -0.2261
      9  O5'       13.7900   29.7600    9.8840 O.3   904  ADP904     -0.3111
     10  C5'       14.1010   29.0630   11.0990 C.3   904  ADP904      0.1813
     11  C4'       13.4280   27.6900   11.0740 C.3   904  ADP904      0.1821
     12  O4'       12.9850   27.2870   12.3710 O.3   904  ADP904     -0.3135
     13  C3'       12.2030   27.6900   10.1770 C.3   904  ADP904      0.2184
     14  O3'       12.4750   26.9450    8.9890 O.3   904  ADP904     -0.2174
     15  C2'       11.1120   26.9920   10.9530 C.3   904  ADP904      0.2570
     16  O2'       10.6910   25.8340   10.2320 O.3   904  ADP904     -0.2130
     17  C1'       11.7400   26.5860   12.2750 C.3   904  ADP904      0.3186
     18  N9        10.8040   26.8910   13.4050 N.pl3 904  ADP904     -0.1439
     19  C8        10.4960   28.1090   13.9120 C.3   904  ADP904      0.3377
     20  N7         9.5980   28.0280   14.9360 N.2   904  ADP904     -0.2095
     21  C5         9.3110   26.7210   15.1040 C.2   904  ADP904      0.2526
     22  C6         8.4500   25.9140   16.0110 C.2   904  ADP904      0.4393
     23  N6         7.6700   26.4780   16.9800 N.pl3 904  ADP904      0.2180
     24  N1         8.4610   24.5750   15.8320 N.2   904  ADP904      0.0021
     25  C2         9.2020   23.9730   14.8860 C.3   904  ADP904      0.5254
     26  N3        10.0080   24.6330   14.0420 N.2   904  ADP904     -0.0055
     27  C4        10.1040   25.9830   14.0940 C.2   904  ADP904      0.3518
@<TRIPOS>BOND
     1     4     1    2
     2     3     1    1
     3     2     1    1
     4     1     8    1
     5     8     5    1
     6     6     5    2
     7    14    13    1
     8     5     9    1
     9     5     7    1
    10     9    10    1
    11    13    15    1
    12    13    11    1
    13    16    15    1
    14    15    17    1
    15    11    10    1
    16    11    12    1
    17    17    12    1
    18    17    18    1
    19    18    19    1
    20    18    27    1
    21    19    20    1
    22    26    27    2
    23    26    25    1
    24    27    21    1
    25    25    24    1
    26    20    21    2
    27    21    22    1
    28    24    22    2
    29    22    23    1
