@<TRIPOS>MOLECULE
3uni_NAI_A_1.pdb
 44 48 0 0 0
SMALL
GASTEIGER

@<TRIPOS>ATOM
      1  PA         9.2410   55.1520  100.3130 P.3   1338  NAI1338     0.2189
      2  O1A        8.7970   54.3820  101.5020 O.3   1338  NAI1338    -0.4371
      3  O2A        8.3890   56.4990  100.1510 O.2   1338  NAI1338    -0.5170
      4  O5B        9.1260   54.3470   98.9370 O.3   1338  NAI1338    -0.3112
      5  C5B        9.5050   54.9870   97.7250 C.3   1338  NAI1338     0.1813
      6  C4B        8.9510   54.2090   96.5410 C.3   1338  NAI1338     0.1821
      7  O4B        7.5210   54.1110   96.5930 O.3   1338  NAI1338    -0.3135
      8  C3B        9.3040   54.8790   95.2210 C.3   1338  NAI1338     0.2184
      9  O3B       10.5960   54.4320   94.8010 O.3   1338  NAI1338    -0.2174
     10  C2B        8.1640   54.3870   94.3260 C.3   1338  NAI1338     0.2570
     11  O2B        8.4710   53.1000   93.7630 O.3   1338  NAI1338    -0.2130
     12  C1B        6.9740   54.3000   95.2760 C.3   1338  NAI1338     0.3186
     13  N9A        6.1040   55.5340   95.3000 N.pl3 1338  NAI1338    -0.1439
     14  C8A        5.8770   56.3330   96.3630 C.3   1338  NAI1338     0.3377
     15  N7A        5.0470   57.3220   96.0290 N.2   1338  NAI1338    -0.2095
     16  C5A        4.7300   57.1720   94.7490 C.2   1338  NAI1338     0.2526
     17  C6A        3.9100   57.8720   93.8470 C.2   1338  NAI1338     0.4393
     18  N6A        3.2430   58.9480   94.2390 N.pl3 1338  NAI1338     0.2180
     19  N1A        3.8050   57.4290   92.5630 N.2   1338  NAI1338     0.0021
     20  C2A        4.4640   56.3430   92.1370 C.3   1338  NAI1338     0.5254
     21  N3A        5.2520   55.6500   92.9700 N.2   1338  NAI1338    -0.0055
     22  C4A        5.4070   56.0310   94.2710 C.2   1338  NAI1338     0.3518
     23  O3        10.8010   55.5940  100.4090 O.3   1338  NAI1338    -0.2703
     24  PN        11.6040   55.7170  101.8060 P.3   1338  NAI1338     0.2189
     25  O1N       10.7980   56.7490  102.7420 O.3   1338  NAI1338    -0.4371
     26  O2N       13.0220   56.1170  101.6260 O.2   1338  NAI1338    -0.5170
     27  O5D       11.4560   54.2820  102.4730 O.3   1338  NAI1338    -0.3112
     28  C5D       12.1000   53.1990  101.8320 C.3   1338  NAI1338     0.1813
     29  C4D       11.8050   51.8890  102.5360 C.3   1338  NAI1338     0.1799
     30  O4D       12.4980   50.8680  101.8380 O.3   1338  NAI1338    -0.3327
     31  C3D       12.3350   51.7700  103.9490 C.3   1338  NAI1338     0.2158
     32  O3D       11.4600   52.3470  104.9360 O.3   1338  NAI1338    -0.2175
     33  C2D       12.3870   50.2460  104.1140 C.3   1338  NAI1338     0.2309
     34  O2D       11.1840   49.7200  104.6880 O.3   1338  NAI1338    -0.2158
     35  C1D       12.5060   49.7100  102.6780 C.3   1338  NAI1338     0.2263
     36  N1N       13.7910   49.1220  102.2550 N.pl3 1338  NAI1338    -0.2787
     37  C2N       15.0310   49.5570  102.7950 C.3   1338  NAI1338     0.1244
     38  C3N       16.2150   48.9810  102.3360 C.2   1338  NAI1338     0.0544
     39  C7N       17.5500   49.4460  102.9020 C.2   1338  NAI1338     0.2818
     40  O7N       18.5990   48.9470  102.4990 O.2   1338  NAI1338    -0.2670
     41  N7N       17.4760   50.3990  103.8260 N.am  1338  NAI1338    -0.0839
     42  C4N       16.2090   47.8720  101.2520 C.2   1338  NAI1338     0.0033
     43  C5N       14.9310   47.5190  100.7870 C.2   1338  NAI1338     0.0157
     44  C6N       13.7530   48.1140  101.2580 C.2   1338  NAI1338     0.0633
@<TRIPOS>BOND
     1    20    19    1
     2    20    21    1
     3    19    17    2
     4    21    22    2
     5    11    10    1
     6    17    18    1
     7    17    16    1
     8    22    16    1
     9    22    13    1
    10    10     8    1
    11    10    12    1
    12    16    15    2
    13     9     8    1
    14     8     6    1
    15    12    13    1
    16    12     7    1
    17    13    14    1
    18    15    14    1
    19     6     7    1
    20     6     5    1
    21     5     4    1
    22     4     1    1
    23     3     1    2
    24     1    23    1
    25     1     2    1
    26    23    24    1
    27    43    42    1
    28    43    44    2
    29    42    38    2
    30    44    36    1
    31    26    24    2
    32    24    27    1
    33    24    25    1
    34    28    27    1
    35    28    29    1
    36    30    29    1
    37    30    35    1
    38    36    35    1
    39    36    37    1
    40    38    37    1
    41    38    39    1
    42    40    39    2
    43    29    31    1
    44    35    33    1
    45    39    41   am
    46    31    33    1
    47    31    32    1
    48    33    34    1
