@<TRIPOS>MOLECULE
3unj_0BX_A_1.pdb
 23 25 0 0 0
SMALL
GASTEIGER

@<TRIPOS>ATOM
      1  C06       74.5060   63.8680   64.9580 C.ar  299  0BX299      0.0799
      2  C11       73.7440   62.5950   65.1230 C.2   299  0BX299      0.3878
      3  C05       74.3820   64.8040   65.9650 C.ar  299  0BX299      0.0079
      4  C10       75.0490   66.0090   65.9010 C.ar  299  0BX299      0.0176
      5  C09       75.8620   66.2870   64.8170 C.ar  299  0BX299      0.0826
      6  C08       76.0000   65.3520   63.7860 C.ar  299  0BX299      0.0176
      7  C07       75.3160   64.1320   63.8530 C.ar  299  0BX299      0.0079
      8  N01       76.5070   67.5640   64.8520 N.pl3 299  0BX299     -0.1357
      9  C12       77.5730   67.9790   63.9980 C.1   299  0BX299      0.1709
     10  N03       77.9400   69.2650   63.9980 N.2   299  0BX299     -0.1683
     11  C15       78.9360   69.7050   63.2090 C.2   299  0BX299      0.1158
     12  C14       79.5710   68.7840   62.3730 C.2   299  0BX299      0.0720
     13  C13       79.1710   67.4450   62.3910 C.2   299  0BX299      0.2178
     14  N02       78.1770   67.0820   63.2180 N.2   299  0BX299     -0.3189
     15  N04       79.7560   66.4340   61.5580 N.pl3 299  0BX299     -0.1827
     16  C16       80.9130   66.6080   60.7340 C.ar  299  0BX299      0.0731
     17  C17       82.0750   67.1630   61.2550 C.ar  299  0BX299      0.0166
     18  C18       83.2110   67.3280   60.4710 C.ar  299  0BX299      0.0013
     19  C19       83.1990   66.9070   59.1460 C.ar  299  0BX299      0.0001
     20  C20       82.0380   66.3310   58.6370 C.ar  299  0BX299      0.0013
     21  C21       80.8930   66.1780   59.4140 C.ar  299  0BX299      0.0166
     22  O22       72.7780   62.5650   65.9450 O.co2 299  0BX299     -0.2406
     23  O23       74.0540   61.5600   64.4710 O.co2 299  0BX299     -0.2406
@<TRIPOS>BOND
     1    20    19   ar
     2    20    21   ar
     3    19    18   ar
     4    21    16   ar
     5    18    17   ar
     6    16    17   ar
     7    16    15    1
     8    15    13    1
     9    12    13    1
    10    12    11    2
    11    13    14    2
    12    11    10    1
    13    14     9    2
    14     6     7   ar
    15     6     5   ar
    16     7     1   ar
    17     9    10    2
    18     9     8    1
    19    23     2   ar
    20     5     8    1
    21     5     4   ar
    22     1     2    1
    23     1     3   ar
    24     2    22   ar
    25     4     3   ar
