@<TRIPOS>MOLECULE
3unk_0BY_A_1.pdb
 24 26 0 0 0
SMALL
GASTEIGER

@<TRIPOS>ATOM
      1  N01       -9.9360   10.7710   13.6520 N.pl3 299  0BY299     -0.1357
      2  N02      -11.7600    9.2680   13.2060 N.2   299  0BY299     -0.3189
      3  N03      -11.3720   10.0300   15.3750 N.2   299  0BY299     -0.1683
      4  N04      -13.5760    7.7590   12.6680 N.pl3 299  0BY299     -0.1819
      5  C05       -8.9770    9.7750   10.1460 C.ar  299  0BY299      0.0079
      6  C06       -8.1560   10.8680    9.8270 C.ar  299  0BY299      0.0799
      7  C07       -7.9440   11.8650   10.7600 C.ar  299  0BY299      0.0079
      8  C08       -8.5470   11.7980   11.9990 C.ar  299  0BY299      0.0176
      9  C09       -9.3760   10.7370   12.3310 C.ar  299  0BY299      0.0826
     10  C10       -9.6010    9.7140   11.3980 C.ar  299  0BY299      0.0176
     11  C11       -7.4600   11.0160    8.5090 C.2   299  0BY299      0.3878
     12  C12      -11.0590    9.9940   14.0800 C.1   299  0BY299      0.1709
     13  C13      -12.8240    8.5360   13.6050 C.2   299  0BY299      0.2178
     14  C14      -13.1590    8.5650   14.9540 C.2   299  0BY299      0.0720
     15  C15      -12.4120    9.3290   15.8500 C.2   299  0BY299      0.1158
     16  C16      -14.7720    7.0460   13.0430 C.ar  299  0BY299      0.0836
     17  C17      -15.8360    7.7110   13.6490 C.ar  299  0BY299      0.0174
     18  C18      -16.9740    6.9980   13.9890 C.ar  299  0BY299      0.0014
     19  C19      -17.0820    5.6380   13.7130 C.ar  299  0BY299      0.0010
     20  C20      -16.0340    4.9750   13.0980 C.ar  299  0BY299      0.0127
     21  C21      -14.8860    5.6850   12.7670 C.ar  299  0BY299      0.0729
     22  O25       -7.7940   10.2950    7.5320 O.co2 299  0BY299     -0.2406
     23  O26       -6.5210   11.8580    8.3850 O.co2 299  0BY299     -0.2406
     24 CL2       -13.5800    4.8660   12.0000 Cl    299  0BY299     -0.0809
@<TRIPOS>BOND
     1    22    11   ar
     2    23    11   ar
     3    11     6    1
     4     6     5   ar
     5     6     7   ar
     6     5    10   ar
     7     7     8   ar
     8    10     9   ar
     9     8     9   ar
    10    24    21    1
    11     9     1    1
    12     4    16    1
    13     4    13    1
    14    21    16   ar
    15    21    20   ar
    16    16    17   ar
    17    20    19   ar
    18     2    13    2
    19     2    12    2
    20    13    14    1
    21    17    18   ar
    22     1    12    1
    23    19    18   ar
    24    12     3    2
    25    14    15    2
    26     3    15    1
