@<TRIPOS>MOLECULE
3uns_ANH_A_1.pdb
 30 31 0 0 0
SMALL
GASTEIGER

@<TRIPOS>ATOM
      1  N12       -2.1750   17.6190   16.8320 N.am  481  ANH481     -0.1941
      2  C13       -3.3990   16.8520   17.1910 C.3   481  ANH481      0.1978
      3  C30       -3.1270   15.8930   18.3550 C.3   481  ANH481      0.0595
      4  C14       -4.5210   17.8010   17.6510 C.2   481  ANH481      0.3374
      5  O17       -5.7080   17.4920   17.4840 O.2   481  ANH481     -0.2482
      6  O15       -4.2530   19.0320   18.1830 O.3   481  ANH481     -0.4432
      7  C16       -3.2180   19.2150   19.2290 C.3   481  ANH481      0.2557
      8  C21       -2.3300   14.6530   17.9530 C.ar  481  ANH481     -0.0196
      9  C22       -1.2080   14.3380   18.7130 C.ar  481  ANH481     -0.0042
     10  C23       -0.4420   13.2140   18.3980 C.ar  481  ANH481     -0.0001
     11  C24       -0.8210   12.4130   17.3180 C.ar  481  ANH481      0.0080
     12  C25       -1.9390   12.7090   16.5370 C.ar  481  ANH481      0.0972
     13  C26       -2.7040   13.8420   16.8640 C.ar  481  ANH481      0.0038
     14  C27       -2.2990   11.8960   15.4340 C.2   481  ANH481      0.4766
     15  N28       -1.7960   10.6650   15.2840 N.pl3 481  ANH481      0.2047
     16  N29       -3.1670   12.3550   14.5020 N.pl3 481  ANH481      0.2047
     17  C11       -2.1430   18.3990   15.7270 C.2   481  ANH481      0.2616
     18  C10       -0.8780   19.2000   15.4700 C.3   481  ANH481      0.2017
     19  N9        -0.8850   19.4240   14.0210 N.3   481  ANH481     -0.0678
     20  O20       -3.0520   18.4940   14.9090 O.2   481  ANH481     -0.2717
     21  C1         4.2790   23.2990   15.6810 C.3   481  ANH481      0.0310
     22  C2         2.9550   22.7320   15.1460 C.ar  481  ANH481     -0.0218
     23  C3         2.9430   22.0450   13.9180 C.ar  481  ANH481     -0.0029
     24  C4         1.7310   21.5310   13.4360 C.ar  481  ANH481      0.0196
     25  C5         0.5590   21.7170   14.1680 C.ar  481  ANH481      0.1235
     26  C6         0.5810   22.3950   15.3900 C.ar  481  ANH481      0.0196
     27  C7         1.7810   22.9090   15.8840 C.ar  481  ANH481     -0.0029
     28  S8        -0.9530   21.0220   13.5520 S.O2  481  ANH481      0.0773
     29  O18       -2.0420   21.7340   14.1330 O.2   481  ANH481     -0.1516
     30  O19       -0.9250   21.0450   12.0540 O.2   481  ANH481     -0.1516
@<TRIPOS>BOND
     1    30    28    2
     2    24    23   ar
     3    24    25   ar
     4    28    19    1
     5    28    29    2
     6    28    25    1
     7    23    22   ar
     8    19    18    1
     9    25    26   ar
    10    16    14    2
    11    20    17    2
    12    22    21    1
    13    22    27   ar
    14    15    14    1
    15    26    27   ar
    16    14    12    1
    17    18    17    1
    18    17     1   am
    19    12    13   ar
    20    12    11   ar
    21     1     2    1
    22    13     8   ar
    23     2     4    1
    24     2     3    1
    25    11    10   ar
    26     5     4    2
    27     4     6    1
    28     8     3    1
    29     8     9   ar
    30     6     7    1
    31    10     9   ar
