@<TRIPOS>MOLECULE
3unv_PHE_A_1.pdb
 12 12 0 0 0
SMALL
GASTEIGER

@<TRIPOS>ATOM
      1  N         24.1340   67.1020   15.1460 N.3   1001  PHE1001    -0.1205
      2  CA        23.7620   68.5070   15.2320 C.3   1001  PHE1001     0.1986
      3  C         24.2440   69.1670   16.4870 C.2   1001  PHE1001     0.3822
      4  O         25.1470   70.0160   16.4350 O.co2 1001  PHE1001    -0.2440
      5  CB        22.2410   68.6560   15.2490 C.3   1001  PHE1001     0.0569
      6  CG        21.7620   68.7710   13.8290 C.ar  1001  PHE1001    -0.0202
      7  CD1       22.6920   68.7260   12.7850 C.ar  1001  PHE1001    -0.0042
      8  CD2       20.4040   68.9330   13.5770 C.ar  1001  PHE1001    -0.0042
      9  CE1       22.2430   68.8350   11.4730 C.ar  1001  PHE1001    -0.0003
     10  CE2       19.9580   69.0530   12.2600 C.ar  1001  PHE1001    -0.0003
     11  CZ        20.8750   68.9960   11.2050 C.ar  1001  PHE1001    -0.0000
     12  OXT       23.6630   68.8280   17.5460 O.co2 1001  PHE1001    -0.2440
@<TRIPOS>BOND
     1    11     9   ar
     2    11    10   ar
     3     9     7   ar
     4    10     8   ar
     5     7     6   ar
     6     8     6   ar
     7     6     5    1
     8     1     2    1
     9     2     5    1
    10     2     3    1
    11     4     3   ar
    12     3    12   ar
