@<TRIPOS>MOLECULE
3unv_SFE_A_1.pdb
 12 12 0 0 0
SMALL
GASTEIGER

@<TRIPOS>ATOM
      1  N         22.4840   66.9130   14.9290 N.3   1000  SFE1000    -0.1275
      2  O         23.4110   69.1460   17.3170 O.co2 1000  SFE1000    -0.2456
      3  OXT       25.1870   70.1260   16.5240 O.co2 1000  SFE1000    -0.2456
      4  CZ        20.7230   69.2240   11.0790 C.ar  1000  SFE1000    -0.0000
      5  CE2       19.8970   69.3030   12.2120 C.ar  1000  SFE1000    -0.0003
      6  CE1       22.0820   68.8890   11.2230 C.ar  1000  SFE1000    -0.0003
      7  CD2       20.4100   69.0140   13.4800 C.ar  1000  SFE1000    -0.0029
      8  CD1       22.6010   68.6030   12.4820 C.ar  1000  SFE1000    -0.0029
      9  CA        23.6520   69.1890   14.9460 C.3   1000  SFE1000     0.1375
     10  C         24.1220   69.5130   16.3530 C.2   1000  SFE1000     0.3667
     11  CG        21.7540   68.6660   13.5950 C.ar  1000  SFE1000    -0.0044
     12  CB        22.3390   68.3680   14.9000 C.3   1000  SFE1000     0.1252
@<TRIPOS>BOND
     1     4     6   ar
     2     4     5   ar
     3     6     8   ar
     4     5     7   ar
     5     8    11   ar
     6     7    11   ar
     7    11    12    1
     8    12     1    1
     9    12     9    1
    10     9    10    1
    11    10     3   ar
    12    10     2   ar
