@<TRIPOS>MOLECULE
3unw_GLU_A_1.pdb
 10 9 0 0 0
SMALL
GASTEIGER

@<TRIPOS>ATOM
      1  N         -6.7680   22.2880   29.8000 N.3   800  GLU800     -0.1208
      2  CA        -6.3620   20.9280   30.0240 C.3   800  GLU800      0.1949
      3  C         -5.0030   20.9510   30.6310 C.2   800  GLU800      0.3819
      4  O         -4.1730   21.7740   30.2210 O.co2 800  GLU800     -0.2441
      5  CB        -6.1080   20.1530   28.7280 C.3   800  GLU800      0.0424
      6  CG        -7.3630   19.6490   28.0720 C.3   800  GLU800      0.1161
      7  CD        -7.1490   18.3130   27.3850 C.2   800  GLU800      0.3649
      8  OE1       -6.8500   17.3240   28.0980 O.co2 800  GLU800     -0.2457
      9  OE2       -7.3020   18.2490   26.1520 O.co2 800  GLU800     -0.2457
     10  OXT       -4.7490   20.0550   31.4440 O.co2 800  GLU800     -0.2441
@<TRIPOS>BOND
     1     9     7   ar
     2     7     6    1
     3     7     8   ar
     4     6     5    1
     5     5     2    1
     6     1     2    1
     7     2     3    1
     8     4     3   ar
     9     3    10   ar
