@<TRIPOS>MOLECULE
3unz_0BZ_A_1.pdb
 24 26 0 0 0
SMALL
GASTEIGER

@<TRIPOS>ATOM
      1  F24      -27.6050   12.0540    8.8310 F       2  0BZ2       -0.2028
      2  N01      -30.7620    7.8950   12.2310 N.pl3   2  0BZ2       -0.1357
      3  N02      -29.5290    8.6500   10.3110 N.2     2  0BZ2       -0.3189
      4  N03      -28.5500    7.1610   11.8340 N.2     2  0BZ2       -0.1683
      5  N04      -28.3440    9.4390    8.3650 N.pl3   2  0BZ2       -0.1805
      6  C05      -33.4240   10.0090   10.6850 C.ar    2  0BZ2        0.0079
      7  C06      -34.5460    9.5040   11.3390 C.ar    2  0BZ2        0.0799
      8  C07      -34.4060    8.4860   12.2660 C.ar    2  0BZ2        0.0079
      9  C08      -33.1510    7.9740   12.5360 C.ar    2  0BZ2        0.0176
     10  C09      -32.0310    8.4640   11.8840 C.ar    2  0BZ2        0.0826
     11  C10      -32.1640    9.4890   10.9580 C.ar    2  0BZ2        0.0176
     12  C11      -35.9130   10.0370   11.0640 C.2     2  0BZ2        0.3878
     13  C12      -29.5830    7.9090   11.4220 C.1     2  0BZ2        0.1709
     14  C13      -28.4140    8.6600    9.5600 C.2     2  0BZ2        0.2178
     15  C14      -27.3290    7.8840    9.9640 C.2     2  0BZ2        0.0720
     16  C15      -27.4100    7.1220   11.1270 C.2     2  0BZ2        0.1158
     17  C16      -29.2500   10.5250    8.1520 C.ar    2  0BZ2        0.1005
     18  C17      -30.5350   10.2770    7.7000 C.ar    2  0BZ2        0.0189
     19  C18      -31.4100   11.3290    7.4920 C.ar    2  0BZ2        0.0015
     20  C19      -30.9990   12.6310    7.7340 C.ar    2  0BZ2        0.0024
     21  C20      -29.7120   12.8790    8.1870 C.ar    2  0BZ2        0.0310
     22  C21      -28.8390   11.8240    8.3970 C.ar    2  0BZ2        0.1553
     23  O25      -36.8390    9.8220   11.8860 O.co2   2  0BZ2       -0.2406
     24  O26      -36.1410   10.6970   10.0160 O.co2   2  0BZ2       -0.2406
@<TRIPOS>BOND
     1    19    18   ar
     2    19    20   ar
     3    18    17   ar
     4    20    21   ar
     5    17     5    1
     6    17    22   ar
     7    21    22   ar
     8     5    14    1
     9    22     1    1
    10    14    15    1
    11    14     3    2
    12    15    16    2
    13    24    12   ar
    14     3    13    2
    15     6    11   ar
    16     6     7   ar
    17    11    10   ar
    18    12     7    1
    19    12    23   ar
    20    16     4    1
    21     7     8   ar
    22    13     4    2
    23    13     2    1
    24    10     2    1
    25    10     9   ar
    26     8     9   ar
