@<TRIPOS>MOLECULE
3uo0_G16_A_1.pdb
 20 20 0 0 0
SMALL
GASTEIGER

@<TRIPOS>ATOM
      1  C1        14.2750    9.1190    8.2280 C.3   398  G16398      0.2781
      2  C2        14.0130   10.3260    7.3310 C.3   398  G16398      0.2410
      3  C3        14.6530   10.1190    5.9580 C.3   398  G16398      0.2198
      4  C4        16.1160    9.6960    6.1050 C.3   398  G16398      0.2143
      5  C5        16.2510    8.5380    7.0970 C.3   398  G16398      0.1807
      6  C6        17.7250    8.1780    7.3010 C.3   398  G16398      0.1859
      7  O1        13.6940    7.9570    7.6290 O.3   398  G16398     -0.2416
      8  O2        12.6030   10.5140    7.1860 O.3   398  G16398     -0.2149
      9  O3        14.5750   11.3300    5.2050 O.3   398  G16398     -0.2174
     10  O4        16.6270    9.3000    4.8310 O.3   398  G16398     -0.2176
     11  O5        15.6890    8.9250    8.3580 O.3   398  G16398     -0.3254
     12  O6        17.9270    6.7650    7.2030 O.3   398  G16398     -0.2675
     13  P         19.0120    6.0180    8.1490 P.3   398  G16398      0.5327
     14  O1P       19.6110    4.8180    7.2440 O.2   398  G16398     -0.2224
     15  O2P       18.4470    5.5560    9.4350 O.3   398  G16398     -0.1145
     16  O3P       20.2320    7.0610    8.3290 O.3   398  G16398     -0.1145
     17  P'        12.5570    7.1380    8.4150 P.3   398  G16398      0.5346
     18  O1X       13.3060    6.3010    9.5810 O.3   398  G16398     -0.1145
     19  O2X       11.7390    6.2600    7.5410 O.2   398  G16398     -0.2223
     20  O3X       11.6500    8.2310    9.1910 O.3   398  G16398     -0.1145
@<TRIPOS>BOND
     1    10     4    1
     2     9     3    1
     3     3     4    1
     4     3     2    1
     5     4     5    1
     6     5     6    1
     7     5    11    1
     8     8     2    1
     9    12     6    1
    10    12    13    1
    11    14    13    2
    12     2     1    1
    13    19    17    2
    14     7     1    1
    15     7    17    1
    16    13    16    1
    17    13    15    1
    18     1    11    1
    19    17    20    1
    20    17    18    1
