@<TRIPOS>MOLECULE
3uo4_0C0_A_1.pdb
 29 32 0 0 0
SMALL
GASTEIGER

@<TRIPOS>ATOM
      1  N01        3.3240   31.8130    8.7720 N.2     1  0C01       -0.1683
      2  N02        3.9920   31.0910    6.6460 N.2     1  0C01       -0.3189
      3  N03        5.1850   28.9910    6.3330 N.pl3   1  0C01       -0.1827
      4  N04        2.8100   33.1870    6.9250 N.pl3   1  0C01       -0.1357
      5  C05        3.8550   30.7150    9.3340 C.2     1  0C01        0.1158
      6  C06        3.3940   31.9830    7.4480 C.1     1  0C01        0.1709
      7  C07        4.5400   29.9730    7.1670 C.2     1  0C01        0.2178
      8  C08        4.4810   29.7570    8.5430 C.2     1  0C01        0.0720
      9  C09        5.3080   29.1560    4.9110 C.ar    1  0C01        0.0731
     10  C10        4.1690   29.2970    4.1320 C.ar    1  0C01        0.0166
     11  C11        4.2830   29.4510    2.7580 C.ar    1  0C01        0.0013
     12  C12        5.5270   29.4620    2.1490 C.ar    1  0C01        0.0001
     13  C13        6.6650   29.3170    2.9260 C.ar    1  0C01        0.0013
     14  C14        6.5600   29.1630    4.3020 C.ar    1  0C01        0.0153
     15  C15        7.8100   29.0150    5.1070 C.ar    1  0C01        0.0013
     16  C16        2.3670   33.4040    5.5790 C.ar    1  0C01        0.0826
     17  C17        1.3210   34.2930    5.3680 C.ar    1  0C01        0.0176
     18  C18        0.8660   34.5490    4.0840 C.ar    1  0C01        0.0079
     19  C19        1.4610   33.9140    3.0030 C.ar    1  0C01        0.0799
     20  C20        2.5130   33.0280    3.2090 C.ar    1  0C01        0.0079
     21  C21        2.9690   32.7760    4.4970 C.ar    1  0C01        0.0176
     22  C22        0.9650   34.1900    1.6220 C.2     1  0C01        0.3878
     23  C23        8.1860   27.7760    5.6060 C.ar    1  0C01        0.0000
     24  C24        9.3520   27.6560    6.3460 C.ar    1  0C01        0.0000
     25  C25       10.1400   28.7720    6.5840 C.ar    1  0C01        0.0000
     26  C26        9.7680   30.0100    6.0860 C.ar    1  0C01        0.0000
     27  C27        8.6030   30.1290    5.3450 C.ar    1  0C01        0.0000
     28  O28        1.6710   33.8690    0.6290 O.co2   1  0C01       -0.2406
     29  O29       -0.1570   34.7430    1.4500 O.co2   1  0C01       -0.2406
@<TRIPOS>BOND
     1    28    22   ar
     2    29    22   ar
     3    22    19    1
     4    12    11   ar
     5    12    13   ar
     6    11    10   ar
     7    13    14   ar
     8    19    20   ar
     9    19    18   ar
    10    20    21   ar
    11    18    17   ar
    12    10     9   ar
    13    14     9   ar
    14    14    15    1
    15    21    16   ar
    16     9     3    1
    17    15    27   ar
    18    15    23   ar
    19    27    26   ar
    20    17    16   ar
    21    16     4    1
    22    23    24   ar
    23    26    25   ar
    24     3     7    1
    25    24    25   ar
    26     2     7    2
    27     2     6    2
    28     4     6    1
    29     7     8    1
    30     6     1    2
    31     8     5    2
    32     1     5    1
