@<TRIPOS>MOLECULE
3uo5_0BX_A_1.pdb
 23 25 0 0 0
SMALL
GASTEIGER

@<TRIPOS>ATOM
      1  C06       -2.1810  -33.5520    3.2570 C.ar  501  0BX501      0.0799
      2  C11       -1.7540  -33.7930    1.8580 C.2   501  0BX501      0.3878
      3  C05       -1.4650  -34.1310    4.2860 C.ar  501  0BX501      0.0079
      4  C10       -1.8640  -33.9050    5.5930 C.ar  501  0BX501      0.0176
      5  C09       -2.9730  -33.1120    5.8760 C.ar  501  0BX501      0.0826
      6  C08       -3.6910  -32.5520    4.8300 C.ar  501  0BX501      0.0176
      7  C07       -3.2880  -32.7670    3.5210 C.ar  501  0BX501      0.0079
      8  N01       -3.3290  -32.9430    7.2600 N.pl3 501  0BX501     -0.1357
      9  C12       -3.9930  -31.8340    7.8650 C.1   501  0BX501      0.1709
     10  N03       -3.9490  -31.7430    9.1930 N.2   501  0BX501     -0.1683
     11  C15       -4.5450  -30.7290    9.8430 C.2   501  0BX501      0.1158
     12  C14       -5.2200  -29.7640    9.1100 C.2   501  0BX501      0.0720
     13  C13       -5.2590  -29.8810    7.7350 C.2   501  0BX501      0.2178
     14  N02       -4.6420  -30.9120    7.1480 N.2   501  0BX501     -0.3189
     15  N04       -5.9520  -28.9190    6.9430 N.pl3 501  0BX501     -0.1827
     16  C16       -6.1920  -29.2000    5.5590 C.ar  501  0BX501      0.0731
     17  C17       -7.4520  -29.5850    5.1280 C.ar  501  0BX501      0.0166
     18  C18       -7.6630  -29.8440    3.7820 C.ar  501  0BX501      0.0013
     19  C19       -6.6270  -29.7230    2.8670 C.ar  501  0BX501      0.0001
     20  C20       -5.3750  -29.3360    3.2970 C.ar  501  0BX501      0.0013
     21  C21       -5.1580  -29.0750    4.6430 C.ar  501  0BX501      0.0166
     22  O22       -0.5740  -34.1790    1.6200 O.co2 501  0BX501     -0.2406
     23  O23       -2.5840  -33.6240    0.9280 O.co2 501  0BX501     -0.2406
@<TRIPOS>BOND
     1    23     2   ar
     2    22     2   ar
     3     2     1    1
     4    19    20   ar
     5    19    18   ar
     6     1     7   ar
     7     1     3   ar
     8    20    21   ar
     9     7     6   ar
    10    18    17   ar
    11     3     4   ar
    12    21    16   ar
    13     6     5   ar
    14    17    16   ar
    15    16    15    1
    16     4     5   ar
    17     5     8    1
    18    15    13    1
    19    14    13    2
    20    14     9    2
    21     8     9    1
    22    13    12    1
    23     9    10    2
    24    12    11    2
    25    10    11    1
