@<TRIPOS>MOLECULE
3uo6_0BY_A_1.pdb
 24 26 0 0 0
SMALL
GASTEIGER

@<TRIPOS>ATOM
      1  N01        8.5350   30.6570   -0.3600 N.pl3   1  0BY1       -0.1357
      2  N02        7.2030   29.9250    1.5120 N.2     1  0BY1       -0.3189
      3  N03        8.0760   28.3650   -0.0060 N.2     1  0BY1       -0.1683
      4  N04        5.8440   29.2550    3.4240 N.pl3   1  0BY1       -0.1819
      5  C05        7.9480   33.9730    1.2560 C.ar    1  0BY1        0.0079
      6  C06        9.0000   34.7110    0.7140 C.ar    1  0BY1        0.0799
      7  C07        9.8850   34.1010   -0.1610 C.ar    1  0BY1        0.0079
      8  C08        9.7130   32.7680   -0.5040 C.ar    1  0BY1        0.0176
      9  C09        8.6690   32.0300    0.0370 C.ar    1  0BY1        0.0826
     10  C10        7.7810   32.6340    0.9190 C.ar    1  0BY1        0.0176
     11  C11        9.1960   36.1450    1.0930 C.2     1  0BY1        0.3878
     12  C12        7.9160   29.6260    0.4150 C.1     1  0BY1        0.1709
     13  C13        6.6150   28.9530    2.2440 C.2     1  0BY1        0.2178
     14  C14        6.7850   27.6290    1.8150 C.2     1  0BY1        0.0720
     15  C15        7.5290   27.3380    0.6710 C.2     1  0BY1        0.1158
     16  C16        5.2730   30.5580    3.6250 C.ar    1  0BY1        0.0836
     17  C17        6.1160   31.5880    4.0180 C.ar    1  0BY1        0.0174
     18  C18        5.6220   32.8660    4.2290 C.ar    1  0BY1        0.0014
     19  C19        4.2690   33.1280    4.0440 C.ar    1  0BY1        0.0010
     20  C20        3.4170   32.1060    3.6460 C.ar    1  0BY1        0.0127
     21  C21        3.9120   30.8240    3.4400 C.ar    1  0BY1        0.0729
     22  O25        9.3200   37.0470    0.2240 O.co2   1  0BY1       -0.2406
     23  O26        9.2590   36.4500    2.3150 O.co2   1  0BY1       -0.2406
     24 CL2         2.7980   29.6000    2.9490 Cl      1  0BY1       -0.0809
@<TRIPOS>BOND
     1     8     7   ar
     2     8     9   ar
     3     1     9    1
     4     1    12    1
     5     7     6   ar
     6     3    12    2
     7     3    15    1
     8     9    10   ar
     9    22    11   ar
    10    12     2    2
    11    15    14    2
    12     6    11    1
    13     6     5   ar
    14    10     5   ar
    15    11    23   ar
    16     2    13    2
    17    14    13    1
    18    13     4    1
    19    24    21    1
    20     4    16    1
    21    21    16   ar
    22    21    20   ar
    23    16    17   ar
    24    20    19   ar
    25    17    18   ar
    26    19    18   ar
