@<TRIPOS>MOLECULE
3uo9_04A_B_1.pdb
 35 38 0 0 0
SMALL
GASTEIGER

@<TRIPOS>ATOM
      1  OAA       -4.7040   10.8110   43.7270 O.2     2  04A2       -0.2726
      2  OAB        7.0440   10.2880   44.4940 O.2     2  04A2       -0.2726
      3  CAC       -6.5420    6.2110   44.2600 C.ar    2  04A2       -0.0000
      4  CAD       12.2290    9.3120   44.1340 C.ar    2  04A2       -0.0000
      5  CAE       -5.3860    6.3000   45.0500 C.ar    2  04A2       -0.0003
      6  CAF       -7.3220    7.3520   44.0060 C.ar    2  04A2       -0.0003
      7  CAG       11.6250    8.0540   43.9110 C.ar    2  04A2       -0.0003
      8  CAH       11.4840   10.4800   43.8990 C.ar    2  04A2       -0.0003
      9  CAI       -5.0070    7.5350   45.5850 C.ar    2  04A2       -0.0038
     10  CAJ       -6.9420    8.5910   44.5410 C.ar    2  04A2       -0.0038
     11  CAK       10.2860    7.9570   43.4650 C.ar    2  04A2       -0.0038
     12  CAL       10.1480   10.3770   43.4480 C.ar    2  04A2       -0.0038
     13  CAM        0.5330   14.4950   42.5620 C.3     2  04A2        0.0645
     14  CAN        2.1730   14.0460   44.7090 C.3     2  04A2        0.0645
     15  CAO       -0.9830   14.6670   42.5220 C.3     2  04A2        0.0661
     16  CAP        3.3620   14.7350   44.0400 C.3     2  04A2        0.0661
     17  CAQ       -5.4000    9.8870   45.8700 C.3     2  04A2        0.1135
     18  CAR        8.1990    9.0030   42.7740 C.3     2  04A2        0.1135
     19  NAS       -1.5030   14.1600   44.9890 N.ar    2  04A2       -0.1439
     20  NAT        4.2810   13.5500   41.9600 N.ar    2  04A2       -0.1439
     21  NAU       -2.2110   13.3550   45.7900 N.ar    2  04A2       -0.1239
     22  NAV        5.1780   12.5190   41.5090 N.ar    2  04A2       -0.1239
     23  NAW       -3.7410   11.5880   45.6630 N.am    2  04A2       -0.1526
     24  NAX        6.7160   10.8980   42.2750 N.am    2  04A2       -0.1526
     25  SAY        1.1600   13.0860   43.5310 S.3     2  04A2       -0.1394
     26  SAZ       -2.6800   12.7190   43.3500 S.2     2  04A2       -0.0330
     27  SBA        5.2950   12.6230   44.0980 S.2     2  04A2       -0.0330
     28  CBB       -4.5610   10.7920   44.9550 C.2     2  04A2        0.2518
     29  CBC        7.2610   10.1440   43.2780 C.2     2  04A2        0.2518
     30  CBD       -5.7760    8.6740   45.3190 C.ar    2  04A2       -0.0130
     31  CBE        9.5320    9.1230   43.2300 C.ar    2  04A2       -0.0130
     32  CBF       -1.6660   13.9200   43.6510 C.ar    2  04A2        0.1133
     33  CBG        4.2410   13.7100   43.3100 C.ar    2  04A2        0.1133
     34  CBH       -2.9470   12.4820   45.0810 C.ar    2  04A2        0.2077
     35  CBI        5.8340   11.8920   42.5040 C.ar    2  04A2        0.2077
@<TRIPOS>BOND
     1    22    20   ar
     2    22    35   ar
     3    20    33   ar
     4    24    35    1
     5    24    29   am
     6    35    27   ar
     7    15    13    1
     8    15    32    1
     9    13    25    1
    10    18    31    1
    11    18    29    1
    12    31    12   ar
    13    31    11   ar
    14    29     2    2
    15    33    16    1
    16    33    27   ar
    17    26    32   ar
    18    26    34   ar
    19    12     8   ar
    20    11     7   ar
    21    25    14    1
    22    32    19   ar
    23     1    28    2
    24     8     4   ar
    25     7     4   ar
    26     6     3   ar
    27     6    10   ar
    28    16    14    1
    29     3     5   ar
    30    10    30   ar
    31    28    23   am
    32    28    17    1
    33    19    21   ar
    34     5     9   ar
    35    34    23    1
    36    34    21   ar
    37    30     9   ar
    38    30    17    1
