@<TRIPOS>MOLECULE
3uod_0C3_A_1.pdb
 27 29 0 0 0
SMALL
GASTEIGER

@<TRIPOS>ATOM
      1  N01        3.9850   31.8040    9.1840 N.2     1  0C31       -0.1683
      2  N02        4.7060   31.0230    7.0960 N.2     1  0C31       -0.3189
      3  N03        5.9020   28.9500    6.9080 N.pl3   1  0C31       -0.1828
      4  N04        3.4930   33.1100    7.2580 N.pl3   1  0C31       -0.1357
      5  C05        4.5110   30.7340    9.8240 C.2     1  0C31        0.1158
      6  C06        4.0780   31.9390    7.8480 C.1     1  0C31        0.1709
      7  C07        5.2390   29.9350    7.6900 C.2     1  0C31        0.2178
      8  C08        5.1570   29.7540    9.0680 C.2     1  0C31        0.0720
      9  C09        6.2770   29.2260    5.5620 C.ar    1  0C31        0.0770
     10  C10        5.2800   29.2120    4.5850 C.ar    1  0C31        0.0165
     11  C11        5.6010   29.4610    3.2580 C.ar    1  0C31        0.0013
     12  C12        6.9220   29.7260    2.9220 C.ar    1  0C31        0.0000
     13  C13        7.9220   29.7390    3.8970 C.ar    1  0C31        0.0052
     14  C14        7.6140   29.4870    5.2310 C.ar    1  0C31        0.0867
     15  C15        8.7300   29.5060    6.2520 C.3     1  0C31        0.4198
     16  C16        3.0970   33.2740    5.8840 C.ar    1  0C31        0.0826
     17  C17        3.7620   32.6380    4.8450 C.ar    1  0C31        0.0176
     18  C18        3.3720   32.8220    3.5200 C.ar    1  0C31        0.0079
     19  C19        2.3170   33.6790    3.2520 C.ar    1  0C31        0.0799
     20  C20        1.6500   34.3350    4.2860 C.ar    1  0C31        0.0079
     21  C21        2.0450   34.1330    5.5990 C.ar    1  0C31        0.0176
     22  C22        1.8710   33.8760    1.8450 C.2     1  0C31        0.3878
     23  O23        0.6500   34.1430    1.6150 O.co2   1  0C31       -0.2406
     24  O24        2.6970   33.7490    0.9070 O.co2   1  0C31       -0.2406
     25  F25        8.2800   29.3670    7.5070 F       1  0C31       -0.1658
     26  F26        9.3860   30.6630    6.1620 F       1  0C31       -0.1658
     27  F27        9.5770   28.4960    6.0010 F       1  0C31       -0.1658
@<TRIPOS>BOND
     1    24    22   ar
     2    23    22   ar
     3    22    19    1
     4    12    11   ar
     5    12    13   ar
     6    19    18   ar
     7    19    20   ar
     8    11    10   ar
     9    18    17   ar
    10    13    14   ar
    11    20    21   ar
    12    10     9   ar
    13    17    16   ar
    14    14     9   ar
    15    14    15    1
    16     9     3    1
    17    21    16   ar
    18    16     4    1
    19    27    15    1
    20    26    15    1
    21    15    25    1
    22     3     7    1
    23     2     7    2
    24     2     6    2
    25     4     6    1
    26     7     8    1
    27     6     1    2
    28     8     5    2
    29     1     5    1
