@<TRIPOS>MOLECULE
3uof_HEM_B_1.pdb
 43 50 0 0 0
SMALL
GASTEIGER

@<TRIPOS>ATOM
      1  CHA       15.0260  -22.7540  -25.6700 C.2   301  HEM301      0.0000
      2  CHB       15.2910  -27.5330  -26.6490 C.2   301  HEM301      0.0000
      3  CHC       18.0330  -26.5890  -30.5860 C.2   301  HEM301      0.0000
      4  CHD       18.1300  -21.8350  -29.3830 C.2   301  HEM301      0.0000
      5  C1A       14.8280  -24.1320  -25.5820 C.2   301  HEM301      0.0000
      6  C2A       14.0350  -24.8590  -24.5940 C.2   301  HEM301      0.0000
      7  C3A       14.1170  -26.1720  -24.8760 C.2   301  HEM301      0.0000
      8  C4A       14.9570  -26.3330  -26.0480 C.2   301  HEM301      0.0000
      9  CMA       13.4540  -27.3420  -24.1150 C.3   301  HEM301      0.0000
     10  CAA       13.2450  -24.2160  -23.4260 C.3   301  HEM301      0.0000
     11  CBA       11.7900  -23.9970  -23.8290 C.3   301  HEM301      0.0000
     12  CGA       11.4260  -22.5500  -23.6170 C.2   301  HEM301      0.0000
     13  O1A       12.2510  -21.8040  -23.0210 O.co2 301  HEM301      0.0000
     14  O2A       10.3120  -22.1500  -24.0530 O.co2 301  HEM301      0.0000
     15  C1B       16.0500  -27.7080  -27.7930 C.ar  301  HEM301      0.0000
     16  C2B       16.3670  -28.9800  -28.4220 C.ar  301  HEM301      0.0000
     17  C3B       17.1160  -28.7360  -29.5120 C.ar  301  HEM301      0.0000
     18  C4B       17.3180  -27.2900  -29.6200 C.ar  301  HEM301      0.0000
     19  CMB       15.8990  -30.3640  -27.9130 C.3   301  HEM301      0.0000
     20  CAB       17.6650  -29.8310  -30.4570 C.2   301  HEM301      0.0000
     21  CBB       18.2490  -29.5120  -31.6170 C.2   301  HEM301      0.0000
     22  C1C       18.2330  -25.2120  -30.6420 C.2   301  HEM301      0.0000
     23  C2C       18.7950  -24.4550  -31.7520 C.2   301  HEM301      0.0000
     24  C3C       18.8170  -23.1530  -31.3970 C.2   301  HEM301      0.0000
     25  C4C       18.2700  -23.0290  -30.0690 C.2   301  HEM301      0.0000
     26  CMC       19.2800  -25.0790  -33.0870 C.3   301  HEM301      0.0000
     27  CAC       19.3040  -21.9140  -32.1840 C.2   301  HEM301      0.0000
     28  CBC       19.7470  -22.0040  -33.4370 C.2   301  HEM301      0.0000
     29  C1D       17.4130  -21.6350  -28.2200 C.ar  301  HEM301      0.0000
     30  C2D       17.4630  -20.4500  -27.3840 C.ar  301  HEM301      0.0000
     31  C3D       16.4900  -20.7340  -26.2180 C.ar  301  HEM301      0.0000
     32  C4D       15.9520  -22.0680  -26.4640 C.ar  301  HEM301      0.0000
     33  CMD       18.3170  -19.1810  -27.6390 C.3   301  HEM301      0.0000
     34  CAD       16.1450  -19.8090  -25.0280 C.3   301  HEM301      0.0000
     35  CBD       17.4110  -19.3750  -24.3050 C.3   301  HEM301      0.0000
     36  CGD       17.1650  -19.4990  -22.8220 C.2   301  HEM301      0.0000
     37  O1D       16.0140  -19.2260  -22.3710 O.co2 301  HEM301      0.0000
     38  O2D       18.1310  -19.8740  -22.1000 O.co2 301  HEM301      0.0000
     39  NA        15.3710  -25.0730  -26.4470 N.2   301  HEM301      0.0000
     40  NB        16.6440  -26.7040  -28.5500 N.ar  301  HEM301      0.0000
     41  NC        17.9260  -24.3000  -29.6390 N.2   301  HEM301      0.0000
     42  ND        16.5270  -22.5490  -27.6470 N.ar  301  HEM301      0.0000
     43 FE         16.6530  -24.6180  -28.0470 Fe    301  HEM301      0.0000
@<TRIPOS>BOND
     1    28    27    2
     2    26    23    1
     3    27    24    1
     4    23    24    2
     5    23    22    1
     6    21    20    2
     7    24    25    1
     8    22     3    2
     9    22    41    1
    10     3    18    1
    11    20    17    1
    12    25    41    2
    13    25     4    1
    14    41    43    1
    15    18    17   ar
    16    18    40   ar
    17    17    16   ar
    18     4    29    2
    19    40    43    1
    20    40    15   ar
    21    16    19    1
    22    16    15   ar
    23    29    42   ar
    24    29    30   ar
    25    43    42    1
    26    43    39    1
    27    15     2    1
    28    42    32   ar
    29    33    30    1
    30    30    31   ar
    31     2     8    2
    32    32    31   ar
    33    32     1    2
    34    39     8    1
    35    39     5    2
    36    31    34    1
    37     8     7    1
    38     1     5    1
    39     5     6    1
    40    34    35    1
    41     7     6    2
    42     7     9    1
    43     6    10    1
    44    35    36    1
    45    14    12   ar
    46    11    12    1
    47    11    10    1
    48    12    13   ar
    49    36    37   ar
    50    36    38   ar
