@<TRIPOS>MOLECULE
3uoh_0C4_A_1.pdb
 24 26 0 0 0
SMALL
GASTEIGER

@<TRIPOS>ATOM
      1 BR2         2.5530   19.9000    9.1550 Br      2  0C42       -0.0476
      2  N01        8.5860   18.9810   12.2220 N.pl3   2  0C42       -0.1357
      3  N02        7.1090   19.5650   10.3900 N.2     2  0C42       -0.3189
      4  N03        8.0080   21.2310   11.7840 N.2     2  0C42       -0.1683
      5  N04        5.6190   20.1260    8.5270 N.pl3   2  0C42       -0.1822
      6  C05        7.9980   15.5430   10.8820 C.ar    2  0C42        0.0079
      7  C06        9.0660   14.8610   11.4570 C.ar    2  0C42        0.0799
      8  C07        9.9560   15.5390   12.2690 C.ar    2  0C42        0.0079
      9  C08        9.7810   16.8930   12.5090 C.ar    2  0C42        0.0176
     10  C09        8.7220   17.5790   11.9350 C.ar    2  0C42        0.0826
     11  C10        7.8260   16.9020   11.1170 C.ar    2  0C42        0.0176
     12  C11        9.2700   13.4080   11.2040 C.2     2  0C42        0.3878
     13  C12        7.8720   19.9430   11.4310 C.1     2  0C42        0.1709
     14  C13        6.4480   20.4860    9.6530 C.2     2  0C42        0.2178
     15  C14        6.5900   21.8310   10.0160 C.2     2  0C42        0.0720
     16  C15        7.3840   22.2010   11.1000 C.2     2  0C42        0.1158
     17  C16        5.1010   18.7970    8.3230 C.ar    2  0C42        0.0793
     18  C17        5.9260   17.7720    7.8970 C.ar    2  0C42        0.0171
     19  C18        5.4070   16.4950    7.7090 C.ar    2  0C42        0.0014
     20  C19        4.0610   16.2370    7.9450 C.ar    2  0C42        0.0006
     21  C20        3.2280   17.2550    8.3700 C.ar    2  0C42        0.0080
     22  C21        3.7550   18.5200    8.5510 C.ar    2  0C42        0.0499
     23  O25       10.0220   12.7460   11.9650 O.co2   2  0C42       -0.2406
     24  O26        8.7050   12.8480   10.2250 O.co2   2  0C42       -0.2406
@<TRIPOS>BOND
     1    19    18   ar
     2    19    20   ar
     3    18    17   ar
     4    20    21   ar
     5    17     5    1
     6    17    22   ar
     7    21    22   ar
     8     5    14    1
     9    22     1    1
    10    14    15    1
    11    14     3    2
    12    15    16    2
    13    24    12   ar
    14     3    13    2
    15     6    11   ar
    16     6     7   ar
    17    16     4    1
    18    11    10   ar
    19    12     7    1
    20    12    23   ar
    21    13     4    2
    22    13     2    1
    23     7     8   ar
    24    10     2    1
    25    10     9   ar
    26     8     9   ar
