@<TRIPOS>MOLECULE
3uoi_HEM_a_1.pdb
 43 50 0 0 0
SMALL
GASTEIGER

@<TRIPOS>ATOM
      1  CHA       48.0000  -40.3590 -202.8510 C.2   200  HEM200      0.0000
      2  CHB       47.7200  -35.5690 -203.6770 C.2   200  HEM200      0.0000
      3  CHC       45.1350  -36.4850 -207.6710 C.2   200  HEM200      0.0000
      4  CHD       45.0840  -41.3040 -206.6140 C.2   200  HEM200      0.0000
      5  C1A       48.2320  -38.9800 -202.7590 C.2   200  HEM200      0.0000
      6  C2A       49.2220  -38.2870 -201.9300 C.2   200  HEM200      0.0000
      7  C3A       49.1540  -36.9770 -202.2000 C.2   200  HEM200      0.0000
      8  C4A       48.0620  -36.7840 -203.1410 C.2   200  HEM200      0.0000
      9  CMA       49.8870  -35.7810 -201.5680 C.3   200  HEM200      0.0000
     10  CAA       50.1590  -38.9460 -200.8950 C.3   200  HEM200      0.0000
     11  CBA       51.5990  -38.9410 -201.3390 C.3   200  HEM200      0.0000
     12  CGA       52.1190  -40.0610 -200.4980 C.2   200  HEM200      0.0000
     13  O1A       51.4620  -40.3620 -199.4450 O.co2 200  HEM200      0.0000
     14  O2A       53.1620  -40.5800 -200.9720 O.co2 200  HEM200      0.0000
     15  C1B       46.9800  -35.4300 -204.8140 C.ar  200  HEM200      0.0000
     16  C2B       46.7070  -34.1390 -205.3780 C.ar  200  HEM200      0.0000
     17  C3B       45.9760  -34.3510 -206.5090 C.ar  200  HEM200      0.0000
     18  C4B       45.7780  -35.8120 -206.6560 C.ar  200  HEM200      0.0000
     19  CMB       47.2560  -32.8720 -204.6810 C.3   200  HEM200      0.0000
     20  CAB       45.4650  -33.2280 -207.3870 C.2   200  HEM200      0.0000
     21  CBB       44.7580  -33.6000 -208.4730 C.2   200  HEM200      0.0000
     22  C1C       44.9670  -37.8560 -207.8510 C.2   200  HEM200      0.0000
     23  C2C       44.3910  -38.5350 -209.0230 C.2   200  HEM200      0.0000
     24  C3C       44.3720  -39.8720 -208.6650 C.2   200  HEM200      0.0000
     25  C4C       44.9330  -40.1040 -207.3080 C.2   200  HEM200      0.0000
     26  CMC       43.9050  -37.7900 -210.3480 C.3   200  HEM200      0.0000
     27  CAC       43.8730  -41.0490 -209.4990 C.3   200  HEM200      0.0000
     28  CBC       42.9560  -40.5720 -210.3260 C.3   200  HEM200      0.0000
     29  C1D       45.6880  -41.5510 -205.3870 C.ar  200  HEM200      0.0000
     30  C2D       45.5720  -42.6920 -204.5040 C.ar  200  HEM200      0.0000
     31  C3D       46.5040  -42.3730 -203.3060 C.ar  200  HEM200      0.0000
     32  C4D       47.1130  -41.0800 -203.6280 C.ar  200  HEM200      0.0000
     33  CMD       44.6890  -43.9560 -204.6600 C.3   200  HEM200      0.0000
     34  CAD       46.7700  -43.2310 -202.0280 C.3   200  HEM200      0.0000
     35  CBD       45.5130  -42.9340 -201.2520 C.3   200  HEM200      0.0000
     36  CGD       45.3810  -43.5230 -199.8330 C.2   200  HEM200      0.0000
     37  O1D       46.4130  -44.0930 -199.3280 O.co2 200  HEM200      0.0000
     38  O2D       44.2260  -43.4350 -199.2570 O.co2 200  HEM200      0.0000
     39  NA        47.6170  -37.9890 -203.4880 N.2   200  HEM200      0.0000
     40  NB        46.4180  -36.4300 -205.5720 N.ar  200  HEM200      0.0000
     41  NC        45.2340  -38.8320 -206.8760 N.2   200  HEM200      0.0000
     42  ND        46.6010  -40.6530 -204.8430 N.ar  200  HEM200      0.0000
     43 FE         46.4850  -38.4460 -205.1570 Fe    200  HEM200      0.0000
@<TRIPOS>BOND
     1    26    23    1
     2    28    27    1
     3    27    24    1
     4    23    24    2
     5    23    22    1
     6    24    25    1
     7    21    20    2
     8    22     3    2
     9    22    41    1
    10     3    18    1
    11    20    17    1
    12    25    41    2
    13    25     4    1
    14    41    43    1
    15    18    17   ar
    16    18    40   ar
    17     4    29    2
    18    17    16   ar
    19    40    43    1
    20    40    15   ar
    21    29    42   ar
    22    29    30   ar
    23    16    15   ar
    24    16    19    1
    25    43    42    1
    26    43    39    1
    27    42    32   ar
    28    15     2    1
    29    33    30    1
    30    30    31   ar
    31     2     8    2
    32    32    31   ar
    33    32     1    2
    34    39     8    1
    35    39     5    2
    36    31    34    1
    37     8     7    1
    38     1     5    1
    39     5     6    1
    40     7     6    2
    41     7     9    1
    42    34    35    1
    43     6    10    1
    44    11    10    1
    45    11    12    1
    46    35    36    1
    47    14    12   ar
    48    12    13   ar
    49    36    37   ar
    50    36    38   ar
