@<TRIPOS>MOLECULE
3uoj_0C5_A_1.pdb
 25 27 0 0 0
SMALL
GASTEIGER

@<TRIPOS>ATOM
      1  O01       -8.8780   36.4680   10.2830 O.co2   1  0C51       -0.2406
      2  C02       -9.3420   35.8660   11.2810 C.2     1  0C51        0.3878
      3  C03       -9.0550   34.4370   11.5480 C.ar    1  0C51        0.0799
      4  C04       -9.7280   33.8400   12.5940 C.ar    1  0C51        0.0079
      5  C05       -9.4860   32.4970   12.8650 C.ar    1  0C51        0.0176
      6  C06       -8.1610   33.6880   10.7710 C.ar    1  0C51        0.0079
      7  C07       -7.9260   32.3440   11.0460 C.ar    1  0C51        0.0176
      8  C08       -8.6000   31.7420   12.1020 C.ar    1  0C51        0.0826
      9  N09       -8.4120   30.3630   12.4630 N.pl3   1  0C51       -0.1357
     10  C10       -7.8700   29.3670   11.5820 C.1     1  0C51        0.1709
     11  N11       -7.0240   29.7280   10.6110 N.2     1  0C51       -0.3189
     12  C12       -6.4960   28.8120    9.7760 C.2     1  0C51        0.2178
     13  N13       -5.5350   29.2030    8.6640 N.pl3   1  0C51       -0.1821
     14  C14       -5.2060   30.5850    8.4220 C.ar    1  0C51        0.0827
     15  C15       -6.2150   31.4790    8.0760 C.ar    1  0C51        0.0173
     16  C16       -5.8970   32.8110    7.8410 C.ar    1  0C51        0.0014
     17  C17       -4.5790   33.2630    7.9440 C.ar    1  0C51        0.0008
     18  C18       -3.5710   32.3710    8.2930 C.ar    1  0C51        0.0116
     19  C19       -3.8940   31.0350    8.5260 C.ar    1  0C51        0.0837
     20  C20       -2.7810   30.0820    8.8960 C.1     1  0C51        0.1017
     21  N21       -1.9690   29.4190    9.1570 N.1     1  0C51       -0.1908
     22  C22       -6.8690   27.4710    9.9720 C.2     1  0C51        0.0720
     23  C23       -7.7430   27.1200   10.9950 C.2     1  0C51        0.1158
     24  N24       -8.2300   28.0940   11.7870 N.2     1  0C51       -0.1683
     25  O25      -10.1320   36.4840   12.1120 O.co2   1  0C51       -0.2406
@<TRIPOS>BOND
     1    16    17   ar
     2    16    15   ar
     3    17    18   ar
     4    15    14   ar
     5    18    19   ar
     6    14    19   ar
     7    14    13    1
     8    19    20    1
     9    13    12    1
    10    20    21    3
    11    12    22    1
    12    12    11    2
    13    22    23    2
    14     1     2   ar
    15    11    10    2
    16     6     7   ar
    17     6     3   ar
    18    23    24    1
    19     7     8   ar
    20     2     3    1
    21     2    25   ar
    22     3     4   ar
    23    10    24    2
    24    10     9    1
    25     8     9    1
    26     8     5   ar
    27     4     5   ar
