@<TRIPOS>MOLECULE
3uok_0C6_A_1.pdb
 25 27 0 0 0
SMALL
GASTEIGER

@<TRIPOS>ATOM
      1 CL1        27.0740   12.2140   -9.4670 Cl      2  0C62       -0.0809
      2  C02       28.6260   11.9370   -8.8030 C.ar    2  0C62        0.0729
      3  C03       29.4250   13.0480   -8.6150 C.ar    2  0C62        0.0127
      4  C04       30.7020   12.9070   -8.0860 C.ar    2  0C62        0.0010
      5  C05       31.1720   11.6420   -7.7540 C.ar    2  0C62        0.0014
      6  C06       30.3750   10.5270   -7.9510 C.ar    2  0C62        0.0174
      7  C07       29.1000   10.6580   -8.4830 C.ar    2  0C62        0.0837
      8  N08       28.2990    9.4550   -8.6530 N.pl3   2  0C62       -0.1800
      9  C09       28.3330    8.6050   -9.8220 C.2     2  0C62        0.2454
     10  C10       27.2360    7.7620  -10.1070 C.2     2  0C62        0.2063
     11  C12       27.3000    6.9540  -11.2500 C.2     2  0C62        0.1454
     12  N13       28.3940    7.0020  -12.0470 N.2     2  0C62       -0.1659
     13  C14       29.4020    7.8100  -11.7350 C.1     2  0C62        0.1711
     14  N15       30.5210    7.7900  -12.6260 N.pl3   2  0C62       -0.1357
     15  C16       31.8770    8.3120  -12.2340 C.ar    2  0C62        0.0826
     16  C17       32.0670    9.1070  -11.0930 C.ar    2  0C62        0.0176
     17  C18       33.3300    9.5830  -10.7580 C.ar    2  0C62        0.0079
     18  C19       34.4170    9.2720  -11.5750 C.ar    2  0C62        0.0799
     19  C20       35.8190    9.7360  -11.2460 C.2     2  0C62        0.3878
     20  O21       36.0480   10.6920  -10.4340 O.co2   2  0C62       -0.2406
     21  O22       36.7760    9.1120  -11.7610 O.co2   2  0C62       -0.2406
     22  C23       34.2260    8.4780  -12.7080 C.ar    2  0C62        0.0079
     23  C24       32.9650    8.0060  -13.0440 C.ar    2  0C62        0.0176
     24  N25       29.3880    8.6190  -10.6520 N.2     2  0C62       -0.3165
     25  F11       26.1400    7.7180   -9.3130 F       2  0C62       -0.1983
@<TRIPOS>BOND
     1    23    22   ar
     2    23    15   ar
     3    22    18   ar
     4    14    15    1
     5    14    13    1
     6    15    16   ar
     7    12    13    2
     8    12    11    1
     9    21    19   ar
    10    13    24    2
    11    18    19    1
    12    18    17   ar
    13    11    10    2
    14    19    20   ar
    15    16    17   ar
    16    24     9    2
    17    10     9    1
    18    10    25    1
    19     9     8    1
    20     1     2    1
    21     2     3   ar
    22     2     7   ar
    23     8     7    1
    24     3     4   ar
    25     7     6   ar
    26     4     5   ar
    27     6     5   ar
