@<TRIPOS>MOLECULE
3uol_0C7_A_1.pdb
 26 29 0 0 0
SMALL
GASTEIGER

@<TRIPOS>ATOM
      1 CL2       -24.4250   17.2340   -9.0830 Cl      2  0C72       -0.0809
      2  C02      -24.9580   18.8030   -8.6080 C.ar    2  0C72        0.0729
      3  C03      -26.3020   19.0950   -8.5030 C.ar    2  0C72        0.0127
      4  C04      -26.6900   20.3730   -8.1320 C.ar    2  0C72        0.0010
      5  C05      -25.7300   21.3420   -7.8670 C.ar    2  0C72        0.0014
      6  C06      -24.3830   21.0460   -7.9760 C.ar    2  0C72        0.0174
      7  C07      -24.0020   19.7700   -8.3440 C.ar    2  0C72        0.0836
      8  N08      -22.6210   19.3980   -8.4570 N.pl3   2  0C72       -0.1819
      9  C09      -21.8860   19.8680   -9.5780 C.2     2  0C72        0.2178
     10  C10      -20.6740   19.2670   -9.9180 C.2     2  0C72        0.0720
     11  C11      -19.9800   19.7570  -11.0260 C.2     2  0C72        0.1158
     12  N12      -20.5260   20.7730  -11.7040 N.2     2  0C72       -0.1683
     13  C13      -21.6760   21.3330  -11.3360 C.1     2  0C72        0.1709
     14  N14      -22.1470   22.3930  -12.1440 N.pl3   2  0C72       -0.1357
     15  C15      -23.2700   23.2240  -11.8730 C.ar    2  0C72        0.0826
     16  C16      -23.3740   24.3800  -12.6480 C.ar    2  0C72        0.0180
     17  C17      -24.4280   25.2530  -12.4650 C.ar    2  0C72        0.0115
     18  C18      -25.3800   24.9470  -11.5070 C.ar    2  0C72        0.0660
     19  C19      -26.5050   25.9020  -11.3360 C.1     2  0C72        0.0806
     20  N20      -26.4570   27.0650  -10.6360 N.2     2  0C72       -0.0711
     21  N21      -27.6840   27.6490  -10.7360 N.2     2  0C72       -0.0129
     22  N22      -28.4760   26.8510  -11.4910 N.2     2  0C72       -0.0129
     23  N23      -27.7400   25.7620  -11.8690 N.2     2  0C72       -0.0711
     24  C24      -25.2880   23.7910  -10.7360 C.ar    2  0C72        0.0115
     25  C25      -24.2230   22.9180  -10.9200 C.ar    2  0C72        0.0180
     26  N26      -22.3740   20.9010  -10.2930 N.2     2  0C72       -0.3189
@<TRIPOS>BOND
     1    16    17   ar
     2    16    15   ar
     3    17    18   ar
     4    14    15    1
     5    14    13    1
     6    15    25   ar
     7    23    22    1
     8    23    19    2
     9    12    13    2
    10    12    11    1
    11    18    19    1
    12    18    24   ar
    13    22    21    2
    14    19    20    2
    15    13    26    2
    16    11    10    2
    17    25    24   ar
    18    21    20    1
    19    26     9    2
    20    10     9    1
    21     9     8    1
    22     1     2    1
    23     2     3   ar
    24     2     7   ar
    25     3     4   ar
    26     8     7    1
    27     7     6   ar
    28     4     5   ar
    29     6     5   ar
