@<TRIPOS>MOLECULE
3uon_BGC_A_1.pdb
 12 12 0 0 0
SMALL
GASTEIGER

@<TRIPOS>ATOM
      1  C2         9.3390   -5.2230   43.9140 C.3   1163  BGC1163     0.2434
      2  C3         8.3460   -4.2680   44.5570 C.3   1163  BGC1163     0.2199
      3  C4         6.9800   -4.4750   43.9310 C.3   1163  BGC1163     0.2144
      4  C5         6.5440   -5.9230   44.1020 C.3   1163  BGC1163     0.1836
      5  C6         5.2050   -6.1530   43.4130 C.3   1163  BGC1163     0.2142
      6  C1         8.8540   -6.6710   43.9760 C.3   1163  BGC1163     0.3024
      7  O1         9.6970   -7.4910   43.1540 O.3   1163  BGC1163    -0.1869
      8  O2        10.5980   -5.1190   44.5900 O.3   1163  BGC1163    -0.2148
      9  O3         8.7660   -2.9170   44.3420 O.3   1163  BGC1163    -0.2174
     10  O4         6.0320   -3.6080   44.5640 O.3   1163  BGC1163    -0.2176
     11  O5         7.4980   -6.8270   43.5390 O.3   1163  BGC1163    -0.3236
     12  O6         4.8070   -7.5120   43.6330 O.3   1163  BGC1163    -0.2176
@<TRIPOS>BOND
     1     7     6    1
     2     5    12    1
     3     5     4    1
     4    11     6    1
     5    11     4    1
     6     1     6    1
     7     1     2    1
     8     1     8    1
     9     3     4    1
    10     3     2    1
    11     3    10    1
    12     9     2    1
