@<TRIPOS>MOLECULE
3uon_QNB_A_1.pdb
 25 28 0 0 0
SMALL
GASTEIGER

@<TRIPOS>ATOM
      1  C1         6.1590   -0.1640   -3.3750 C.3   1162  QNB1162     0.2521
      2  C2         6.9820   -1.0600   -2.4940 C.ar  1162  QNB1162     0.0192
      3  C3         8.0540   -1.7730   -3.0170 C.ar  1162  QNB1162    -0.0011
      4  C4         8.8030   -2.6060   -2.1900 C.ar  1162  QNB1162    -0.0002
      5  C5         8.4750   -2.7350   -0.8440 C.ar  1162  QNB1162    -0.0000
      6  C6         7.3980   -2.0280   -0.3240 C.ar  1162  QNB1162    -0.0002
      7  C7         6.6500   -1.1950   -1.1500 C.ar  1162  QNB1162    -0.0011
      8  C8         5.9260   -0.8130   -4.7100 C.ar  1162  QNB1162     0.0192
      9  C9         5.4850   -2.1320   -4.7690 C.ar  1162  QNB1162    -0.0011
     10  C10        5.2590   -2.7390   -5.9990 C.ar  1162  QNB1162    -0.0002
     11  C11        5.4630   -2.0260   -7.1760 C.ar  1162  QNB1162    -0.0000
     12  C12        5.8940   -0.7060   -7.1220 C.ar  1162  QNB1162    -0.0002
     13  C13        6.1200   -0.1020   -5.8910 C.ar  1162  QNB1162    -0.0011
     14  C14        6.8280    1.1860   -3.5140 C.2   1162  QNB1162     0.3527
     15  O15        4.8870    0.0280   -2.7460 O.3   1162  QNB1162    -0.2051
     16  O16        6.4660    2.1280   -2.8270 O.2   1162  QNB1162    -0.2466
     17  O17        7.9050    1.4020   -4.4680 O.3   1162  QNB1162    -0.4487
     18  C18        8.7230    2.5190   -4.1280 C.3   1162  QNB1162     0.1848
     19  C19        9.7930    2.0930   -3.1290 C.3   1162  QNB1162     0.1162
     20  N20       11.1200    2.4280   -3.6840 N.3   1162  QNB1162    -0.2697
     21  C21       11.4120    1.7020   -4.9380 C.3   1162  QNB1162     0.0723
     22  C22       10.2910    1.9380   -5.9390 C.3   1162  QNB1162     0.0210
     23  C23        9.4010    3.0340   -5.3870 C.3   1162  QNB1162     0.0444
     24  C24       10.2910    4.2290   -5.0730 C.3   1162  QNB1162     0.0210
     25  C25       11.1920    3.8860   -3.8910 C.3   1162  QNB1162     0.0723
@<TRIPOS>BOND
     1    11    12   ar
     2    11    10   ar
     3    12    13   ar
     4    10     9   ar
     5    22    23    1
     6    22    21    1
     7    13     8   ar
     8    23    24    1
     9    23    18    1
    10    24    25    1
    11    21    20    1
    12     9     8   ar
    13     8     1    1
    14    17    18    1
    15    17    14    1
    16    18    19    1
    17    25    20    1
    18    20    19    1
    19    14     1    1
    20    14    16    2
    21     1    15    1
    22     1     2    1
    23     3     2   ar
    24     3     4   ar
    25     2     7   ar
    26     4     5   ar
    27     7     6   ar
    28     5     6   ar
