@<TRIPOS>MOLECULE
3uop_PMJ_A_1.pdb
 36 37 0 0 0
SMALL
GASTEIGER

@<TRIPOS>ATOM
      1  C7        20.8840   32.6450   38.0030 C.3   302  PMJ302      0.1969
      2  S8        22.4680   33.0340   37.1870 S.O2  302  PMJ302      0.0620
      3  C4        20.1430   33.9210   38.3950 C.ar  302  PMJ302      0.0030
      4  C5        20.4610   34.5510   39.6020 C.ar  302  PMJ302     -0.0025
      5  C6        19.7870   35.7200   39.9740 C.ar  302  PMJ302     -0.0003
      6  C1        18.7970   36.2380   39.1260 C.ar  302  PMJ302     -0.0000
      7  C2        18.4940   35.6030   37.9200 C.ar  302  PMJ302     -0.0003
      8  C3        19.1610   34.4380   37.5570 C.ar  302  PMJ302     -0.0025
      9  O10       22.2390   34.0560   36.1300 O.2   302  PMJ302     -0.1558
     10  O9        23.4620   33.5630   38.1760 O.2   302  PMJ302     -0.1558
     11  N11       23.0320   31.6540   36.4990 N.3   302  PMJ302     -0.0738
     12  C12       23.6860   30.7110   37.4350 C.3   302  PMJ302      0.1749
     13  C30       24.9510   30.1160   36.7660 C.3   302  PMJ302      0.0324
     14  C31       24.6430   29.5320   35.3760 C.3   302  PMJ302      0.0489
     15  C32       25.8890   29.3190   34.4810 C.3   302  PMJ302      0.2205
     16  N33       26.8800   28.4210   35.0830 N.pl3 302  PMJ302     -0.0865
     17  C34       26.8990   27.0840   34.9320 C.cat 302  PMJ302      0.5346
     18  N35       25.9890   26.3830   34.2170 N.pl3 302  PMJ302      0.1354
     19  N37       27.8980   26.4180   35.5120 N.pl3 302  PMJ302      0.1354
     20  C13       22.6690   29.6430   37.8810 C.2   302  PMJ302      0.2595
     21  O14       21.7100   29.3500   37.1670 O.2   302  PMJ302     -0.2718
     22  N15       22.8330   29.1260   39.1140 N.am  302  PMJ302     -0.1942
     23  C16       21.8790   28.1500   39.6560 C.3   302  PMJ302      0.2014
     24  C17       20.5230   28.9070   39.8020 C.2   302  PMJ302      0.2638
     25  O18       20.5170   30.0640   40.2160 O.2   302  PMJ302     -0.2714
     26  N19       19.4150   28.2400   39.5090 N.am  302  PMJ302     -0.1991
     27  C20       18.0930   28.9170   39.5950 C.3   302  PMJ302      0.1415
     28  C21       17.6430   29.2160   38.1540 C.ar  302  PMJ302     -0.0006
     29  C26       18.3690   30.0770   37.3380 C.ar  302  PMJ302     -0.0023
     30  C25       17.9590   30.3450   36.0070 C.ar  302  PMJ302      0.0077
     31  C24       16.8070   29.7360   35.4980 C.ar  302  PMJ302      0.0975
     32  C27       16.3750   29.9650   34.1820 C.2   302  PMJ302      0.4766
     33  N28       16.6610   31.0740   33.4970 N.pl3 302  PMJ302      0.2047
     34  N29       15.6820   29.0380   33.5690 N.pl3 302  PMJ302      0.2047
     35  C23       16.0670   28.8880   36.3300 C.ar  302  PMJ302      0.0077
     36  C22       16.4850   28.6230   37.6480 C.ar  302  PMJ302     -0.0023
@<TRIPOS>BOND
     1    33    32    2
     2    34    32    1
     3    32    31    1
     4    18    17    1
     5    15    16    1
     6    15    14    1
     7    17    16    2
     8    17    19    1
     9    14    13    1
    10    31    30   ar
    11    31    35   ar
    12    30    29   ar
    13     9     2    2
    14    35    36   ar
    15    11     2    1
    16    11    12    1
    17    13    12    1
    18    21    20    2
    19     2     1    1
    20     2    10    2
    21    29    28   ar
    22    12    20    1
    23     8     7   ar
    24     8     3   ar
    25    36    28   ar
    26    20    22   am
    27     7     6   ar
    28     1     3    1
    29    28    27    1
    30     3     4   ar
    31    22    23    1
    32     6     5   ar
    33    26    27    1
    34    26    24   am
    35     4     5   ar
    36    23    24    1
    37    24    25    2
