@<TRIPOS>MOLECULE
3uoq_GNP_W_1.pdb
 32 34 0 0 0
SMALL
GASTEIGER

@<TRIPOS>ATOM
      1  PG      -190.9880   33.6890    3.1330 P.3   843  GNP843      0.4884
      2  O1G     -190.3370   32.4530    2.5710 O.3   843  GNP843     -0.1240
      3  O2G     -192.1920   34.1920    2.3880 O.2   843  GNP843     -0.2331
      4  O3G     -191.2660   33.3990    4.5810 O.3   843  GNP843     -0.1240
      5  N3B     -189.9010   34.8360    3.1050 N.3   843  GNP843     -0.0163
      6  PB      -190.2420   36.3130    3.5480 P.3   843  GNP843      0.4669
      7  O1B     -191.5880   36.7030    3.0880 O.2   843  GNP843     -0.2351
      8  O2B     -189.9220   36.4330    4.9810 O.3   843  GNP843     -0.1253
      9  O3A     -189.2670   37.2140    2.8170 O.3   843  GNP843     -0.2360
     10  PA      -187.9570   37.5840    3.4840 P.3   843  GNP843      0.2220
     11  O1A     -187.3230   36.3380    3.9700 O.2   843  GNP843     -0.5170
     12  O2A     -188.1740   38.6720    4.4630 O.3   843  GNP843     -0.4370
     13  O5'     -187.0300   38.1710    2.3560 O.3   843  GNP843     -0.3111
     14  C5'     -187.2940   37.9500    0.9820 C.3   843  GNP843      0.1813
     15  C4'     -186.2800   38.7770    0.2240 C.3   843  GNP843      0.1799
     16  O4'     -186.8850   40.0170   -0.2100 O.3   843  GNP843     -0.3326
     17  C3'     -185.0880   39.1520    1.0960 C.3   843  GNP843      0.2158
     18  O3'     -183.9100   38.5840    0.5450 O.3   843  GNP843     -0.2175
     19  C2'     -185.0440   40.6810    1.1420 C.3   843  GNP843      0.2310
     20  O2'     -183.7720   41.2040    0.8200 O.3   843  GNP843     -0.2158
     21  C1'     -186.0280   41.1190    0.0640 C.3   843  GNP843      0.2293
     22  N9      -186.8330   42.2960    0.4220 N.pl3 843  GNP843     -0.2354
     23  C8      -187.7220   42.4070    1.4690 C.3   843  GNP843      0.2246
     24  N7      -188.3090   43.5680    1.5390 N.2   843  GNP843     -0.2322
     25  C5      -187.7770   44.2770    0.4720 C.2   843  GNP843      0.2182
     26  C6      -188.0450   45.5950    0.0450 C.1   843  GNP843      0.2372
     27  O6      -188.8190   46.4250    0.5420 O.2   843  GNP843     -0.2069
     28  N1      -187.2960   45.9320   -1.0790 N.2   843  GNP843     -0.2485
     29  C2      -186.4120   45.0950   -1.7100 C.1   843  GNP843      0.2531
     30  N2      -185.7890   45.6100   -2.7770 N.pl3 843  GNP843     -0.0226
     31  N3      -186.1490   43.8550   -1.3210 N.2   843  GNP843     -0.3074
     32  C4      -186.8690   43.5140   -0.2270 C.2   843  GNP843      0.2300
@<TRIPOS>BOND
     1    30    29    1
     2    29    31    2
     3    29    28    2
     4    31    32    2
     5    28    26    2
     6    32    22    1
     7    32    25    1
     8    16    21    1
     9    16    15    1
    10    26    25    1
    11    26    27    2
    12    21    22    1
    13    21    19    1
    14    15    14    1
    15    15    17    1
    16    22    23    1
    17    25    24    2
    18    18    17    1
    19    20    19    1
    20    14    13    1
    21    17    19    1
    22    23    24    1
    23    13    10    1
    24     3     1    2
    25     2     1    1
    26     9    10    1
    27     9     6    1
    28     7     6    2
    29     5     1    1
    30     5     6    1
    31     1     4    1
    32    10    11    2
    33    10    12    1
    34     6     8    1
