@<TRIPOS>MOLECULE
3uow_XMP_A_1.pdb
 24 26 0 0 0
SMALL
GASTEIGER

@<TRIPOS>ATOM
      1  P        -12.9240   21.4010    9.4560 P.3   556  XMP556      0.5327
      2  O1P      -11.7230   20.5890    9.8710 O.3   556  XMP556     -0.1145
      3  O2P      -13.4860   22.2700   10.5510 O.3   556  XMP556     -0.1145
      4  O5'      -12.3630   22.4620    8.3740 O.3   556  XMP556     -0.2675
      5  O3P      -13.9810   20.6350    8.6950 O.2   556  XMP556     -0.2224
      6  C5'      -11.6480   22.0780    7.1940 C.3   556  XMP556      0.1859
      7  C4'      -11.5490   23.2510    6.2050 C.3   556  XMP556      0.1801
      8  O4'      -12.8090   23.4620    5.5560 O.3   556  XMP556     -0.3326
      9  C1'      -13.2890   24.7870    5.7960 C.3   556  XMP556      0.2293
     10  N9       -14.7290   24.6720    6.0570 N.pl3 556  XMP556     -0.2353
     11  C4       -15.6840   24.9840    5.1860 C.2   556  XMP556      0.2316
     12  N3       -15.7050   25.4770    3.9340 N.2   556  XMP556     -0.2901
     13  N1       -18.0740   25.4500    3.8570 N.2   556  XMP556     -0.2311
     14  C2       -16.8730   25.7030    3.2910 C.1   556  XMP556      0.3668
     15  O2       -16.8440   26.1600    2.1300 O.2   556  XMP556     -0.1744
     16  C6       -18.1870   24.9560    5.1010 C.1   556  XMP556      0.2388
     17  O6       -19.3050   24.7310    5.6100 O.2   556  XMP556     -0.2068
     18  C5       -16.9480   24.6900    5.8580 C.2   556  XMP556      0.2183
     19  N7       -16.6500   24.2220    7.0680 N.2   556  XMP556     -0.2322
     20  C8       -15.3050   24.2050    7.1840 C.3   556  XMP556      0.2246
     21  C2'      -12.5020   25.3070    6.9820 C.3   556  XMP556      0.2310
     22  O2'      -12.3400   26.7250    6.9210 O.3   556  XMP556     -0.2158
     23  C3'      -11.1830   24.5860    6.8430 C.3   556  XMP556      0.2158
     24  O3'      -10.3430   25.3280    5.9430 O.3   556  XMP556     -0.2175
@<TRIPOS>BOND
     1    15    14    2
     2    14    13    2
     3    14    12    2
     4    13    16    2
     5    12    11    2
     6    16    17    2
     7    16    18    1
     8    11    18    1
     9    11    10    1
    10     8     9    1
    11     8     7    1
    12     9    10    1
    13     9    21    1
    14    18    19    2
    15    24    23    1
    16    10    20    1
    17     7    23    1
    18     7     6    1
    19    23    21    1
    20    22    21    1
    21    19    20    1
    22     6     4    1
    23     4     1    1
    24     5     1    2
    25     1     2    1
    26     1     3    1
