@<TRIPOS>MOLECULE
3uoy_NAP_A_1.pdb
 48 52 0 0 0
SMALL
GASTEIGER

@<TRIPOS>ATOM
      1  PA         9.7120    7.0550    7.9320 P.3   552  NAP552      0.2189
      2  O1A       10.8810    7.5040    8.7210 O.3   552  NAP552     -0.4371
      3  O2A        9.8540    7.3450    6.4940 O.2   552  NAP552     -0.5170
      4  O5B        8.4420    7.8390    8.5390 O.3   552  NAP552     -0.3112
      5  C5B        8.0760    7.7610    9.9020 C.3   552  NAP552      0.1813
      6  C4B        6.8240    8.6130   10.1230 C.3   552  NAP552      0.1820
      7  O4B        6.5730    8.7970   11.5080 O.3   552  NAP552     -0.3136
      8  C3B        6.9900   10.0100    9.5620 C.3   552  NAP552      0.2157
      9  O3B        5.7370   10.4610    9.0700 O.3   552  NAP552     -0.2175
     10  C2B        7.4430   10.8250   10.7570 C.3   552  NAP552      0.2314
     11  O2B        7.1250   12.1830   10.6110 O.3   552  NAP552     -0.2630
     12  C1B        6.6670   10.1680   11.8820 C.3   552  NAP552      0.3158
     13  N9A        7.2650   10.2220   13.2330 N.pl3 552  NAP552     -0.1439
     14  C8A        8.5210    9.8070   13.6120 C.3   552  NAP552      0.3377
     15  N7A        8.6690    9.9760   14.9510 N.2   552  NAP552     -0.2095
     16  C5A        7.5200   10.4850   15.4480 C.2   552  NAP552      0.2526
     17  C6A        7.1310   10.8550   16.7480 C.2   552  NAP552      0.4393
     18  N6A        7.9550   10.7210   17.7930 N.pl3 552  NAP552      0.2180
     19  N1A        5.8550   11.3590   16.9490 N.2   552  NAP552      0.0021
     20  C2A        4.9890   11.5060   15.8710 C.3   552  NAP552      0.5254
     21  N3A        5.3770   11.1370   14.5900 N.2   552  NAP552     -0.0055
     22  C4A        6.6260   10.6340   14.3780 C.2   552  NAP552      0.3518
     23  O3         9.5000    5.4870    8.2320 O.3   552  NAP552     -0.2703
     24  PN         8.8770    4.2850    7.3550 P.3   552  NAP552      0.2189
     25  O1N        7.6060    4.7570    6.7660 O.2   552  NAP552     -0.5170
     26  O2N        8.9030    3.0540    8.1800 O.3   552  NAP552     -0.4371
     27  O5D        9.9500    4.1670    6.1640 O.3   552  NAP552     -0.3112
     28  C5D       11.3330    3.9690    6.4030 C.3   552  NAP552      0.1813
     29  C4D       12.0170    3.7140    5.0660 C.3   552  NAP552      0.1799
     30  O4D       11.7330    2.3940    4.6480 O.3   552  NAP552     -0.3327
     31  C3D       11.4830    4.6500    3.9980 C.3   552  NAP552      0.2158
     32  O3D       12.3990    5.6820    3.6830 O.3   552  NAP552     -0.2175
     33  C2D       11.1400    3.7710    2.8140 C.3   552  NAP552      0.2309
     34  O2D       11.9480    4.0070    1.6880 O.3   552  NAP552     -0.2158
     35  C1D       11.3260    2.3380    3.2980 C.3   552  NAP552      0.2263
     36  N1N       10.0210    1.6540    3.1690 N.pl3 552  NAP552     -0.2787
     37  C2N        9.6400    1.1890    1.9410 C.3   552  NAP552      0.1244
     38  C3N        8.4130    0.5520    1.7770 C.2   552  NAP552      0.0544
     39  C7N        7.9640    0.1630    0.3990 C.2   552  NAP552      0.2818
     40  O7N        6.8060    0.7650   -0.1480 O.2   552  NAP552     -0.2670
     41  N7N        8.6980   -0.7220   -0.2740 N.am  552  NAP552     -0.0839
     42  C4N        7.5680    0.3940    2.8700 C.2   552  NAP552      0.0033
     43  C5N        7.9600    0.8780    4.1200 C.2   552  NAP552      0.0157
     44  C6N        9.1940    1.5130    4.2630 C.2   552  NAP552      0.0633
     45  P2B        8.2590   13.2700   10.3060 P.3   552  NAP552      0.5328
     46  O1X        8.5450   13.3080    8.8260 O.2   552  NAP552     -0.2224
     47  O2X        7.7740   14.6340   10.7350 O.3   552  NAP552     -0.1145
     48  O3X        9.5110   12.8790   11.0490 O.3   552  NAP552     -0.1145
@<TRIPOS>BOND
     1    41    39   am
     2    40    39    2
     3    39    38    1
     4    34    33    1
     5    38    37    1
     6    38    42    2
     7    37    36    1
     8    33    35    1
     9    33    31    1
    10    42    43    1
    11    36    35    1
    12    36    44    1
    13    35    30    1
    14    32    31    1
    15    31    29    1
    16    43    44    2
    17    30    29    1
    18    29    28    1
    19    27    28    1
    20    27    24    1
    21     3     1    2
    22    25    24    2
    23    24    26    1
    24    24    23    1
    25     1    23    1
    26     1     4    1
    27     1     2    1
    28     4     5    1
    29    46    45    2
    30     9     8    1
    31     8     6    1
    32     8    10    1
    33     5     6    1
    34     6     7    1
    35    45    11    1
    36    45    47    1
    37    45    48    1
    38    11    10    1
    39    10    12    1
    40     7    12    1
    41    12    13    1
    42    13    14    1
    43    13    22    1
    44    14    15    1
    45    22    21    2
    46    22    16    1
    47    21    20    1
    48    15    16    2
    49    16    17    1
    50    20    19    1
    51    17    19    2
    52    17    18    1
