@<TRIPOS>MOLECULE
3uoz_NAP_A_1.pdb
 48 52 0 0 0
SMALL
GASTEIGER

@<TRIPOS>ATOM
      1  PA         9.9830    7.1410    7.6590 P.3   552  NAP552      0.2189
      2  O1A       11.2400    7.7490    8.2000 O.3   552  NAP552     -0.4371
      3  O2A        9.9240    7.2430    6.2020 O.2   552  NAP552     -0.5170
      4  O5B        8.7400    7.9460    8.2930 O.3   552  NAP552     -0.3112
      5  C5B        8.4510    7.9170    9.6730 C.3   552  NAP552      0.1813
      6  C4B        7.1790    8.7330    9.8570 C.3   552  NAP552      0.1820
      7  O4B        6.9050    8.9320   11.2460 O.3   552  NAP552     -0.3136
      8  C3B        7.3710   10.1020    9.2050 C.3   552  NAP552      0.2157
      9  O3B        6.2070   10.5120    8.4730 O.3   552  NAP552     -0.2175
     10  C2B        7.7550   10.9570   10.4090 C.3   552  NAP552      0.2314
     11  O2B        7.5390   12.3390   10.2330 O.3   552  NAP552     -0.2630
     12  C1B        6.9410   10.3110   11.5340 C.3   552  NAP552      0.3158
     13  N9A        7.6390   10.5470   12.7940 N.pl3 552  NAP552     -0.1439
     14  C8A        8.9900   10.4120   12.9970 C.3   552  NAP552      0.3377
     15  N7A        9.2660   10.7600   14.2700 N.2   552  NAP552     -0.2095
     16  C5A        8.1210   11.1330   14.8820 C.2   552  NAP552      0.2526
     17  C6A        7.8420   11.5880   16.1770 C.2   552  NAP552      0.4393
     18  N6A        8.7930   11.7050   17.0960 N.pl3 552  NAP552      0.2180
     19  N1A        6.5450   11.9000   16.5210 N.2   552  NAP552      0.0021
     20  C2A        5.5280   11.7710   15.5850 C.3   552  NAP552      0.5254
     21  N3A        5.8180   11.3350   14.2960 N.2   552  NAP552     -0.0055
     22  C4A        7.0910   11.0080   13.9540 C.2   552  NAP552      0.3518
     23  O3         9.7750    5.5880    8.0120 O.3   552  NAP552     -0.2703
     24  PN         9.1680    4.4330    7.0600 P.3   552  NAP552      0.2189
     25  O1N        7.8270    4.8450    6.5750 O.2   552  NAP552     -0.5170
     26  O2N        9.3380    3.1220    7.7440 O.3   552  NAP552     -0.4371
     27  O5D       10.1430    4.4560    5.8030 O.3   552  NAP552     -0.3112
     28  C5D       11.5390    4.4020    6.0050 C.3   552  NAP552      0.1813
     29  C4D       12.2000    3.9350    4.7160 C.3   552  NAP552      0.1799
     30  O4D       11.9480    2.5580    4.5500 O.3   552  NAP552     -0.3327
     31  C3D       11.6270    4.6220    3.4920 C.3   552  NAP552      0.2158
     32  O3D       12.4150    5.7360    3.1380 O.3   552  NAP552     -0.2175
     33  C2D       11.6910    3.5570    2.4360 C.3   552  NAP552      0.2309
     34  O2D       12.8950    3.6920    1.7070 O.3   552  NAP552     -0.2158
     35  C1D       11.7340    2.2370    3.1970 C.3   552  NAP552      0.2263
     36  N1N       10.4240    1.5950    3.0370 N.pl3 552  NAP552     -0.2787
     37  C2N        9.9950    1.2120    1.7870 C.3   552  NAP552      0.1244
     38  C3N        8.7410    0.6210    1.6400 C.2   552  NAP552      0.0544
     39  C7N        8.2170    0.1570    0.3080 C.2   552  NAP552      0.2818
     40  O7N        6.9050    0.5220   -0.0440 O.2   552  NAP552     -0.2670
     41  N7N        8.9630   -0.5940   -0.5010 N.am  552  NAP552     -0.0839
     42  C4N        7.9360    0.4440    2.7650 C.2   552  NAP552      0.0033
     43  C5N        8.3830    0.8450    4.0180 C.2   552  NAP552      0.0157
     44  C6N        9.6350    1.4320    4.1410 C.2   552  NAP552      0.0633
     45  P2B        8.6720   13.4390    9.8780 P.3   552  NAP552      0.5328
     46  O1X        9.0010   13.5830    8.4130 O.2   552  NAP552     -0.2224
     47  O2X        8.0660   14.7640   10.3140 O.3   552  NAP552     -0.1145
     48  O3X        9.9320   13.1130   10.6750 O.3   552  NAP552     -0.1145
@<TRIPOS>BOND
     1    41    39   am
     2    40    39    2
     3    39    38    1
     4    38    37    1
     5    38    42    2
     6    34    33    1
     7    37    36    1
     8    33    35    1
     9    33    31    1
    10    42    43    1
    11    36    35    1
    12    36    44    1
    13    32    31    1
    14    35    30    1
    15    31    29    1
    16    43    44    2
    17    30    29    1
    18    29    28    1
    19    27    28    1
    20    27    24    1
    21     3     1    2
    22    25    24    2
    23    24    26    1
    24    24    23    1
    25     1    23    1
    26     1     2    1
    27     1     4    1
    28     4     5    1
    29    46    45    2
    30     9     8    1
    31     8     6    1
    32     8    10    1
    33     5     6    1
    34     6     7    1
    35    45    11    1
    36    45    47    1
    37    45    48    1
    38    11    10    1
    39    10    12    1
    40     7    12    1
    41    12    13    1
    42    13    14    1
    43    13    22    1
    44    14    15    1
    45    22    21    2
    46    22    16    1
    47    15    16    2
    48    21    20    1
    49    16    17    1
    50    20    19    1
    51    17    19    2
    52    17    18    1
