@<TRIPOS>MOLECULE
3up0_D7S_A_1.pdb
 30 33 0 0 0
SMALL
GASTEIGER

@<TRIPOS>ATOM
      1  O3        -0.5760  -18.2360   36.2860 O.co2 100  D7S100     -0.2457
      2  C27       -0.3260  -19.0900   35.3970 C.2   100  D7S100      0.3643
      3  O2        -1.2710  -19.4810   34.6140 O.co2 100  D7S100     -0.2457
      4  C25        1.0890  -19.6320   35.2470 C.3   100  D7S100      0.1034
      5  C26        1.0940  -21.1260   35.5830 C.3   100  D7S100      0.0118
      6  C24        1.6500  -19.4460   33.8480 C.3   100  D7S100      0.0112
      7  C23        1.7350  -17.9690   33.4780 C.3   100  D7S100      0.0006
      8  C22        2.4100  -17.7630   32.1090 C.3   100  D7S100      0.0000
      9  C20        1.5880  -18.2810   30.9160 C.3   100  D7S100      0.0000
     10  C21        0.2110  -17.5980   30.8740 C.3   100  D7S100      0.0000
     11  C17        2.3580  -18.1450   29.5930 C.3   100  D7S100      0.0003
     12  C16        3.6990  -18.9120   29.6010 C.3   100  D7S100      0.0003
     13  C15        3.9990  -19.4310   28.2020 C.3   100  D7S100      0.0040
     14  C14        2.9410  -18.7450   27.3480 C.3   100  D7S100      0.0180
     15  C8         2.6190  -19.3070   25.9700 C.2   100  D7S100     -0.0491
     16  C7         3.2880  -20.3310   25.3910 C.2   100  D7S100     -0.0346
     17  C6         3.0090  -20.7460   23.9720 C.3   100  D7S100      0.0258
     18  C13        1.7310  -18.6210   28.2630 C.3   100  D7S100      0.0034
     19  C18        1.0070  -19.9670   28.4470 C.3   100  D7S100      0.0003
     20  C12        0.7750  -17.6520   27.5700 C.3   100  D7S100      0.0006
     21  C11        0.3710  -18.1460   26.1740 C.3   100  D7S100      0.0040
     22  C9         1.5200  -18.5100   25.2040 C.3   100  D7S100      0.0180
     23  C10        1.0880  -19.1080   23.8440 C.3   100  D7S100      0.0046
     24  C1         0.5170  -17.9670   22.9470 C.3   100  D7S100      0.0081
     25  C19        0.0760  -20.2340   24.0300 C.3   100  D7S100      0.0003
     26  C5         2.3130  -19.6770   23.1230 C.3   100  D7S100      0.0120
     27  C4         2.0690  -20.1200   21.6790 C.3   100  D7S100      0.0648
     28  C3         1.3660  -19.0360   20.8770 C.2   100  D7S100      0.1507
     29  O1         1.7460  -18.7450   19.7610 O.2   100  D7S100     -0.2961
     30  C2         0.1680  -18.4090   21.5300 C.3   100  D7S100      0.0645
@<TRIPOS>BOND
     1    29    28    2
     2    28    30    1
     3    28    27    1
     4    30    24    1
     5    27    26    1
     6    24    23    1
     7    26    23    1
     8    26    17    1
     9    23    25    1
    10    23    22    1
    11    17    16    1
    12    22    15    1
    13    22    21    1
    14    16    15    2
    15    15    14    1
    16    21    20    1
    17    14    13    1
    18    14    18    1
    19    20    18    1
    20    13    12    1
    21    18    19    1
    22    18    11    1
    23    11    12    1
    24    11     9    1
    25    10     9    1
    26     9     8    1
    27     8     7    1
    28     7     6    1
    29     6     4    1
    30     3     2   ar
    31     4     2    1
    32     4     5    1
    33     2     1   ar
