@<TRIPOS>MOLECULE
3up2_0C8_A_1.pdb
 28 30 0 0 0
SMALL
GASTEIGER

@<TRIPOS>ATOM
      1  N01        3.8470   31.8080    9.1560 N.2     1  0C81       -0.1683
      2  N02        4.5020   30.9520    7.0580 N.2     1  0C81       -0.3189
      3  N03        5.7040   28.8430    6.8710 N.pl3   1  0C81       -0.1797
      4  N04        3.3000   33.0480    7.2230 N.pl3   1  0C81       -0.1357
      5  C05        4.4050   30.7600    9.8000 C.2     1  0C81        0.1158
      6  C06        3.8970   31.8900    7.8130 C.1     1  0C81        0.1709
      7  C07        5.0730   29.8730    7.6580 C.2     1  0C81        0.2179
      8  C08        5.0290   29.7550    9.0540 C.2     1  0C81        0.0720
      9  C09        5.9350   29.0050    5.4600 C.ar    1  0C81        0.1072
     10  C10        4.8940   29.3620    4.6080 C.ar    1  0C81        0.0197
     11  C11        5.1180   29.5190    3.2460 C.ar    1  0C81        0.0015
     12  C12        6.3870   29.3060    2.7280 C.ar    1  0C81        0.0032
     13  C13        7.4250   28.9340    3.5740 C.ar    1  0C81        0.0385
     14  C14        7.2090   28.7920    4.9450 C.ar    1  0C81        0.1619
     15  C15        9.3310   29.1990    6.0800 C.3     1  0C81        0.5753
     16  C16        2.9390   33.2330    5.8440 C.ar    1  0C81        0.0826
     17  C17        1.8600   34.0660    5.5690 C.ar    1  0C81        0.0176
     18  C18        1.4770   34.3250    4.2630 C.ar    1  0C81        0.0079
     19  C19        2.1840   33.7280    3.2170 C.ar    1  0C81        0.0799
     20  C20        3.2620   32.8820    3.4680 C.ar    1  0C81        0.0079
     21  C21        3.6470   32.6570    4.7940 C.ar    1  0C81        0.0176
     22  C22        1.7230   34.0080    1.8330 C.2     1  0C81        0.3878
     23  O23        2.5500   34.0330    0.8680 O.co2   1  0C81       -0.2406
     24  O24        0.4820   34.2340    1.6720 O.co2   1  0C81       -0.2406
     25  O25        8.2480   28.3950    5.7790 O.3     1  0C81       -0.4031
     26  F26        8.9500   30.4610    6.3330 F       1  0C81       -0.1328
     27  F27       10.1490   29.1930    5.0330 F       1  0C81       -0.1328
     28  F28        9.9790   28.6740    7.1290 F       1  0C81       -0.1328
@<TRIPOS>BOND
     1    23    22   ar
     2    24    22   ar
     3    22    19    1
     4    12    11   ar
     5    12    13   ar
     6    19    20   ar
     7    19    18   ar
     8    11    10   ar
     9    20    21   ar
    10    13    14   ar
    11    18    17   ar
    12    10     9   ar
    13    21    16   ar
    14    14     9   ar
    15    14    25    1
    16    27    15    1
    17     9     3    1
    18    17    16   ar
    19    25    15    1
    20    16     4    1
    21    15    26    1
    22    15    28    1
    23     3     7    1
    24     2     7    2
    25     2     6    2
    26     4     6    1
    27     7     8    1
    28     6     1    2
    29     8     5    2
    30     1     5    1
