@<TRIPOS>MOLECULE
3up3_XCA_A_1.pdb
 30 33 0 0 0
SMALL
GASTEIGER

@<TRIPOS>ATOM
      1  O3       -14.5540   18.6760   15.9090 O.co2 100  XCA100     -0.2457
      2  C27      -13.8190   19.6010   15.4140 C.2   100  XCA100      0.3643
      3  O2       -12.7720   19.9680   16.0110 O.co2 100  XCA100     -0.2457
      4  C25      -14.2280   20.2330   14.1200 C.3   100  XCA100      0.1034
      5  C26      -14.4920   21.7450   14.2380 C.3   100  XCA100      0.0118
      6  C24      -13.1740   19.9470   13.0550 C.3   100  XCA100      0.0112
      7  C23      -12.9540   18.4580   12.7880 C.3   100  XCA100      0.0006
      8  C22      -11.9650   18.1460   11.6500 C.3   100  XCA100      0.0000
      9  C20      -10.5790   18.8100   11.8020 C.3   100  XCA100      0.0000
     10  C21       -9.9300   18.2530   13.0660 C.3   100  XCA100      0.0000
     11  C17       -9.7050   18.5480   10.5790 C.3   100  XCA100      0.0000
     12  C16      -10.3340   19.1230    9.3010 C.3   100  XCA100      0.0000
     13  C15       -9.1850   19.5450    8.3740 C.3   100  XCA100      0.0000
     14  C14       -7.9360   19.0070    9.0690 C.3   100  XCA100      0.0003
     15  C8        -6.5660   19.6180    8.7060 C.3   100  XCA100      0.0046
     16  C7        -6.3220   19.5300    7.2030 C.3   100  XCA100      0.0257
     17  C6        -4.8740   19.7150    6.8130 C.2   100  XCA100     -0.0303
     18  C13       -8.2730   19.0940   10.5530 C.3   100  XCA100      0.0000
     19  C18       -8.2360   20.5370   11.0520 C.3   100  XCA100      0.0000
     20  C12       -7.2220   18.2280   11.2400 C.3   100  XCA100      0.0000
     21  C11       -5.7880   18.6950   10.9300 C.3   100  XCA100      0.0003
     22  C9        -5.4520   18.8640    9.4330 C.3   100  XCA100      0.0041
     23  C10       -4.0440   19.4490    9.1760 C.3   100  XCA100      0.0191
     24  C1        -2.9600   18.4410    9.6080 C.3   100  XCA100      0.0121
     25  C19       -3.8350   20.7260    9.9800 C.3   100  XCA100      0.0044
     26  C5        -3.8670   19.6970    7.6990 C.2   100  XCA100     -0.0242
     27  C4        -2.4870   19.8980    7.1090 C.2   100  XCA100      0.0328
     28  C3        -1.3570   19.2150    7.8110 C.2   100  XCA100      0.1728
     29  O1        -0.1350   19.3530    7.2330 O.2   100  XCA100     -0.2913
     30  C2        -1.5540   18.6810    9.0510 C.3   100  XCA100      0.0695
@<TRIPOS>BOND
     1    17    16    1
     2    17    26    2
     3    27    26    1
     4    27    28    2
     5    16    15    1
     6    29    28    1
     7    26    23    1
     8    28    30    1
     9    13    14    1
    10    13    12    1
    11    15    14    1
    12    15    22    1
    13    30    24    1
    14    14    18    1
    15    23    22    1
    16    23    24    1
    17    23    25    1
    18    12    11    1
    19    22    21    1
    20    18    11    1
    21    18    19    1
    22    18    20    1
    23    11     9    1
    24    21    20    1
    25     8     9    1
    26     8     7    1
    27     9    10    1
    28     7     6    1
    29     6     4    1
    30     4     5    1
    31     4     2    1
    32     2     1   ar
    33     2     3   ar
