@<TRIPOS>MOLECULE
3up4_NAP_A_1.pdb
 48 52 0 0 0
SMALL
GASTEIGER

@<TRIPOS>ATOM
      1  PA        21.2570  -12.8320  -51.5410 P.3   552  NAP552      0.2189
      2  O1A       21.9610  -11.5910  -51.9250 O.2   552  NAP552     -0.5170
      3  O2A       20.7650  -12.7220  -50.1680 O.3   552  NAP552     -0.4371
      4  O5B       22.2290  -14.0950  -51.7000 O.3   552  NAP552     -0.3112
      5  C5B       22.9860  -14.2750  -52.8770 C.3   552  NAP552      0.1813
      6  C4B       23.8320  -15.5350  -52.7370 C.3   552  NAP552      0.1820
      7  O4B       24.6360  -15.7390  -53.8950 O.3   552  NAP552     -0.3136
      8  C3B       24.7590  -15.3830  -51.5410 C.3   552  NAP552      0.2157
      9  O3B       24.9210  -16.6160  -50.8850 O.3   552  NAP552     -0.2175
     10  C2B       26.0450  -14.9870  -52.1980 C.3   552  NAP552      0.2314
     11  O2B       27.1250  -15.4270  -51.4450 O.3   552  NAP552     -0.2630
     12  C1B       25.9870  -15.7640  -53.4940 C.3   552  NAP552      0.3158
     13  N9A       26.8810  -15.0890  -54.4310 N.pl3 552  NAP552     -0.1439
     14  C8A       26.7250  -13.8500  -54.9750 C.3   552  NAP552      0.3377
     15  N7A       27.7830  -13.6140  -55.7680 N.2   552  NAP552     -0.2095
     16  C5A       28.6160  -14.6690  -55.7400 C.2   552  NAP552      0.2526
     17  C6A       29.8330  -14.9330  -56.3650 C.2   552  NAP552      0.4393
     18  N6A       30.4030  -14.0500  -57.1800 N.pl3 552  NAP552      0.2180
     19  N1A       30.4660  -16.1260  -56.1270 N.2   552  NAP552      0.0021
     20  C2A       29.8900  -17.0520  -55.2690 C.3   552  NAP552      0.5254
     21  N3A       28.6810  -16.7870  -54.6490 N.2   552  NAP552     -0.0055
     22  C4A       28.0590  -15.6040  -54.8860 C.2   552  NAP552      0.3518
     23  O3        20.1380  -13.0430  -52.6550 O.3   552  NAP552     -0.2703
     24  PN        18.7860  -13.8610  -52.5760 P.3   552  NAP552      0.2189
     25  O1N       19.0900  -15.2150  -52.0840 O.3   552  NAP552     -0.4371
     26  O2N       17.8960  -13.6820  -53.7520 O.2   552  NAP552     -0.5170
     27  O5D       18.2500  -12.9440  -51.3930 O.3   552  NAP552     -0.3112
     28  C5D       17.9730  -11.5910  -51.6550 C.3   552  NAP552      0.1813
     29  C4D       16.7530  -11.1360  -50.8570 C.3   552  NAP552      0.1799
     30  O4D       15.5550  -11.4710  -51.5290 O.3   552  NAP552     -0.3327
     31  C3D       16.6000  -11.6940  -49.4320 C.3   552  NAP552      0.2158
     32  O3D       17.4100  -11.0660  -48.4730 O.3   552  NAP552     -0.2175
     33  C2D       15.1190  -11.4940  -49.1550 C.3   552  NAP552      0.2309
     34  O2D       14.7930  -10.2590  -48.5460 O.3   552  NAP552     -0.2158
     35  C1D       14.5170  -11.5870  -50.5610 C.3   552  NAP552      0.2263
     36  N1N       13.8610  -12.9100  -50.6610 N.pl3 552  NAP552     -0.2787
     37  C2N       12.8610  -13.2080  -49.7530 C.3   552  NAP552      0.1244
     38  C3N       12.2060  -14.4420  -49.8010 C.2   552  NAP552      0.0544
     39  C7N       11.3220  -14.8290  -48.6590 C.2   552  NAP552      0.2818
     40  O7N       11.8110  -15.7690  -47.7160 O.2   552  NAP552     -0.2670
     41  N7N       10.1210  -14.2490  -48.5780 N.am  552  NAP552     -0.0839
     42  C4N       12.5840  -15.3750  -50.7670 C.2   552  NAP552      0.0033
     43  C5N       13.6080  -15.0700  -51.6720 C.2   552  NAP552      0.0157
     44  C6N       14.2450  -13.8300  -51.6120 C.2   552  NAP552      0.0633
     45  P2B       27.9960  -14.3840  -50.6010 P.3   552  NAP552      0.5328
     46  O1X       27.2690  -14.0830  -49.3030 O.3   552  NAP552     -0.1145
     47  O2X       29.3500  -14.9890  -50.3190 O.3   552  NAP552     -0.1145
     48  O3X       28.2190  -13.1200  -51.3930 O.2   552  NAP552     -0.2224
@<TRIPOS>BOND
     1    18    17    1
     2    17    19    2
     3    17    16    1
     4    19    20    1
     5    15    16    2
     6    15    14    1
     7    16    22    1
     8    20    21    1
     9    14    13    1
    10    22    21    2
    11    22    13    1
    12    13    12    1
    13     7    12    1
    14     7     6    1
    15    26    24    2
    16    12    10    1
    17     5     6    1
    18     5     4    1
    19     6     8    1
    20    23    24    1
    21    23     1    1
    22    24    25    1
    23    24    27    1
    24    10     8    1
    25    10    11    1
    26     2     1    2
    27     4     1    1
    28    43    44    2
    29    43    42    1
    30    28    27    1
    31    28    29    1
    32    44    36    1
    33     8     9    1
    34     1     3    1
    35    30    29    1
    36    30    35    1
    37    11    45    1
    38    48    45    2
    39    29    31    1
    40    42    38    2
    41    36    35    1
    42    36    37    1
    43    45    47    1
    44    45    46    1
    45    35    33    1
    46    38    37    1
    47    38    39    1
    48    31    33    1
    49    31    32    1
    50    33    34    1
    51    39    41   am
    52    39    40    2
