@<TRIPOS>MOLECULE
3up5_NAP_A_1.pdb
 48 52 0 0 0
SMALL
GASTEIGER

@<TRIPOS>ATOM
      1  PA         9.7860    7.4390    7.8040 P.3   552  NAP552      0.2189
      2  O1A       11.1850    7.8370    8.2010 O.3   552  NAP552     -0.4371
      3  O2A        9.5120    7.7030    6.3730 O.2   552  NAP552     -0.5170
      4  O5B        8.7530    8.2740    8.7290 O.3   552  NAP552     -0.3112
      5  C5B        8.1140    7.7930    9.9080 C.3   552  NAP552      0.1813
      6  C4B        6.9130    8.7310   10.1380 C.3   552  NAP552      0.1820
      7  O4B        6.7000    8.9770   11.5340 O.3   552  NAP552     -0.3136
      8  C3B        7.1400   10.1030    9.4590 C.3   552  NAP552      0.2157
      9  O3B        5.9460   10.5140    8.7840 O.3   552  NAP552     -0.2175
     10  C2B        7.5480   11.0080   10.6360 C.3   552  NAP552      0.2314
     11  O2B        7.1950   12.3740   10.4820 O.3   552  NAP552     -0.2630
     12  C1B        6.7970   10.3900   11.8300 C.3   552  NAP552      0.3158
     13  N9A        7.4140   10.4880   13.1640 N.pl3 552  NAP552     -0.1439
     14  C8A        8.6820   10.0520   13.4890 C.3   552  NAP552      0.3377
     15  N7A        8.8770   10.2330   14.8230 N.2   552  NAP552     -0.2095
     16  C5A        7.7570   10.7570   15.3900 C.2   552  NAP552      0.2526
     17  C6A        7.4230   11.1360   16.7270 C.2   552  NAP552      0.4393
     18  N6A        8.2780   10.9870   17.7660 N.pl3 552  NAP552      0.2180
     19  N1A        6.1350   11.6530   16.9840 N.2   552  NAP552      0.0021
     20  C2A        5.2370   11.7860   15.9260 C.3   552  NAP552      0.5254
     21  N3A        5.5720   11.4140   14.6110 N.2   552  NAP552     -0.0055
     22  C4A        6.8180   10.9110   14.3380 C.2   552  NAP552      0.3518
     23  O3         9.4770    5.8710    8.2280 O.3   552  NAP552     -0.2703
     24  PN         8.8920    4.5160    7.5250 P.3   552  NAP552      0.2189
     25  O1N        7.4760    4.6420    7.0110 O.2   552  NAP552     -0.5170
     26  O2N        9.2210    3.3560    8.4520 O.3   552  NAP552     -0.4371
     27  O5D        9.8690    4.4210    6.2370 O.3   552  NAP552     -0.3112
     28  C5D       11.2810    4.4920    6.3940 C.3   552  NAP552      0.1813
     29  C4D       11.8870    3.9740    5.0900 C.3   552  NAP552      0.1799
     30  O4D       11.5220    2.6120    4.8150 O.3   552  NAP552     -0.3327
     31  C3D       11.4380    4.8140    3.8910 C.3   552  NAP552      0.2158
     32  O3D       12.3190    5.9240    3.6970 O.3   552  NAP552     -0.2175
     33  C2D       11.3640    3.8010    2.7450 C.3   552  NAP552      0.2309
     34  O2D       12.4240    3.9650    1.8270 O.3   552  NAP552     -0.2158
     35  C1D       11.4320    2.4030    3.3960 C.3   552  NAP552      0.2263
     36  N1N       10.1600    1.6840    3.1110 N.pl3 552  NAP552     -0.2787
     37  C2N        9.7280    1.4380    1.8080 C.3   552  NAP552      0.1244
     38  C3N        8.4720    0.8270    1.6460 C.2   552  NAP552      0.0544
     39  C7N        7.9470    0.4610    0.2880 C.2   552  NAP552      0.2818
     40  O7N        6.8680    1.1910   -0.3550 O.2   552  NAP552     -0.2670
     41  N7N        8.5740   -0.6020   -0.2400 N.am  552  NAP552     -0.0839
     42  C4N        7.7070    0.4650    2.7560 C.2   552  NAP552      0.0033
     43  C5N        8.1450    0.7350    4.0610 C.2   552  NAP552      0.0157
     44  C6N        9.3800    1.3540    4.2180 C.2   552  NAP552      0.0633
     45  P2B        8.3490   13.4400   10.2030 P.3   552  NAP552      0.5328
     46  O1X        8.7260   13.3780    8.7170 O.2   552  NAP552     -0.2224
     47  O2X        7.8550   14.8660   10.4900 O.3   552  NAP552     -0.1145
     48  O3X        9.6120   13.0730   11.0030 O.3   552  NAP552     -0.1145
@<TRIPOS>BOND
     1    40    39    2
     2    41    39   am
     3    39    38    1
     4    38    37    1
     5    38    42    2
     6    37    36    1
     7    34    33    1
     8    33    35    1
     9    33    31    1
    10    42    43    1
    11    36    35    1
    12    36    44    1
    13    35    30    1
    14    32    31    1
    15    31    29    1
    16    43    44    2
    17    30    29    1
    18    29    28    1
    19    27    28    1
    20    27    24    1
    21     3     1    2
    22    25    24    2
    23    24    23    1
    24    24    26    1
    25     1     2    1
    26     1    23    1
    27     1     4    1
    28    46    45    2
    29     4     5    1
    30     9     8    1
    31     8     6    1
    32     8    10    1
    33     5     6    1
    34     6     7    1
    35    45    11    1
    36    45    47    1
    37    45    48    1
    38    11    10    1
    39    10    12    1
    40     7    12    1
    41    12    13    1
    42    13    14    1
    43    13    22    1
    44    14    15    1
    45    22    21    2
    46    22    16    1
    47    21    20    1
    48    15    16    2
    49    16    17    1
    50    20    19    1
    51    17    19    2
    52    17    18    1
