@<TRIPOS>MOLECULE
3up7_0C9_A_1.pdb
 26 28 0 0 0
SMALL
GASTEIGER

@<TRIPOS>ATOM
      1  N01       -3.0820  -32.8410    6.7800 N.pl3   1  0C91       -0.1357
      2  N02       -4.1460  -30.8060    6.5250 N.2     1  0C91       -0.3189
      3  N03       -3.2210  -31.5660    8.6170 N.2     1  0C91       -0.1683
      4  N04       -5.1910  -28.6980    6.4890 N.pl3   1  0C91       -0.1825
      5  C05       -2.8930  -33.0240    3.0890 C.ar    1  0C91        0.0079
      6  C06       -1.6060  -33.6190    2.9490 C.ar    1  0C91        0.0799
      7  C07       -0.8400  -33.9260    4.1150 C.ar    1  0C91        0.0079
      8  C08       -1.3530  -33.6460    5.4130 C.ar    1  0C91        0.0176
      9  C09       -2.6350  -33.0570    5.5700 C.ar    1  0C91        0.0826
     10  C10       -3.4060  -32.7460    4.3920 C.ar    1  0C91        0.0176
     11  C11       -1.1080  -33.9020    1.7160 C.2     1  0C91        0.3878
     12  C12       -3.4870  -31.7260    7.2980 C.1     1  0C91        0.1709
     13  C13       -4.5550  -29.6390    7.1540 C.2     1  0C91        0.2178
     14  C14       -4.3200  -29.3940    8.5080 C.2     1  0C91        0.0720
     15  C15       -3.6460  -30.4020    9.1880 C.2     1  0C91        0.1158
     16  C16       -5.4060  -28.6470    5.1880 C.ar    1  0C91        0.0795
     17  C17       -4.3710  -28.9820    4.2370 C.ar    1  0C91        0.0168
     18  C18       -4.6150  -28.9210    2.8400 C.ar    1  0C91        0.0013
     19  C19       -5.8900  -28.5240    2.3520 C.ar    1  0C91        0.0003
     20  C20       -6.9320  -28.1830    3.2600 C.ar    1  0C91        0.0079
     21  C21       -6.7160  -28.2370    4.6820 C.ar    1  0C91        0.0950
     22  C22       -7.7590  -27.8940    5.5340 C.2     1  0C91        0.3890
     23  O23       -7.7010  -26.8650    6.1930 O.co2   1  0C91       -0.2405
     24  O24       -8.8530  -28.6910    5.6250 O.co2   1  0C91       -0.2405
     25  O25       -1.7710  -34.5310    0.9410 O.co2   1  0C91       -0.2406
     26  O26        0.1200  -33.5020    1.3590 O.co2   1  0C91       -0.2406
@<TRIPOS>BOND
     1    25    11   ar
     2    26    11   ar
     3    11     6    1
     4    19    18   ar
     5    19    20   ar
     6    18    17   ar
     7     6     5   ar
     8     6     7   ar
     9     5    10   ar
    10    20    21   ar
    11     7     8   ar
    12    17    16   ar
    13    10     9   ar
    14    21    16   ar
    15    21    22    1
    16    16     4    1
    17     8     9   ar
    18    22    24   ar
    19    22    23   ar
    20     9     1    1
    21     4    13    1
    22     2    13    2
    23     2    12    2
    24     1    12    1
    25    13    14    1
    26    12     3    2
    27    14    15    2
    28     3    15    1
