@<TRIPOS>MOLECULE
3upb_A5P_A_1.pdb
 13 12 0 0 0
SMALL
GASTEIGER

@<TRIPOS>ATOM
      1  C1        -4.7460   10.9160  -10.1200 C.3   1601  A5P1601     0.0383
      2  C2        -5.0150   12.2990   -9.5530 C.3   1601  A5P1601     0.1849
      3  O2        -5.9930   12.9300  -10.4310 O.3   1601  A5P1601    -0.2203
      4  C3        -5.5090   12.1350   -8.1060 C.3   1601  A5P1601     0.2147
      5  O3        -6.7740   11.3720   -8.1350 O.3   1601  A5P1601    -0.2176
      6  C4        -5.7390   13.4680   -7.4220 C.3   1601  A5P1601     0.2146
      7  O4        -4.4610   14.0930   -7.3690 O.3   1601  A5P1601    -0.2176
      8  C5        -6.2540   13.2780   -5.9990 C.3   1601  A5P1601     0.1892
      9  O5        -6.4540   14.5810   -5.4270 O.3   1601  A5P1601    -0.2674
     10  P         -7.4720   14.7820   -4.1770 P.3   1601  A5P1601     0.5327
     11  O1P       -6.9870   13.9640   -3.0420 O.3   1601  A5P1601    -0.1145
     12  O2P       -7.3790   16.3190   -3.9540 O.3   1601  A5P1601    -0.1145
     13  O3P       -8.8380   14.2830   -4.6480 O.2   1601  A5P1601    -0.2224
@<TRIPOS>BOND
     1     3     2    1
     2     1     2    1
     3     2     4    1
     4     5     4    1
     5     4     6    1
     6     6     7    1
     7     6     8    1
     8     8     9    1
     9     9    10    1
    10    13    10    2
    11    10    12    1
    12    10    11    1
