@<TRIPOS>MOLECULE
3upe_0CA_A_1.pdb
 39 43 0 0 0
SMALL
GASTEIGER

@<TRIPOS>ATOM
      1  C13       23.1430   34.4410   36.0060 C.ar  481  0CA481      0.0842
      2  C30       16.6600   29.6650   35.5630 C.ar  481  0CA481      0.0975
      3  C14       24.0260   33.3600   36.0860 C.ar  481  0CA481      0.0436
      4  C16       20.2380   34.8960   38.2670 C.ar  481  0CA481      0.0370
      5  C21       19.0360   35.5270   38.9710 C.3   481  0CA481      0.0384
      6  C22       19.3890   31.7370   39.1330 C.ar  481  0CA481      0.0004
      7  C23       18.9390   30.7310   40.0020 C.ar  481  0CA481     -0.0024
      8  C24       18.0810   29.7160   39.5640 C.ar  481  0CA481     -0.0003
      9  C25       18.9320   31.7260   37.8090 C.ar  481  0CA481     -0.0024
     10  C26       18.0890   30.6870   37.3750 C.ar  481  0CA481     -0.0000
     11  C27       17.6420   29.6990   38.2520 C.ar  481  0CA481     -0.0000
     12  C11       23.8400   32.3710   37.0560 C.ar  481  0CA481      0.1400
     13  N9        27.7340   26.4780   35.6820 N.3   481  0CA481     -0.1150
     14  C2        27.5490   29.3570   35.7790 C.3   481  0CA481      0.0770
     15  C3        26.6840   30.0920   36.8230 C.3   481  0CA481      0.0609
     16  C4        25.4700   30.7990   36.1540 C.3   481  0CA481      0.1687
     17  C5        24.6210   29.8490   35.2950 C.3   481  0CA481      0.0609
     18  C6        25.5230   29.1990   34.2450 C.3   481  0CA481      0.0770
     19  C7        26.7260   27.1080   35.0420 C.3   481  0CA481      0.1511
     20  C31       17.6200   30.7630   35.9620 C.ar  481  0CA481      0.0080
     21  C32       16.1510   29.6660   34.2560 C.2   481  0CA481      0.4766
     22  N33       16.5100   30.6820   33.4320 N.pl3 481  0CA481      0.2047
     23  N34       15.3630   28.6940   33.7660 N.pl3 481  0CA481      0.2047
     24  C29       16.2800   28.6790   36.4940 C.ar  481  0CA481      0.0080
     25  C28       16.7790   28.6880   37.7820 C.ar  481  0CA481      0.0003
     26  C20       20.3370   32.8430   39.6990 C.3   481  0CA481      0.1324
     27  N15       20.8110   33.7590   38.6290 N.ar  481  0CA481     -0.3264
     28  C38       19.3600   36.9860   39.3650 C.3   481  0CA481      0.0062
     29  C39       17.8260   35.4400   38.0810 C.3   481  0CA481      0.0062
     30  C17       20.9660   35.5110   37.0950 C.ar  481  0CA481      0.0144
     31  C18       22.0750   34.4930   36.9120 C.ar  481  0CA481      0.0235
     32  C35       23.3500   35.5090   34.9350 C.2   481  0CA481      0.3879
     33  O36       22.9120   36.6470   35.1510 O.co2 481  0CA481     -0.2406
     34  O37       23.9080   35.1600   33.8540 O.co2 481  0CA481     -0.2406
     35  C19       21.8860   33.4890   37.8690 C.ar  481  0CA481      0.0631
     36  C12       22.7770   32.4410   37.9410 C.ar  481  0CA481      0.0541
     37  O10       24.6620   31.2820   37.2420 O.3   481  0CA481     -0.4790
     38  N1        26.6290   28.5030   34.9850 N.3   481  0CA481     -0.2588
     39  C8        25.7690   26.2540   34.2690 C.3   481  0CA481      0.0386
@<TRIPOS>BOND
     1    22    21    2
     2    23    21    1
     3    34    32   ar
     4    18    38    1
     5    18    17    1
     6    21     2    1
     7    39    19    1
     8    32    33   ar
     9    32     1    1
    10    38    19    1
    11    38    14    1
    12    19    13    1
    13    17    16    1
    14     2    20   ar
    15     2    24   ar
    16    14    15    1
    17    20    10   ar
    18     1     3   ar
    19     1    31   ar
    20     3    12   ar
    21    16    15    1
    22    16    37    1
    23    24    25   ar
    24    31    30   ar
    25    31    35   ar
    26    12    37    1
    27    12    36   ar
    28    30     4   ar
    29    10     9   ar
    30    10    11   ar
    31    25    11   ar
    32     9     6   ar
    33    35    36   ar
    34    35    27   ar
    35    29     5    1
    36    11     8   ar
    37     4    27   ar
    38     4     5    1
    39    27    26    1
    40     5    28    1
    41     6    26    1
    42     6     7   ar
    43     8     7   ar
