@<TRIPOS>MOLECULE
3uph_0C1_A_1.pdb
 35 39 0 0 0
SMALL
GASTEIGER

@<TRIPOS>ATOM
      1  C1        25.9290   41.2770   47.8320 C.ar  578  0C1578      0.0003
      2  C2        25.9680   41.4830   46.4480 C.ar  578  0C1578      0.0171
      3  C3        29.4860   44.7190   42.7020 C.ar  578  0C1578      0.0319
      4  C4        29.0380   43.7630   41.7940 C.ar  578  0C1578      0.0317
      5  C5        27.6110   44.2080   44.1530 C.ar  578  0C1578      0.0295
      6  C6        24.4990   43.4600   46.7100 C.ar  578  0C1578      0.0517
      7  C7        23.9250   44.4210   45.8460 C.ar  578  0C1578      0.0356
      8  C8        25.2070   42.1420   48.6240 C.ar  578  0C1578      0.0156
      9  C9        27.1450   43.2260   43.2460 C.ar  578  0C1578      0.0301
     10  C10       25.2600   42.5820   45.9120 C.ar  578  0C1578      0.0632
     11  C11       24.4980   43.2060   48.0860 C.ar  578  0C1578      0.1360
     12  C12       28.7690   44.9380   43.8660 C.ar  578  0C1578      0.1400
     13  C13       27.8840   43.0380   42.0670 C.ar  578  0C1578      0.1381
     14  C14       24.3800   44.1600   44.5530 C.ar  578  0C1578      0.1183
     15  C15       22.5230   47.4700   47.6180 C.2   578  0C1578      0.0222
     16  C16       23.3780   46.3690   47.2430 C.2   578  0C1578      0.0133
     17  C17       21.4060   47.7030   46.9120 C.2   578  0C1578      0.1111
     18  C18       23.0870   45.5310   46.2200 C.2   578  0C1578      0.0848
     19  C19       21.8010   45.7970   45.4400 C.1   578  0C1578      0.1545
     20  C20       24.2380   45.0370   43.4150 C.2   578  0C1578      0.3012
     21  C21       25.0460   42.1390   50.1000 C.3   578  0C1578      0.0767
     22  C22       23.8470   43.0720   50.2010 C.3   578  0C1578      0.2102
     23  C23       25.8950   45.7820   41.0500 C.3   578  0C1578      0.2018
     24  C24       25.8940   42.4150   43.5120 C.3   578  0C1578      0.1351
     25  N1        25.1610   43.0280   44.6180 N.ar  578  0C1578     -0.3191
     26  N2        21.0640   46.9010   45.8580 N.2   578  0C1578     -0.1747
     27  N3        23.7900   44.4640   42.2080 N.am  578  0C1578     -0.0577
     28  O1        21.4310   45.0730   44.4980 O.2   578  0C1578     -0.2219
     29  O2        24.2860   46.2640   43.5190 O.2   578  0C1578     -0.2651
     30  O3        24.6150   43.7890   39.8460 O.2   578  0C1578     -0.1527
     31  O4        23.4970   46.0000   40.2400 O.2   578  0C1578     -0.1527
     32  O5        23.8440   43.9550   49.0600 O.3   578  0C1578     -0.4754
     33  F1        29.1930   45.8720   44.7210 F     578  0C1578     -0.2042
     34  F2        27.4830   42.1530   41.1690 F     578  0C1578     -0.2044
     35  S1        24.3820   44.9440   40.6830 S.O2  578  0C1578      0.0778
@<TRIPOS>BOND
     1    30    35    2
     2    31    35    2
     3    35    23    1
     4    35    27    1
     5    34    13    1
     6     4    13   ar
     7     4     3   ar
     8    13     9   ar
     9    27    20   am
    10     3    12   ar
    11     9    24    1
    12     9     5   ar
    13    20    29    2
    14    20    14    1
    15    24    25    1
    16    12     5   ar
    17    12    33    1
    18    28    19    2
    19    14    25   ar
    20    14     7   ar
    21    25    10   ar
    22    19    26    2
    23    19    18    1
    24     7    18    1
    25     7     6   ar
    26    26    17    1
    27    10     2   ar
    28    10     6   ar
    29    18    16    2
    30     2     1   ar
    31     6    11   ar
    32    17    15    2
    33    16    15    1
    34     1     8   ar
    35    11     8   ar
    36    11    32    1
    37     8    21    1
    38    32    22    1
    39    21    22    1
