@<TRIPOS>MOLECULE
3upi_0C2_A_1.pdb
 36 40 0 0 0
SMALL
GASTEIGER

@<TRIPOS>ATOM
      1  C1        25.7920   41.2730   47.3400 C.ar  587  0C2587      0.0003
      2  C2        25.8660   41.5750   45.9750 C.ar  587  0C2587      0.0171
      3  C3        29.6660   44.6500   42.4700 C.ar  587  0C2587      0.0319
      4  C4        29.1770   43.7120   41.5600 C.ar  587  0C2587      0.0317
      5  C5        27.6630   44.3770   43.8100 C.ar  587  0C2587      0.0295
      6  C6        24.4860   43.6040   46.3660 C.ar  587  0C2587      0.0517
      7  C7        23.9460   44.6510   45.5750 C.ar  587  0C2587      0.0356
      8  C8        25.1050   42.1320   48.1930 C.ar  587  0C2587      0.0152
      9  C9        27.1530   43.4250   42.9060 C.ar  587  0C2587      0.0301
     10  C10       25.2050   42.7370   45.5150 C.ar  587  0C2587      0.0632
     11  C11       24.4650   43.2710   47.7240 C.ar  587  0C2587      0.1360
     12  C12       28.9000   44.9750   43.5850 C.ar  587  0C2587      0.1400
     13  C13       27.9340   43.1090   41.7840 C.ar  587  0C2587      0.1381
     14  C14       24.3780   44.4390   44.2670 C.ar  587  0C2587      0.1183
     15  C15       22.6100   47.7060   47.4040 C.2   587  0C2587      0.0222
     16  C16       23.4550   46.6000   47.0110 C.2   587  0C2587      0.0133
     17  C17       21.4680   47.9420   46.7420 C.2   587  0C2587      0.1111
     18  C18       23.1290   45.7680   45.9970 C.2   587  0C2587      0.0848
     19  C19       21.8150   46.0400   45.2670 C.1   587  0C2587      0.1545
     20  C20       24.1490   45.2830   43.1130 C.2   587  0C2587      0.3012
     21  C21       24.0950   43.3030   49.9280 C.3   587  0C2587      0.2097
     22  C22       24.9190   42.0370   49.6590 C.3   587  0C2587      0.0690
     23  C23       24.1610   40.7980   50.0860 C.3   587  0C2587      0.0087
     24  C24       26.1200   45.5830   40.1860 C.3   587  0C2587      0.2018
     25  C25       25.8180   42.7410   43.0900 C.3   587  0C2587      0.1351
     26  N1        25.1300   43.2780   44.2590 N.ar  587  0C2587     -0.3191
     27  N2        21.0820   47.1360   45.7080 N.2   587  0C2587     -0.1747
     28  N3        24.4530   44.6190   41.9120 N.am  587  0C2587     -0.0577
     29  O1        21.4260   45.3230   44.3380 O.2   587  0C2587     -0.2219
     30  O2        24.0260   46.4970   43.1680 O.2   587  0C2587     -0.2651
     31  O3        23.9960   44.2770   39.4340 O.2   587  0C2587     -0.1527
     32  O4        23.7620   46.6030   40.4530 O.2   587  0C2587     -0.1527
     33  O5        23.8420   44.0160   48.7090 O.3   587  0C2587     -0.4754
     34  F1        29.3480   45.8720   44.4650 F     587  0C2587     -0.2042
     35  F2        27.4760   42.2330   40.8890 F     587  0C2587     -0.2044
     36  S1        24.3790   45.2950   40.3810 S.O2  587  0C2587      0.0778
@<TRIPOS>BOND
     1    31    36    2
     2    24    36    1
     3    36    32    2
     4    36    28    1
     5    35    13    1
     6     4    13   ar
     7     4     3   ar
     8    13     9   ar
     9    28    20   am
    10     3    12   ar
    11     9    25    1
    12     9     5   ar
    13    25    26    1
    14    20    30    2
    15    20    14    1
    16    12     5   ar
    17    12    34    1
    18    26    14   ar
    19    26    10   ar
    20    14     7   ar
    21    29    19    2
    22    19    27    2
    23    19    18    1
    24    10     2   ar
    25    10     6   ar
    26     7    18    1
    27     7     6   ar
    28    27    17    1
    29     2     1   ar
    30    18    16    2
    31     6    11   ar
    32    17    15    2
    33    16    15    1
    34     1     8   ar
    35    11     8   ar
    36    11    33    1
    37     8    22    1
    38    33    21    1
    39    22    21    1
    40    22    23    1
