@<TRIPOS>MOLECULE
3upj_U03_A_1.pdb
 23 25 0 0 0
SMALL
GASTEIGER

@<TRIPOS>ATOM
      1  CA        -0.6340   18.2740   20.7360 C.3   100  U03100      0.1380
      2  CA2       -1.9010   17.9120   21.2940 C.2   100  U03100      0.3241
      3  CA4       -2.5920   20.1550   21.3210 C.ar  100  U03100      0.1498
      4  CA5       -1.3580   20.5760   20.7780 C.ar  100  U03100      0.0431
      5  CA6       -0.3550   19.6230   20.4980 C.3   100  U03100      0.1880
      6  CB1       -0.0290   16.5810   18.7750 C.ar  100  U03100     -0.0219
      7  CB2       -0.0730   15.1680   18.6130 C.ar  100  U03100     -0.0043
      8  CB3       -0.4150   14.6220   17.3530 C.ar  100  U03100     -0.0003
      9  CB4       -0.7070   15.4510   16.2750 C.ar  100  U03100     -0.0000
     10  CB5       -0.6640   16.8420   16.4250 C.ar  100  U03100     -0.0003
     11  CB6       -0.3290   17.4220   17.6620 C.ar  100  U03100     -0.0043
     12  CG1        0.3040   17.1990   20.1560 C.3   100  U03100      0.0358
     13  CG2        1.5310   16.6960   20.9450 C.3   100  U03100      0.0050
     14  CG3        1.1620   15.7490   22.0790 C.3   100  U03100      0.0004
     15  CD1       -3.6050   21.1210   21.5940 C.ar  100  U03100      0.0742
     16  CD2       -3.3670   22.4980   21.3130 C.ar  100  U03100      0.1418
     17  CD3       -2.1420   22.9060   20.7650 C.ar  100  U03100      0.0369
     18  CD4       -1.1280   21.9570   20.4980 C.ar  100  U03100      0.0043
     19  CE3       -5.3360   23.0210   22.4970 C.3   100  U03100      0.2525
     20  OA2       -2.1260   16.7550   21.4980 O.2   100  U03100     -0.2496
     21  OA3       -2.8820   18.7990   21.5970 O.3   100  U03100     -0.4242
     22  OA6        0.9090   19.9980   20.0710 O.3   100  U03100     -0.2176
     23  OE3       -4.3370   23.4390   21.5620 O.3   100  U03100     -0.4713
@<TRIPOS>BOND
     1     9    10   ar
     2     9     8   ar
     3    10    11   ar
     4     8     7   ar
     5    11     6   ar
     6     7     6   ar
     7     6    12    1
     8    22     5    1
     9    12     1    1
    10    12    13    1
    11     5     1    1
    12     5     4    1
    13    18    17   ar
    14    18     4   ar
    15     1     2    1
    16    17    16   ar
    17     4     3   ar
    18    13    14    1
    19     2    20    2
    20     2    21    1
    21    16    23    1
    22    16    15   ar
    23     3    15   ar
    24     3    21    1
    25    23    19    1
