@<TRIPOS>MOLECULE
3upk_UD1_A_1.pdb
 39 41 0 0 0
SMALL
GASTEIGER

@<TRIPOS>ATOM
      1  C1'       86.0700    1.0000  124.1080 C.3   427  UD1427      0.2633
      2  C2'       85.9740   -0.0700  122.9490 C.3   427  UD1427      0.1845
      3  C3'       84.6350   -0.8750  123.0440 C.3   427  UD1427      0.2094
      4  C4'       84.6280   -1.5960  124.4090 C.3   427  UD1427      0.2136
      5  C5'       84.6860   -0.4830  125.5840 C.3   427  UD1427      0.1834
      6  C6'       84.7080   -1.1030  126.9920 C.3   427  UD1427      0.2142
      7  C7'       87.2290    1.0760  121.0780 C.2   427  UD1427      0.2420
      8  C8'       87.1370    1.8140  119.7570 C.3   427  UD1427      0.0964
      9  N2'       86.0740    0.6730  121.6430 N.am  427  UD1427     -0.1992
     10  O1'       85.0430    1.9140  123.7780 O.3   427  UD1427     -0.2864
     11  O3'       84.6090   -1.8320  121.9860 O.3   427  UD1427     -0.2183
     12  O4'       83.4630   -2.3320  124.5890 O.3   427  UD1427     -0.2176
     13  O5'       85.9420    0.3410  125.3960 O.3   427  UD1427     -0.3260
     14  O6'       85.8450   -1.9560  127.0740 O.3   427  UD1427     -0.2176
     15  O7'       88.3070    0.8500  121.6110 O.2   427  UD1427     -0.2733
     16  N1        81.5500    7.1780  129.1420 N.am  427  UD1427     -0.1766
     17  C2        80.9220    8.4590  129.4980 C.1   427  UD1427      0.2845
     18  N3        81.5760    9.6100  128.9700 N.2   427  UD1427     -0.2452
     19  C4        82.7810    9.6120  128.1320 C.1   427  UD1427      0.2182
     20  C5        83.3820    8.2890  127.7980 C.2   427  UD1427      0.1242
     21  C6        82.7610    7.1620  128.2990 C.2   427  UD1427      0.0929
     22  O2        79.9080    8.5830  130.1930 O.2   427  UD1427     -0.1918
     23  O4        83.2390   10.6780  127.7430 O.2   427  UD1427     -0.2085
     24  C1B       80.9210    5.9070  129.6490 C.3   427  UD1427      0.2401
     25  C2B       80.4040    5.0650  128.4590 C.3   427  UD1427      0.2319
     26  O2'       79.1050    5.4970  128.1270 O.3   427  UD1427     -0.2157
     27  C3B       80.3870    3.6640  129.1070 C.3   427  UD1427      0.2158
     28  C4B       81.6270    3.7480  130.0560 C.3   427  UD1427      0.1799
     29  O4B       81.8640    5.1290  130.3290 O.3   427  UD1427     -0.3320
     30  O3B       79.2330    3.4430  129.9570 O.3   427  UD1427     -0.2175
     31  C5B       82.9060    3.1370  129.3980 C.3   427  UD1427      0.1813
     32  O5B       83.1680    3.6360  128.0750 O.3   427  UD1427     -0.3112
     33  PA        84.6600    3.6620  127.4820 P.3   427  UD1427      0.2189
     34  O1A       85.5730    2.9090  128.3250 O.3   427  UD1427     -0.4371
     35  O2A       85.0380    5.0470  127.1370 O.2   427  UD1427     -0.5170
     36  O3A       84.3620    2.9610  126.1130 O.3   427  UD1427     -0.2703
     37  PB        84.7330    3.2490  124.5910 P.3   427  UD1427      0.2208
     38  O1B       85.9920    3.9430  124.6200 O.3   427  UD1427     -0.4371
     39  O2B       83.6490    4.0030  124.0090 O.2   427  UD1427     -0.5170
@<TRIPOS>BOND
     1     8     7    1
     2     7    15    2
     3     7     9   am
     4     9     2    1
     5    11     3    1
     6     2     3    1
     7     2     1    1
     8     3     4    1
     9    10     1    1
    10    10    37    1
    11    39    37    2
    12     1    13    1
    13     4    12    1
    14     4     5    1
    15    37    38    1
    16    37    36    1
    17    13     5    1
    18     5     6    1
    19    36    33    1
    20     6    14    1
    21    35    33    2
    22    33    32    1
    23    33    34    1
    24    23    19    2
    25    20    19    1
    26    20    21    2
    27    32    31    1
    28    26    25    1
    29    19    18    2
    30    21    16    1
    31    25    27    1
    32    25    24    1
    33    18    17    2
    34    27    30    1
    35    27    28    1
    36    16    17   am
    37    16    24    1
    38    31    28    1
    39    17    22    2
    40    24    29    1
    41    28    29    1
