@<TRIPOS>MOLECULE
3upn_IM2_A_1.pdb
 20 20 0 0 0
SMALL
GASTEIGER

@<TRIPOS>ATOM
      1  C7        38.1750  -43.9680    9.4640 C.2   800  IM2800      0.2115
      2  C2        38.0010  -47.4780    7.0310 C.3   800  IM2800      0.0958
      3  C6        37.9970  -45.4830    9.6410 C.3   800  IM2800      0.1175
      4  C5        38.9900  -46.4070    8.9040 C.3   800  IM2800      0.1142
      5  C3        38.8370  -46.5480    6.5770 C.2   800  IM2800      0.1428
      6  O7        37.4830  -43.2280   10.1520 O.2   800  IM2800     -0.2882
      7  C61       37.8150  -45.8550   11.1350 C.3   800  IM2800      0.1613
      8  O62       37.8670  -44.7160   12.0080 O.3   800  IM2800     -0.2226
      9  C62       38.7890  -46.9130   11.6580 C.3   800  IM2800      0.0360
     10  N4        39.3050  -45.8380    7.5920 N.2   800  IM2800     -0.2688
     11  C31       39.2490  -46.2850    5.2020 C.2   800  IM2800      0.4014
     12  O31       40.2380  -46.8910    4.7170 O.co2 800  IM2800     -0.2392
     13  O32       38.5920  -45.4530    4.5430 O.co2 800  IM2800     -0.2392
     14  S21       36.7660  -48.2390    6.1800 S.3   800  IM2800     -0.1329
     15  C22       37.3710  -49.1070    4.7590 C.3   800  IM2800      0.0821
     16  C23       36.7100  -48.5700    3.4880 C.3   800  IM2800      0.1362
     17  N24       37.5350  -49.0320    2.3730 N.pl3 800  IM2800     -0.1655
     18  C25       37.3740  -48.5660    1.2540 C.1   800  IM2800      0.1884
     19  N26       36.9970  -48.1930    0.1500 N.1   800  IM2800     -0.1726
     20  C1        38.2750  -47.7070    8.4920 C.3   800  IM2800      0.0418
@<TRIPOS>BOND
     1    19    18    3
     2    18    17    1
     3    17    16    1
     4    16    15    1
     5    13    11   ar
     6    12    11   ar
     7    15    14    1
     8    11     5    1
     9    14     2    1
    10     5     2    1
    11     5    10    2
    12     2    20    1
    13    10     4    1
    14    20     4    1
    15     4     3    1
    16     1     3    1
    17     1     6    2
    18     3     7    1
    19     7     9    1
    20     7     8    1
