@<TRIPOS>MOLECULE
3upo_PNM_A_1.pdb
 23 24 0 0 0
SMALL
GASTEIGER

@<TRIPOS>ATOM
      1  O8        37.1890  -42.5490    9.1000 O.2   800  PNM800     -0.2867
      2  C7        38.2990  -42.7420    9.6060 C.2   800  PNM800      0.2268
      3  N4        39.1500  -44.4910    8.1470 N.3   800  PNM800     -0.1961
      4  C3        38.1410  -45.3160    7.5260 C.3   800  PNM800      0.1857
      5  C11       38.0550  -45.0350    6.0610 C.2   800  PNM800      0.3811
      6  O13       36.9460  -45.1810    5.5040 O.co2 800  PNM800     -0.2441
      7  O12       39.0920  -44.6540    5.4700 O.co2 800  PNM800     -0.2441
      8  C2        38.4870  -46.7680    7.9150 C.3   800  PNM800      0.0658
      9  C10       37.2490  -47.6550    7.9640 C.3   800  PNM800      0.0129
     10  C9        39.5230  -47.4130    6.9960 C.3   800  PNM800      0.0129
     11  S1        39.1340  -46.6240    9.5550 S.3   800  PNM800     -0.1215
     12  C5        39.4490  -44.8710    9.5060 C.3   800  PNM800      0.1440
     13  C6        38.5930  -43.9850   10.4260 C.3   800  PNM800      0.1657
     14  N14       37.3200  -44.5490   10.8300 N.3   800  PNM800     -0.1801
     15  C15       37.1300  -45.5670   11.8510 C.3   800  PNM800      0.2304
     16  O16       38.1540  -45.4590   12.8200 O.3   800  PNM800     -0.2033
     17  C17       35.7150  -45.4870   12.4580 C.3   800  PNM800      0.0777
     18  C18       35.7820  -45.1140   13.9200 C.ar  800  PNM800     -0.0181
     19  C19       35.7220  -46.1180   14.8930 C.ar  800  PNM800     -0.0041
     20  C20       35.8030  -45.7530   16.2470 C.ar  800  PNM800     -0.0003
     21  C21       35.9460  -44.4120   16.6320 C.ar  800  PNM800     -0.0000
     22  C22       36.0090  -43.4130   15.6550 C.ar  800  PNM800     -0.0003
     23  C23       35.9230  -43.7650   14.2990 C.ar  800  PNM800     -0.0041
@<TRIPOS>BOND
     1     7     5   ar
     2     6     5   ar
     3     5     4    1
     4    10     8    1
     5     4     8    1
     6     4     3    1
     7     8     9    1
     8     8    11    1
     9     3    12    1
    10     1     2    2
    11    12    11    1
    12    12    13    1
    13     2    13    1
    14    13    14    1
    15    14    15    1
    16    15    17    1
    17    15    16    1
    18    17    18    1
    19    18    23   ar
    20    18    19   ar
    21    23    22   ar
    22    19    20   ar
    23    22    21   ar
    24    20    21   ar
