@<TRIPOS>MOLECULE
3upp_PCZ_A_1.pdb
 26 27 0 0 0
SMALL
GASTEIGER

@<TRIPOS>ATOM
      1  O1        37.5770  -42.7070    9.9400 O.2   800  PCZ800     -0.2863
      2  C1        38.4810  -43.3970    9.4620 C.2   800  PCZ800      0.2316
      3  C2        38.6450  -44.8510    9.9010 C.3   800  PCZ800      0.1923
      4  C3        39.2700  -45.6720    8.7830 C.3   800  PCZ800      0.1777
      5  C5        39.4080  -47.5380    6.5330 C.3   800  PCZ800      0.0574
      6  C51       39.4370  -48.3820    5.4230 C.3   800  PCZ800      0.0074
      7  C52       40.2370  -47.8990    7.5960 C.3   800  PCZ800      0.0656
      8  C6        38.5920  -46.3810    6.5310 C.2   800  PCZ800      0.1345
      9  C61       38.1170  -45.8220    5.3380 C.2   800  PCZ800      0.4007
     10  O62       38.9340  -45.4480    4.4000 O.co2 800  PCZ800     -0.2392
     11  O63       36.8400  -45.7510    5.1060 O.co2 800  PCZ800     -0.2392
     12  N7        38.5040  -45.5270    7.5510 N.2   800  PCZ800     -0.2568
     13  N8        37.3530  -45.3540   10.3960 N.am  800  PCZ800     -0.1910
     14  C9        37.2770  -45.9050   11.6180 C.2   800  PCZ800      0.2884
     15  O91       38.2440  -46.0580   12.3590 O.2   800  PCZ800     -0.2665
     16  C10       35.8760  -46.3410   12.0600 C.2   800  PCZ800      0.2002
     17  N11       35.2500  -45.6960   13.0730 N.2   800  PCZ800     -0.0759
     18  O12       36.0190  -44.4720   13.8380 O.2   800  PCZ800     -0.3729
     19  C13       36.2410  -43.3100   13.0060 C.3   800  PCZ800      0.2885
     20  C14       35.2770  -47.3450   11.4310 C.2   800  PCZ800      0.1478
     21  C15       34.1360  -47.8810   11.8800 C.3   800  PCZ800      0.1266
     22  S16       33.7680  -49.0840   10.8010 S.3   800  PCZ800     -0.0564
     23  C17       35.0360  -48.8880    9.8400 C.2   800  PCZ800      0.2461
     24  N18       35.7910  -47.8930   10.3060 N.2   800  PCZ800     -0.3794
     25  N19       35.2870  -49.6120    8.7540 N.pl3 800  PCZ800     -0.0867
     26  S1        39.5250  -47.4240    9.2030 S.3   800  PCZ800     -0.1145
@<TRIPOS>BOND
     1    10     9   ar
     2    11     9   ar
     3     9     8    1
     4     6     5    1
     5     8     5    1
     6     8    12    2
     7     5     7    1
     8    12     4    1
     9     7    26    1
    10    25    23    1
    11     4    26    1
    12     4     3    1
    13     2     3    1
    14     2     1    2
    15    23    24    2
    16    23    22    1
    17     3    13    1
    18    24    20    2
    19    13    14   am
    20    22    21    1
    21    20    21    1
    22    20    16    1
    23    14    16    1
    24    14    15    2
    25    16    17    2
    26    19    18    1
    27    17    18    1
