@<TRIPOS>MOLECULE
3upq_ZAN_A_1.pdb
 31 33 0 0 0
SMALL
GASTEIGER

@<TRIPOS>ATOM
      1  PA        15.6720    7.0670  -14.1220 P.3     0  ZAN0        0.4623
      2  PB        18.1420    6.9700  -15.8090 P.3     0  ZAN0        0.4700
      3  PG        20.1510    7.6560  -13.7950 P.3     0  ZAN0        0.5397
      4  O1A       16.2090    6.0300  -13.2130 O.3     0  ZAN0       -0.1255
      5  O1B       18.2660    5.5550  -15.3880 O.3     0  ZAN0       -0.1252
      6  O1G       20.2490    9.0360  -13.2600 O.3     0  ZAN0       -0.1143
      7  O2A       15.0430    8.2760  -13.2910 O.2     0  ZAN0       -0.2354
      8  O2B       18.1680    7.1320  -17.4030 O.2     0  ZAN0       -0.2350
      9  O2G       19.3450    6.7090  -12.8020 O.3     0  ZAN0       -0.1143
     10  N3A       16.7810    7.7650  -15.2030 N.3     0  ZAN0       -0.0179
     11  O3B       19.3900    7.7550  -15.2000 O.3     0  ZAN0       -0.1901
     12  O3G       21.6000    7.0400  -14.0560 O.2     0  ZAN0       -0.2220
     13  O5'       14.4450    6.4860  -14.9330 O.3     0  ZAN0       -0.2775
     14  C5'       14.6680    5.0920  -15.1340 C.3     0  ZAN0        0.1849
     15  C4'       14.0510    4.7690  -16.4950 C.3     0  ZAN0        0.1823
     16  O4'       12.6290    5.0190  -16.4340 O.3     0  ZAN0       -0.3135
     17  C3'       14.5850    5.7960  -17.5060 C.3     0  ZAN0        0.2184
     18  O3'       15.8180    5.3500  -18.0810 O.3     0  ZAN0       -0.2174
     19  C2'       13.4710    5.7740  -18.5530 C.3     0  ZAN0        0.2570
     20  O2'       13.6220    4.6010  -19.3500 O.3     0  ZAN0       -0.2130
     21  C1'       12.2220    5.6700  -17.6560 C.3     0  ZAN0        0.3186
     22  N9        11.7600    7.0260  -17.4060 N.pl3   0  ZAN0       -0.1439
     23  C8        12.2050    7.9110  -16.4580 C.3     0  ZAN0        0.3377
     24  N7        11.5470    9.0400  -16.5710 N.2     0  ZAN0       -0.2095
     25  C5        10.6660    8.9400  -17.6000 C.2     0  ZAN0        0.2526
     26  C6         9.7170    9.8040  -18.1790 C.2     0  ZAN0        0.4393
     27  N6         9.5420   11.0920  -17.6800 N.pl3   0  ZAN0        0.2180
     28  N1         9.0050    9.3470  -19.2120 N.2     0  ZAN0        0.0021
     29  C2         9.1730    8.1250  -19.7000 C.3     0  ZAN0        0.5254
     30  N3        10.0450    7.2700  -19.1910 N.2     0  ZAN0       -0.0055
     31  C4        10.7930    7.6440  -18.1430 C.2     0  ZAN0        0.3518
@<TRIPOS>BOND
     1    29    28    1
     2    29    30    1
     3    20    19    1
     4    28    26    2
     5    30    31    2
     6    19    21    1
     7    19    17    1
     8    26    27    1
     9    26    25    1
    10    31    25    1
    11    31    22    1
    12    18    17    1
    13    21    22    1
    14    21    16    1
    15    25    24    2
    16    17    15    1
    17    22    23    1
    18     8     2    2
    19    24    23    1
    20    15    16    1
    21    15    14    1
    22     2     5    1
    23     2    10    1
    24     2    11    1
    25    10     1    1
    26    11     3    1
    27    14    13    1
    28    13     1    1
    29     1     7    2
    30     1     4    1
    31    12     3    2
    32     3     6    1
    33     3     9    1
