@<TRIPOS>MOLECULE
3upr_1KX_A_1.pdb
 21 24 0 0 0
SMALL
GASTEIGER

@<TRIPOS>ATOM
      1  C         45.1820    4.9280  -12.7330 C.3   277  1KX277      0.0234
      2  N         47.1210    5.8880  -13.8930 N.pl3 277  1KX277     -0.2094
      3  O         53.8500    6.6700  -12.6440 O.3   277  1KX277     -0.2204
      4  C01       50.5820    4.8560  -15.0120 C.2   277  1KX277      0.2198
      5  N01       50.2950    3.5250  -15.3740 N.2   277  1KX277     -0.3087
      6  C02       49.5780    5.6640  -14.5210 C.2   277  1KX277      0.1689
      7  N02       50.1510    6.9050  -14.2530 N.2   277  1KX277     -0.2402
      8  C03       51.4910    6.8490  -14.5790 C.3   277  1KX277      0.2220
      9  N03       51.7640    5.6130  -15.0420 N.pl3 277  1KX277     -0.2624
     10  C04       53.0580    5.0800  -15.4940 C.3   277  1KX277      0.0770
     11  N04       48.0250    3.7820  -14.7910 N.2   277  1KX277     -0.3072
     12  C05       54.0600    6.1680  -15.7890 C.3   277  1KX277      0.0199
     13  N05       48.7750    1.6200  -15.6460 N.pl3 277  1KX277     -0.0232
     14  C06       55.3070    5.8380  -15.0410 C.3   277  1KX277      0.0044
     15  C07       54.9320    4.8840  -13.9650 C.3   277  1KX277      0.0347
     16  C08       54.7550    5.6270  -12.6840 C.3   277  1KX277      0.1821
     17  C09       53.6780    4.1760  -14.4720 C.3   277  1KX277      0.0225
     18  C10       48.2550    5.1070  -14.4080 C.2   277  1KX277      0.2341
     19  C11       49.0260    3.0130  -15.2560 C.1   277  1KX277      0.2440
     20  C12       45.8040    5.3410  -14.0250 C.3   277  1KX277      0.0952
     21  C13       44.7850    6.2180  -13.3720 C.3   277  1KX277      0.0234
@<TRIPOS>BOND
     1    12    10    1
     2    12    14    1
     3    13    19    1
     4    10     9    1
     5    10    17    1
     6     5    19    2
     7     5     4    2
     8    19    11    2
     9     9     4    1
    10     9     8    1
    11    14    15    1
    12     4     6    1
    13    11    18    2
    14     8     7    1
    15     6    18    1
    16     6     7    2
    17    17    15    1
    18    18     2    1
    19    20     2    1
    20    20    21    1
    21    20     1    1
    22    15    16    1
    23    21     1    1
    24    16     3    1
