@<TRIPOS>MOLECULE
3upt_RP5_A_1.pdb
 14 14 0 0 0
SMALL
GASTEIGER

@<TRIPOS>ATOM
      1  C1'       38.7590   33.2330  -54.2570 C.3   693  RP5693      0.3023
      2  O1'       38.7630   31.9700  -54.9300 O.3   693  RP5693     -0.3237
      3  C2'       37.8600   33.0290  -53.0510 C.3   693  RP5693      0.2433
      4  O2'       38.7090   32.8650  -51.9170 O.3   693  RP5693     -0.2148
      5  C3'       37.1550   31.7230  -53.3350 C.3   693  RP5693      0.2168
      6  O3'       37.8490   30.7450  -52.5670 O.3   693  RP5693     -0.2175
      7  C4'       37.4590   31.4330  -54.7990 C.3   693  RP5693      0.1809
      8  C5'       36.7050   32.1970  -55.8900 C.3   693  RP5693      0.1859
      9  O5'       35.3620   32.4410  -55.5580 O.3   693  RP5693     -0.2675
     10  P'        34.2980   31.8640  -56.5990 P.3   693  RP5693      0.5327
     11  O1X       35.0950   31.5170  -57.8490 O.2   693  RP5693     -0.2224
     12  O2X       33.3890   33.0610  -56.7610 O.3   693  RP5693     -0.1145
     13  O3X       33.7040   30.6950  -55.8680 O.3   693  RP5693     -0.1145
     14  O1        38.2540   34.2150  -55.1800 O.3   693  RP5693     -0.1869
@<TRIPOS>BOND
     1    11    10    2
     2    12    10    1
     3    10    13    1
     4    10     9    1
     5     8     9    1
     6     8     7    1
     7    14     1    1
     8     2     7    1
     9     2     1    1
    10     7     5    1
    11     1     3    1
    12     5     3    1
    13     5     6    1
    14     3     4    1
