@<TRIPOS>MOLECULE
3upt_TPP_A_1.pdb
 26 27 0 0 0
SMALL
GASTEIGER

@<TRIPOS>ATOM
      1  N1'       36.7920   33.9460  -44.3960 N.2   692  TPP692     -0.1861
      2  C2'       37.5730   32.9690  -43.8410 C.1   692  TPP692      0.0663
      3  CM2       37.6040   32.7540  -42.3470 C.3   692  TPP692      0.1291
      4  N3'       38.3240   32.1650  -44.6210 N.2   692  TPP692     -0.3368
      5  C4'       38.3370   32.3050  -45.9650 C.2   692  TPP692      0.2292
      6  N4'       39.1140   31.4760  -46.6900 N.pl3 692  TPP692     -0.0925
      7  C5'       37.4960   33.3540  -46.6160 C.2   692  TPP692      0.0654
      8  C6'       36.7500   34.1560  -45.7390 C.2   692  TPP692      0.1115
      9  C7'       37.4510   33.5400  -48.1280 C.3   692  TPP692      0.1237
     10  N3        38.7390   34.1380  -48.5050 N.pl3 692  TPP692     -0.2970
     11  C2        39.7920   33.3830  -48.9320 C.3   692  TPP692      0.1543
     12  S1        41.2800   34.2630  -49.2320 S.3   692  TPP692     -0.0951
     13  C5        40.4090   35.7130  -48.7760 C.2   692  TPP692      0.0164
     14  C4        39.0060   35.4640  -48.4010 C.2   692  TPP692      0.0279
     15  CM4       38.0650   36.5660  -47.9820 C.3   692  TPP692      0.0473
     16  C6        41.1160   37.0310  -48.8780 C.3   692  TPP692      0.0661
     17  C7        42.3440   37.0980  -48.0230 C.3   692  TPP692      0.1544
     18  O7        43.3130   37.5510  -48.9540 O.3   692  TPP692     -0.3134
     19  PA        44.8190   37.5820  -48.4410 P.3   692  TPP692      0.2230
     20  O1A       44.9690   36.7000  -47.2230 O.3   692  TPP692     -0.4370
     21  O2A       45.2270   39.0390  -48.3820 O.2   692  TPP692     -0.5169
     22  O3A       45.4560   36.6590  -49.5920 O.3   692  TPP692     -0.2261
     23  PB        46.0490   37.0510  -51.0300 P.3   692  TPP692      0.5373
     24  O1B       44.8810   37.1580  -51.9290 O.2   692  TPP692     -0.2221
     25  O2B       46.8390   38.3310  -50.8420 O.3   692  TPP692     -0.1143
     26  O3B       46.8150   35.7950  -51.2990 O.3   692  TPP692     -0.1143
@<TRIPOS>BOND
     1    24    23    2
     2    26    23    1
     3    23    25    1
     4    23    22    1
     5    22    19    1
     6    12    11    1
     7    12    13    1
     8    18    19    1
     9    18    17    1
    10    11    10    1
    11    16    13    1
    12    16    17    1
    13    13    14    2
    14    10    14    1
    15    10     9    1
    16    19    21    2
    17    19    20    1
    18    14    15    1
    19     9     7    1
    20     6     5    1
    21     7     5    1
    22     7     8    2
    23     5     4    2
    24     8     1    1
    25     4     2    2
    26     1     2    2
    27     2     3    1
