@<TRIPOS>MOLECULE
3upw_FMN_A_1.pdb
 50 52 0 0 0
SMALL
GASTEIGER

@<TRIPOS>ATOM
      1  N1        33.3340  -24.5840    8.3230 N.2   408  FMN408     -0.3029
      2  C2        34.6590  -24.4930    8.0750 C.1   408  FMN408      0.2727
      3  O2        35.3840  -24.0870    9.0200 O.2   408  FMN408     -0.1927
      4  N3        35.2050  -24.8230    6.8810 N.am  408  FMN408     -0.1956
      5  C4        34.4710  -25.2670    5.8460 C.2   408  FMN408      0.2930
      6  O4        34.9730  -25.5680    4.7350 O.2   408  FMN408     -0.2661
      7  C4A       33.0170  -25.4060    6.0380 C.2   408  FMN408      0.2295
      8  N5        32.2090  -25.8560    5.0450 N.2   408  FMN408     -0.3962
      9  C5A       30.8720  -25.9390    5.2590 C.2   408  FMN408      0.1228
     10  C6        30.0380  -26.3750    4.2320 C.2   408  FMN408     -0.0228
     11  C7        28.6660  -26.4660    4.4430 C.2   408  FMN408     -0.0450
     12  C7M       27.7690  -26.9390    3.3270 C.3   408  FMN408     -0.0394
     13  C8        28.0880  -26.0860    5.7560 C.2   408  FMN408     -0.0489
     14  C8M       26.6040  -26.1840    5.9910 C.3   408  FMN408     -0.0397
     15  C9        28.9100  -25.6410    6.7840 C.2   408  FMN408     -0.0478
     16  C9A       30.2830  -25.5510    6.5760 C.3   408  FMN408      0.1409
     17  N10       31.1200  -25.1160    7.6180 N.pl3 408  FMN408     -0.2812
     18  C10       32.4920  -25.0180    7.3620 C.2   408  FMN408      0.2319
     19  C1'       30.5770  -24.6650    8.8990 C.3   408  FMN408      0.0444
     20  C2'       30.0760  -23.2340    8.5760 C.3   408  FMN408      0.0992
     21  O2'       31.1780  -22.3520    8.2220 O.3   408  FMN408     -0.3876
     22  C3'       29.2900  -22.5380    9.7040 C.3   408  FMN408      0.1104
     23  O3'       30.1430  -22.3740   10.8410 O.3   408  FMN408     -0.3865
     24  C4'       28.0370  -23.3110   10.1190 C.3   408  FMN408      0.1073
     25  O4'       27.3590  -23.7390    8.9330 O.3   408  FMN408     -0.3868
     26  C5'       27.1230  -22.4750   11.0200 C.3   408  FMN408      0.0876
     27  O5'       26.7730  -21.2340   10.3960 O.3   408  FMN408     -0.2809
     28  P         25.3290  -21.0110    9.6940 P.3   408  FMN408      0.5320
     29  O1P       24.3230  -21.4110   10.7560 O.3   408  FMN408     -0.1145
     30  O2P       25.3280  -21.9570    8.5100 O.2   408  FMN408     -0.2224
     31  O3P       25.3290  -19.5430    9.3410 O.3   408  FMN408     -0.1145
     32  HN3       36.2360  -24.7500    6.7660 H     408  FMN408      0.1693
     33  H6        30.4580  -26.6480    3.2720 H     408  FMN408      0.0649
     34 HM71       27.6660  -27.9920    3.3790 H     408  FMN408      0.0278
     35 HM72       26.8170  -26.4850    3.4230 H     408  FMN408      0.0278
     36 HM73       28.1950  -26.6720    2.3950 H     408  FMN408      0.0278
     37 HM81       26.1440  -25.2670    5.7280 H     408  FMN408      0.0278
     38 HM82       26.4210  -26.3910    7.0130 H     408  FMN408      0.0278
     39 HM83       26.2030  -26.9630    5.3960 H     408  FMN408      0.0278
     40  H9        28.4850  -25.3640    7.7410 H     408  FMN408      0.0601
     41 H1'1       31.3520  -24.6450    9.6680 H     408  FMN408      0.0491
     42 H1'2       29.7540  -25.3050    9.2230 H     408  FMN408      0.0491
     43  H2'       29.4030  -23.3130    7.7110 H     408  FMN408      0.0636
     44 HO2'       31.7410  -22.2120    8.9960 H     408  FMN408      0.2100
     45  H3'       28.9760  -21.5490    9.3410 H     408  FMN408      0.0646
     46 HO3'       30.3960  -23.2430   11.1820 H     408  FMN408      0.2100
     47  H4'       28.3570  -24.1950   10.6880 H     408  FMN408      0.0643
     48 HO4'       27.0630  -22.9650    8.4340 H     408  FMN408      0.2100
     49 H5'1       26.2150  -23.0400   11.2400 H     408  FMN408      0.0592
     50 H5'2       27.6300  -22.2750   11.9660 H     408  FMN408      0.0592
@<TRIPOS>BOND
     1    36    12    1
     2    33    10    1
     3    12    34    1
     4    12    35    1
     5    12    11    1
     6    10    11    2
     7    10     9    1
     8    11    13    1
     9     6     5    2
    10     8     9    2
    11     8     7    2
    12     9    16    1
    13    39    14    1
    14    37    14    1
    15    13    14    1
    16    13    15    2
    17     5     7    1
    18     5     4   am
    19    14    38    1
    20     7    18    1
    21    16    15    1
    22    16    17    1
    23    32     4    1
    24    15    40    1
    25     4     2   am
    26    18    17    1
    27    18     1    2
    28    17    19    1
    29    43    20    1
    30     2     1    2
    31     2     3    2
    32    21    20    1
    33    21    44    1
    34    48    25    1
    35    30    28    2
    36    20    19    1
    37    20    22    1
    38    19    42    1
    39    19    41    1
    40    25    24    1
    41    31    28    1
    42    45    22    1
    43    28    27    1
    44    28    29    1
    45    22    24    1
    46    22    23    1
    47    24    47    1
    48    24    26    1
    49    27    26    1
    50    23    46    1
    51    26    49    1
    52    26    50    1
