@<TRIPOS>MOLECULE
3upx_B6A_A_1.pdb
 25 28 0 0 0
SMALL
GASTEIGER

@<TRIPOS>ATOM
      1  CAM       28.6370   14.5510   28.3560 C.3     1  B6A1        0.0206
      2  CAK       28.7290   15.5520   27.2110 C.3     1  B6A1        0.0888
      3  NAQ       29.4820   16.7250   27.6740 N.3     1  B6A1       -0.2180
      4  CAL       28.7100   17.4420   28.6850 C.3     1  B6A1        0.0888
      5  CAN       28.5850   16.5450   29.9120 C.3     1  B6A1        0.0206
      6  CAX       27.9460   15.1900   29.5530 C.3     1  B6A1        0.0231
      7  CAO       28.0850   14.2640   30.7490 C.3     1  B6A1        0.0994
      8  NAY       27.2630   13.0480   30.6400 N.pl3   1  B6A1       -0.2461
      9  CAW       25.9490   12.9670   30.7820 C.2     1  B6A1        0.0807
     10  CAJ       24.9640   13.9070   31.0490 C.2     1  B6A1        0.0201
     11  CAU       27.7400   11.8470   30.3900 C.cat   1  B6A1        0.2815
     12  NAA       29.0270   11.5870   30.1850 N.pl3   1  B6A1       -0.0777
     13  NAP       26.7410   10.9610   30.3680 N.2     1  B6A1       -0.3732
     14  CAV       25.6130   11.6290   30.6110 C.2     1  B6A1        0.1300
     15  CAI       24.2850   11.2290   30.7200 C.3     1  B6A1        0.0864
     16  CAH       23.2920   12.1710   30.9910 C.2     1  B6A1       -0.0154
     17  CAT       23.6380   13.5080   31.1580 C.2     1  B6A1        0.0364
     18  CAR       22.5930   14.5620   31.4400 C.2     1  B6A1        0.1953
     19  OAB       22.7730   15.7150   31.0430 O.2     1  B6A1       -0.2866
     20  CAS       21.3380   14.2000   32.2240 C.ar    1  B6A1        0.0389
     21  CAF       20.1120   14.7370   31.8530 C.ar    1  B6A1        0.0032
     22  CAD       18.9630   14.4040   32.5650 C.ar    1  B6A1        0.0001
     23  CAC       19.0630   13.5490   33.6640 C.ar    1  B6A1        0.0000
     24  CAE       20.2930   13.0190   34.0290 C.ar    1  B6A1        0.0001
     25  CAG       21.4300   13.3440   33.3140 C.ar    1  B6A1        0.0032
@<TRIPOS>BOND
     1     2     3    1
     2     2     1    1
     3     3     4    1
     4     1     6    1
     5     4     5    1
     6     6     5    1
     7     6     7    1
     8    12    11    1
     9    13    11    2
    10    13    14    2
    11    11     8    1
    12    14    15    1
    13    14     9    1
    14     8     7    1
    15     8     9    1
    16    15    16    1
    17     9    10    2
    18    16    17    2
    19    19    18    2
    20    10    17    1
    21    17    18    1
    22    18    20    1
    23    21    20   ar
    24    21    22   ar
    25    20    25   ar
    26    22    23   ar
    27    25    24   ar
    28    23    24   ar
