@<TRIPOS>MOLECULE
3upy_FOM_A_1.pdb
 11 10 0 0 0
SMALL
GASTEIGER

@<TRIPOS>ATOM
      1  O2         7.9580   -7.2540   15.1870 O.3   447  FOM447     -0.4195
      2  N1         8.3210   -6.1040   15.5470 N.am  447  FOM447     -0.2796
      3  C1         7.5940   -5.0220   15.4990 C.2   447  FOM447      0.1130
      4  O1         6.4040   -5.0880   15.1980 O.2   447  FOM447     -0.5358
      5  C2         9.6420   -5.8950   16.0780 C.3   447  FOM447      0.0985
      6  C3         9.9880   -7.0140   17.0280 C.3   447  FOM447      0.0297
      7  C4        11.4560   -7.2750   16.8070 C.3   447  FOM447      0.0607
      8  PA1       11.7260   -8.7080   15.7570 P.3   447  FOM447      0.1172
      9  OP1       10.8560   -9.9440   16.1470 O.3   447  FOM447     -0.3571
     10  OP2       11.3410   -8.0950   14.3770 O.2   447  FOM447     -0.4601
     11  OP3       13.2490   -8.8560   16.0540 O.3   447  FOM447     -0.3571
@<TRIPOS>BOND
     1    10     8    2
     2     1     2    1
     3     4     3    2
     4     3     2   am
     5     2     5    1
     6     8    11    1
     7     8     9    1
     8     8     7    1
     9     5     6    1
    10     7     6    1
