@<TRIPOS>MOLECULE
3upz_B5A_A_1.pdb
 17 19 0 0 0
SMALL
GASTEIGER

@<TRIPOS>ATOM
      1  CAF       19.4200   18.1250   61.6180 C.3     1  B5A1        0.0231
      2  CAD       19.9060   18.5010   60.2190 C.3     1  B5A1        0.0888
      3  NAL       18.7500   18.8960   59.4000 N.3     1  B5A1       -0.2180
      4  CAE       17.8540   17.7400   59.2140 C.3     1  B5A1        0.0888
      5  CAG       17.2790   17.3160   60.5660 C.3     1  B5A1        0.0231
      6  CAP       18.3940   16.9820   61.5700 C.3     1  B5A1        0.0522
      7  CAH       17.8050   16.7850   62.9750 C.3     1  B5A1        0.2317
      8  NAQ       16.8090   15.7000   63.0420 N.pl3   1  B5A1       -0.0796
      9  NAK       15.5820   15.8690   63.0580 N.2     1  B5A1       -0.0899
     10  CAC       14.9610   14.6840   63.1280 C.2     1  B5A1        0.1407
     11  C5        15.9030   13.7450   63.1640 C.3     1  B5A1        0.2652
     12  C4        17.1160   14.4110   63.1100 C.2     1  B5A1        0.3407
     13  N3        18.2660   13.7200   63.1260 N.2     1  B5A1       -0.0088
     14  C2        18.2380   12.3950   63.1950 C.3     1  B5A1        0.5248
     15  N1        17.0930   11.7190   63.2480 N.2     1  B5A1       -0.0027
     16  C6        15.9070   12.3580   63.2330 C.2     1  B5A1        0.4082
     17  NAA       14.7660   11.6730   63.2870 N.pl3   1  B5A1        0.2118
@<TRIPOS>BOND
     1     4     3    1
     2     4     5    1
     3     3     2    1
     4     2     1    1
     5     5     6    1
     6     6     1    1
     7     6     7    1
     8     7     8    1
     9     8     9    1
    10     8    12    1
    11     9    10    2
    12    12    13    2
    13    12    11    1
    14    13    14    1
    15    10    11    1
    16    11    16    1
    17    14    15    1
    18    16    15    2
    19    16    17    1
