@<TRIPOS>MOLECULE
3uq3_III_B_1.pdb
 42 41 0 0 0
SMALL
GASTEIGER

@<TRIPOS>ATOM
      1  N          8.7060   -9.6510  -16.1730 N.3   706  MET706     -0.1230
      2  CA         8.9810   -8.7300  -15.0340 C.3   706  MET706      0.1702
      3  C          8.7620   -9.3990  -13.6870 C.2   706  MET706      0.2592
      4  O          7.8530  -10.2190  -13.5350 O.2   706  MET706     -0.2718
      5  CB         8.0790   -7.5030  -15.1070 C.3   706  MET706      0.0401
      6  CG         8.5550   -6.4100  -16.0440 C.3   706  MET706      0.0596
      7  SD         7.6880   -4.8550  -15.7390 S.3   706  MET706     -0.1393
      8  CE         5.9880   -5.3040  -16.0950 C.3   706  MET706      0.0692
      9  N          9.5900   -9.0210  -12.7140 N.am  707  GLU707     -0.1966
     10  CA         9.4220   -9.4350  -11.3230 C.3   707  GLU707      0.1733
     11  C          7.9890   -9.2180  -10.8600 C.2   707  GLU707      0.2616
     12  O          7.3360   -8.2580  -11.2680 O.2   707  GLU707     -0.2715
     13  CB        10.3620   -8.6510  -10.4070 C.3   707  GLU707      0.0429
     14  CG        11.8270   -9.0150  -10.5400 C.3   707  GLU707      0.1163
     15  CD        12.1500  -10.4040  -10.0180 C.2   707  GLU707      0.3649
     16  OE1       12.5220  -11.2660  -10.8450 O.co2 707  GLU707     -0.2457
     17  OE2       12.0330  -10.6340   -8.7890 O.co2 707  GLU707     -0.2457
     18  N          7.5210  -10.1190  -10.0040 N.am  708  GLU708     -0.1963
     19  CA         6.1710  -10.0910   -9.4610 C.3   708  GLU708      0.1733
     20  C          6.0020   -8.9850   -8.4170 C.2   708  GLU708      0.2616
     21  O          6.7630   -8.9080   -7.4540 O.2   708  GLU708     -0.2715
     22  CB         5.8570  -11.4500   -8.8260 C.3   708  GLU708      0.0429
     23  CG         4.3940  -11.6800   -8.4800 C.3   708  GLU708      0.1163
     24  CD         3.5910  -12.2390   -9.6380 C.2   708  GLU708      0.3649
     25  OE1        4.2010  -12.7180  -10.6210 O.co2 708  GLU708     -0.2457
     26  OE2        2.3440  -12.2070   -9.5550 O.co2 708  GLU708     -0.2457
     27  N          5.0120   -8.1230   -8.6120 N.am  709  VAL709     -0.1963
     28  CA         4.6100   -7.2010   -7.5520 C.3   709  VAL709      0.1727
     29  C          3.3590   -7.7470   -6.8890 C.2   709  VAL709      0.2617
     30  O          2.5610   -8.4280   -7.5310 O.2   709  VAL709     -0.2715
     31  CB         4.3850   -5.7450   -8.0350 C.3   709  VAL709      0.0290
     32  CG1        5.7190   -5.0410   -8.2490 C.3   709  VAL709      0.0023
     33  CG2        3.5140   -5.6890   -9.2850 C.3   709  VAL709      0.0023
     34  N          3.2050   -7.4690   -5.6010 N.am  710  ASP710     -0.1936
     35  CA         2.0560   -7.9720   -4.8540 C.3   710  ASP710      0.2090
     36  C          1.0090   -6.8910   -4.6140 C.2   710  ASP710      0.3848
     37  O          1.1970   -5.7340   -5.0020 O.co2 710  ASP710     -0.2437
     38  CB         2.5050   -8.6170   -3.5350 C.3   710  ASP710      0.1472
     39  CG         3.0390  -10.0330   -3.7240 C.2   710  ASP710      0.3672
     40  OD1        3.0790  -10.5370   -4.8700 O.co2 710  ASP710     -0.2456
     41  OD2        3.4200  -10.6520   -2.7120 O.co2 710  ASP710     -0.2456
     42  OXT       -0.0490   -7.1540   -4.0420 O.co2 710  ASP710     -0.2437
@<TRIPOS>BOND
     1     1     2    1
     2     8     7    1
     3     6     7    1
     4     6     5    1
     5     5     2    1
     6     2     3    1
     7     3     4    2
     8     3     9   am
     9     9    10    1
    10    10    11    1
    11    10    13    1
    12    12    11    2
    13    11    18   am
    14    16    15   ar
    15    25    24   ar
    16    14    13    1
    17    14    15    1
    18    15    17   ar
    19    18    19    1
    20    24    26   ar
    21    24    23    1
    22    19    22    1
    23    19    20    1
    24    33    31    1
    25    22    23    1
    26    27    20   am
    27    27    28    1
    28    20    21    2
    29    32    31    1
    30    31    28    1
    31    28    29    1
    32    30    29    2
    33    29    34   am
    34    34    35    1
    35    37    36   ar
    36    40    39   ar
    37    35    36    1
    38    35    38    1
    39    36    42   ar
    40    39    38    1
    41    39    41   ar
