@<TRIPOS>MOLECULE
3uq6_ADN_A_1.pdb
 19 21 0 0 0
SMALL
GASTEIGER

@<TRIPOS>ATOM
      1  O5'       13.9680  -18.2570   11.1290 O.3   401  ADN401     -0.2176
      2  C5'       15.0520  -17.7570   10.3520 C.3   401  ADN401      0.2143
      3  C4'       14.5780  -17.2170    9.0260 C.3   401  ADN401      0.1851
      4  O4'       13.8770  -15.9760    9.2370 O.3   401  ADN401     -0.3134
      5  C3'       15.6820  -16.9100    8.0070 C.3   401  ADN401      0.2186
      6  O3'       15.5930  -17.8230    6.9130 O.3   401  ADN401     -0.2174
      7  C2'       15.3660  -15.4810    7.5140 C.3   401  ADN401      0.2570
      8  O2'       15.4140  -15.3240    6.1120 O.3   401  ADN401     -0.2130
      9  C1'       13.9620  -15.2230    8.0600 C.3   401  ADN401      0.3186
     10  N9        13.6990  -13.8170    8.3800 N.pl3 401  ADN401     -0.1439
     11  C8        14.5260  -12.9790    9.0160 C.3   401  ADN401      0.3377
     12  N7        13.9260  -11.7870    9.0990 N.2   401  ADN401     -0.2095
     13  C5        12.6910  -11.8660    8.4990 C.2   401  ADN401      0.2526
     14  C6        11.6290  -10.9320    8.2890 C.2   401  ADN401      0.4393
     15  N6        11.7470   -9.5380    8.7710 N.pl3 401  ADN401      0.2180
     16  N1        10.5230  -11.3450    7.6420 N.2   401  ADN401      0.0021
     17  C2        10.4080  -12.6010    7.2080 C.3   401  ADN401      0.5254
     18  N3        11.3960  -13.5080    7.3940 N.2   401  ADN401     -0.0055
     19  C4        12.5440  -13.1550    8.0380 C.2   401  ADN401      0.3518
@<TRIPOS>BOND
     1     8     7    1
     2     6     5    1
     3    17    18    1
     4    17    16    1
     5    18    19    2
     6     7     5    1
     7     7     9    1
     8    16    14    2
     9     5     3    1
    10    19    10    1
    11    19    13    1
    12     9    10    1
    13     9     4    1
    14    14    13    1
    15    14    15    1
    16    10    11    1
    17    13    12    2
    18    11    12    1
    19     3     4    1
    20     3     2    1
    21     2     1    1
