@<TRIPOS>MOLECULE
3uq6_AMP_A_1.pdb
 23 25 0 0 0
SMALL
GASTEIGER

@<TRIPOS>ATOM
      1  P         14.1590  -21.9100   19.4200 P.3   402  AMP402      0.5327
      2  O1P       13.9290  -20.9700   18.2200 O.2   402  AMP402     -0.2224
      3  O2P       13.2420  -21.8600   20.6640 O.3   402  AMP402     -0.1145
      4  O3P       15.5690  -21.6420   19.9300 O.3   402  AMP402     -0.1145
      5  O5'       14.1620  -23.4030   18.8690 O.3   402  AMP402     -0.2675
      6  C5'       12.9850  -23.9740   18.3210 C.3   402  AMP402      0.1860
      7  C4'       13.0350  -25.4780   18.3790 C.3   402  AMP402      0.1823
      8  O4'       14.1830  -25.9570   17.6230 O.3   402  AMP402     -0.3135
      9  C3'       13.2180  -26.0820   19.7660 C.3   402  AMP402      0.2184
     10  O3'       12.0020  -26.2100   20.4820 O.3   402  AMP402     -0.2174
     11  C2'       13.8890  -27.4110   19.4590 C.3   402  AMP402      0.2570
     12  O2'       12.9420  -28.3340   18.9420 O.3   402  AMP402     -0.2130
     13  C1'       14.8190  -27.0020   18.3250 C.3   402  AMP402      0.3186
     14  N9        16.1150  -26.5060   18.8250 N.pl3 402  AMP402     -0.1439
     15  C8        16.6430  -25.2800   18.6470 C.3   402  AMP402      0.3377
     16  N7        17.8410  -25.2270   19.2580 N.2   402  AMP402     -0.2095
     17  C5        18.0820  -26.4240   19.8310 C.2   402  AMP402      0.2526
     18  C6        19.1300  -26.9270   20.5720 C.2   402  AMP402      0.4393
     19  N6        20.2310  -26.1300   20.8540 N.pl3 402  AMP402      0.2180
     20  N1        19.0800  -28.1910   21.0150 N.2   402  AMP402      0.0021
     21  C2        18.0110  -28.9440   20.7330 C.3   402  AMP402      0.5254
     22  N3        16.9840  -28.4940   20.0240 N.2   402  AMP402     -0.0055
     23  C4        16.9790  -27.2390   19.5570 C.2   402  AMP402      0.3518
@<TRIPOS>BOND
     1     8    13    1
     2     8     7    1
     3     2     1    2
     4     6     7    1
     5     6     5    1
     6    13    14    1
     7    13    11    1
     8     7     9    1
     9    15    14    1
    10    15    16    1
    11    14    23    1
    12     5     1    1
    13    12    11    1
    14    16    17    2
    15     1     4    1
    16     1     3    1
    17    11     9    1
    18    23    17    1
    19    23    22    2
    20     9    10    1
    21    17    18    1
    22    22    21    1
    23    18    19    1
    24    18    20    2
    25    21    20    1
