@<TRIPOS>MOLECULE
3uq8_AMP_A_1.pdb
 22 24 0 0 0
SMALL
GASTEIGER

@<TRIPOS>ATOM
      1  P         58.3630   43.4550   59.0430 P.3   700  AMP700      0.3942
      2  O1P       59.8130   43.3480   58.4960 O.3   700  AMP700     -0.1425
      3  O2P       57.8600   43.0800   60.4350 O.3   700  AMP700     -0.1425
      4  O5'       57.6730   44.9000   58.7600 O.3   700  AMP700     -0.2926
      5  C5'       58.0370   46.0490   59.5030 C.3   700  AMP700      0.1831
      6  C4'       57.1260   47.2200   59.2690 C.3   700  AMP700      0.1822
      7  O4'       57.1370   47.5960   57.8360 O.3   700  AMP700     -0.3135
      8  C3'       55.6830   46.8210   59.4600 C.3   700  AMP700      0.2184
      9  O3'       55.3180   46.8960   60.8470 O.3   700  AMP700     -0.2174
     10  C2'       54.9400   47.8670   58.7070 C.3   700  AMP700      0.2570
     11  O2'       55.0820   49.1600   59.4410 O.3   700  AMP700     -0.2130
     12  C1'       55.8290   47.9830   57.4720 C.3   700  AMP700      0.3186
     13  N9        55.3910   46.9330   56.4920 N.pl3 700  AMP700     -0.1439
     14  C8        56.0500   45.7840   56.1810 C.3   700  AMP700      0.3377
     15  N7        55.3510   45.1400   55.2170 N.2   700  AMP700     -0.2095
     16  C5        54.2640   45.8930   54.9140 C.2   700  AMP700      0.2526
     17  C6        53.1800   45.8160   53.9390 C.2   700  AMP700      0.4393
     18  N6        53.0510   44.7410   53.1210 N.pl3 700  AMP700      0.2180
     19  N1        52.3100   46.8490   53.9500 N.2   700  AMP700      0.0021
     20  C2        52.4310   47.9250   54.7780 C.3   700  AMP700      0.5254
     21  N3        53.4010   48.0240   55.6780 N.2   700  AMP700     -0.0055
     22  C4        54.3310   47.0680   55.7540 C.2   700  AMP700      0.3518
@<TRIPOS>BOND
     1    18    17    1
     2    17    19    2
     3    17    16    1
     4    19    20    1
     5    20    21    1
     6    16    15    2
     7    16    22    1
     8    15    14    1
     9    21    22    2
    10    22    13    1
    11    14    13    1
    12    13    12    1
    13    12     7    1
    14    12    10    1
    15     7     6    1
    16     2     1    1
    17    10    11    1
    18    10     8    1
    19     4     1    1
    20     4     5    1
    21     1     3    1
    22     6     8    1
    23     6     5    1
    24     8     9    1
