@<TRIPOS>MOLECULE
3uq8_NAD_A_1.pdb
 44 48 0 0 0
SMALL
GASTEIGER

@<TRIPOS>ATOM
      1  PA        74.6090   36.9540   37.0520 P.3     1  NAD1        0.2189
      2  O1A       75.7520   37.1890   37.9790 O.3     1  NAD1       -0.4371
      3  O2A       73.8940   35.6610   37.1760 O.2     1  NAD1       -0.5170
      4  O5B       75.2070   37.0360   35.5810 O.3     1  NAD1       -0.3112
      5  C5B       74.3860   36.8490   34.4280 C.3     1  NAD1        0.1813
      6  C4B       75.2780   37.2100   33.2230 C.3     1  NAD1        0.1821
      7  O4B       75.5100   38.6310   33.2600 O.3     1  NAD1       -0.3135
      8  C3B       76.6500   36.5460   33.2190 C.3     1  NAD1        0.2184
      9  O3B       77.0040   36.1950   31.8690 O.3     1  NAD1       -0.2174
     10  C2B       77.6150   37.6470   33.7170 C.3     1  NAD1        0.2570
     11  O2B       78.9890   37.5160   33.2290 O.3     1  NAD1       -0.2130
     12  C1B       76.9360   38.8900   33.1870 C.3     1  NAD1        0.3186
     13  N9A       77.2570   40.0040   34.0850 N.pl3   1  NAD1       -0.1439
     14  C8A       76.8670   40.1800   35.3640 C.3     1  NAD1        0.3377
     15  N7A       77.3240   41.3870   35.7910 N.2     1  NAD1       -0.2095
     16  C5A       78.0100   41.9720   34.7610 C.2     1  NAD1        0.2526
     17  C6A       78.7090   43.1750   34.5820 C.2     1  NAD1        0.4393
     18  N6A       78.8500   44.1220   35.5690 N.pl3   1  NAD1        0.2180
     19  N1A       79.2720   43.4320   33.3490 N.2     1  NAD1        0.0021
     20  C2A       79.1670   42.5220   32.3190 C.3     1  NAD1        0.5254
     21  N3A       78.5020   41.3600   32.4630 N.2     1  NAD1       -0.0055
     22  C4A       77.9380   41.0740   33.6730 C.2     1  NAD1        0.3518
     23  O3        73.6360   38.2180   36.9060 O.3     1  NAD1       -0.2703
     24  PN        72.1980   38.3370   37.7080 P.3     1  NAD1        0.2189
     25  O1N       71.8700   39.7650   37.4660 O.2     1  NAD1       -0.5170
     26  O2N       72.5400   37.7040   39.0530 O.3     1  NAD1       -0.4371
     27  O5D       71.1900   37.3580   36.8930 O.3     1  NAD1       -0.3112
     28  C5D       70.7610   36.1280   37.4870 C.3     1  NAD1        0.1813
     29  C4D       70.0900   35.2870   36.4050 C.3     1  NAD1        0.1799
     30  O4D       68.9390   35.9900   35.8760 O.3     1  NAD1       -0.3327
     31  C3D       71.0140   35.0800   35.1960 C.3     1  NAD1        0.2158
     32  O3D       70.8270   33.6930   34.8730 O.3     1  NAD1       -0.2175
     33  C2D       70.3870   35.9130   34.0880 C.3     1  NAD1        0.2309
     34  O2D       70.6430   35.3120   32.7730 O.3     1  NAD1       -0.2158
     35  C1D       68.9010   35.8510   34.4480 C.3     1  NAD1        0.2263
     36  N1N       68.2350   37.0090   33.8430 N.pl3   1  NAD1       -0.2787
     37  C2N       67.5970   36.7550   32.6690 C.3     1  NAD1        0.1244
     38  C3N       66.9420   37.7300   31.9450 C.2     1  NAD1        0.0544
     39  C7N       66.2160   37.4450   30.6500 C.2     1  NAD1        0.2818
     40  O7N       65.7890   38.5250   30.0870 O.2     1  NAD1       -0.2670
     41  N7N       65.9930   36.2670   30.1600 N.am    1  NAD1       -0.0839
     42  C4N       66.9530   39.1510   32.4690 C.2     1  NAD1        0.0033
     43  C5N       67.6350   39.3370   33.7610 C.2     1  NAD1        0.0157
     44  C6N       68.2700   38.2390   34.4150 C.2     1  NAD1        0.0633
@<TRIPOS>BOND
     1    40    39    2
     2    41    39   am
     3    39    38    1
     4     9     8    1
     5    38    42    2
     6    38    37    1
     7    20    21    1
     8    20    19    1
     9    21    22    2
    10    42    43    1
    11    37    36    1
    12    34    33    1
    13    12     7    1
    14    12    10    1
    15    12    13    1
    16     8     6    1
    17     8    10    1
    18     6     7    1
    19     6     5    1
    20    11    10    1
    21    19    17    2
    22    22    13    1
    23    22    16    1
    24    43    44    2
    25    36    44    1
    26    36    35    1
    27    13    14    1
    28    33    35    1
    29    33    31    1
    30     5     4    1
    31    35    30    1
    32    17    16    1
    33    17    18    1
    34    16    15    2
    35    32    31    1
    36    31    29    1
    37    14    15    1
    38     4     1    1
    39    30    29    1
    40    29    28    1
    41    27    28    1
    42    27    24    1
    43    23     1    1
    44    23    24    1
    45     1     3    2
    46     1     2    1
    47    25    24    2
    48    24    26    1
