@<TRIPOS>MOLECULE
3uq9_TBN_A_1.pdb
 19 21 0 0 0
SMALL
GASTEIGER

@<TRIPOS>ATOM
      1  O5'       13.5680  -18.3860   10.8300 O.3   400  TBN400     -0.2176
      2  C5'       14.6740  -17.9290   10.0540 C.3   400  TBN400      0.2143
      3  C4'       14.2080  -17.2800    8.7780 C.3   400  TBN400      0.1851
      4  O4'       13.5690  -16.0310    9.0840 O.3   400  TBN400     -0.3132
      5  C1'       13.5620  -15.2630    7.9180 C.3   400  TBN400      0.3212
      6  N9        13.3570  -13.8600    8.2730 N.pl3 400  TBN400     -0.1468
      7  C8        14.1950  -13.0450    8.9170 C.2   400  TBN400      0.1741
      8  C7        13.5940  -11.7880    9.0130 C.2   400  TBN400      0.0420
      9  C5        12.3560  -11.8870    8.3870 C.3   400  TBN400      0.2444
     10  C6        11.2560  -10.9590    8.1400 C.2   400  TBN400      0.4064
     11  N1        10.1810  -11.3890    7.4870 N.2   400  TBN400     -0.0027
     12  C2        10.0860  -12.6310    7.0630 C.3   400  TBN400      0.5248
     13  N3        11.1490  -13.5680    7.2920 N.2   400  TBN400     -0.0106
     14  C4        12.2380  -13.1860    7.9330 C.2   400  TBN400      0.3215
     15  N6        11.3470   -9.5510    8.6150 N.pl3 400  TBN400      0.2117
     16  C2'       14.9050  -15.5440    7.2310 C.3   400  TBN400      0.2573
     17  O2'       14.7990  -15.4580    5.8250 O.3   400  TBN400     -0.2130
     18  C3'       15.2980  -16.9420    7.7610 C.3   400  TBN400      0.2186
     19  O3'       15.2650  -17.8870    6.6900 O.3   400  TBN400     -0.2174
@<TRIPOS>BOND
     1    17    16    1
     2    19    18    1
     3    12    13    1
     4    12    11    1
     5    16    18    1
     6    16     5    1
     7    13    14    2
     8    11    10    2
     9    18     3    1
    10     5     6    1
    11     5     4    1
    12    14     6    1
    13    14     9    1
    14    10     9    1
    15    10    15    1
    16     6     7    1
    17     9     8    1
    18     3     4    1
    19     3     2    1
    20     7     8    2
    21     2     1    1
