@<TRIPOS>MOLECULE
3uqd_F6P_A_1.pdb
 16 16 0 0 0
SMALL
GASTEIGER

@<TRIPOS>ATOM
      1  O1       -32.6580   24.0260  -39.1570 O.3   402  F6P402     -0.2148
      2  C1       -31.9540   22.9680  -39.7520 C.3   402  F6P402      0.2434
      3  C2       -30.4870   23.3470  -39.9420 C.3   402  F6P402      0.2807
      4  O2       -30.3480   24.7920  -39.9120 O.3   402  F6P402     -0.1896
      5  C3       -29.9150   22.8210  -41.2520 C.3   402  F6P402      0.2409
      6  O3       -29.7270   23.8720  -42.1610 O.3   402  F6P402     -0.2149
      7  C4       -28.5790   22.2000  -40.8940 C.3   402  F6P402      0.2167
      8  O4       -28.5010   20.8740  -41.3600 O.3   402  F6P402     -0.2175
      9  C5       -28.4970   22.2420  -39.3780 C.3   402  F6P402      0.1808
     10  O5       -29.7090   22.7860  -38.8970 O.3   402  F6P402     -0.3254
     11  C6       -27.3680   23.1650  -38.9480 C.3   402  F6P402      0.1859
     12  O6       -26.3750   22.4990  -38.2010 O.3   402  F6P402     -0.2675
     13  P        -25.9730   23.0450  -36.7390 P.3   402  F6P402      0.5327
     14  O1P      -25.9700   24.5550  -36.7820 O.2   402  F6P402     -0.2224
     15  O2P      -24.5730   22.5830  -36.4340 O.3   402  F6P402     -0.1145
     16  O3P      -26.9410   22.5470  -35.6920 O.3   402  F6P402     -0.1145
@<TRIPOS>BOND
     1     6     5    1
     2     8     7    1
     3     5     7    1
     4     5     3    1
     5     7     9    1
     6     3     4    1
     7     3     2    1
     8     3    10    1
     9     2     1    1
    10     9    11    1
    11     9    10    1
    12    11    12    1
    13    12    13    1
    14    14    13    2
    15    13    15    1
    16    13    16    1
