@<TRIPOS>MOLECULE
3uqd_ADP_B_1.pdb
 27 29 0 0 0
SMALL
GASTEIGER

@<TRIPOS>ATOM
      1  PB       -57.4590   15.4210  -25.1870 P.3   402  ADP402      0.5373
      2  O1B      -56.9330   15.5680  -26.5890 O.2   402  ADP402     -0.2221
      3  O2B      -58.9650   15.3380  -25.0780 O.3   402  ADP402     -0.1143
      4  O3B      -56.7140   14.3550  -24.4150 O.3   402  ADP402     -0.1143
      5  PA       -55.9630   17.8050  -24.9070 P.3   402  ADP402      0.2231
      6  O1A      -56.6130   18.8010  -25.8380 O.2   402  ADP402     -0.5169
      7  O2A      -54.7630   17.0280  -25.4130 O.3   402  ADP402     -0.4370
      8  O3A      -57.0860   16.7740  -24.4170 O.3   402  ADP402     -0.2261
      9  O5'      -55.6080   18.5410  -23.5170 O.3   402  ADP402     -0.3111
     10  C5'      -56.6380   19.1690  -22.7690 C.3   402  ADP402      0.1813
     11  C4'      -56.0540   20.3340  -22.0020 C.3   402  ADP402      0.1821
     12  O4'      -54.9110   19.9020  -21.2540 O.3   402  ADP402     -0.3135
     13  C3'      -55.5060   21.3800  -22.9550 C.3   402  ADP402      0.2184
     14  O3'      -56.5050   22.3010  -23.3880 O.3   402  ADP402     -0.2174
     15  C2'      -54.4420   22.0500  -22.1210 C.3   402  ADP402      0.2570
     16  O2'      -55.0570   22.9770  -21.2290 O.3   402  ADP402     -0.2130
     17  C1'      -53.8910   20.9040  -21.3010 C.3   402  ADP402      0.3186
     18  N9       -52.7130   20.3560  -22.0090 N.pl3 402  ADP402     -0.1439
     19  C8       -52.6750   19.2000  -22.6960 C.3   402  ADP402      0.3377
     20  N7       -51.4390   18.9900  -23.2210 N.2   402  ADP402     -0.2095
     21  C5       -50.6670   20.0360  -22.8680 C.2   402  ADP402      0.2526
     22  C6       -49.2630   20.4480  -23.0870 C.2   402  ADP402      0.4393
     23  N6       -48.4190   19.6770  -23.8120 N.pl3 402  ADP402      0.2180
     24  N1       -48.8520   21.6120  -22.5450 N.2   402  ADP402      0.0021
     25  C2       -49.6840   22.3860  -21.8270 C.3   402  ADP402      0.5254
     26  N3       -50.9730   22.0790  -21.5890 N.2   402  ADP402     -0.0055
     27  C4       -51.5130   20.9350  -22.0750 C.2   402  ADP402      0.3518
@<TRIPOS>BOND
     1     2     1    2
     2     6     5    2
     3     7     5    1
     4     1     3    1
     5     1     8    1
     6     1     4    1
     7     5     8    1
     8     5     9    1
     9    23    22    1
    10     9    10    1
    11    14    13    1
    12    20    21    2
    13    20    19    1
    14    22    21    1
    15    22    24    2
    16    13    15    1
    17    13    11    1
    18    21    27    1
    19    10    11    1
    20    19    18    1
    21    24    25    1
    22    15    17    1
    23    15    16    1
    24    27    18    1
    25    27    26    2
    26    18    17    1
    27    11    12    1
    28    25    26    1
    29    17    12    1
