@<TRIPOS>MOLECULE
3uqd_FBP_B_1.pdb
 20 20 0 0 0
SMALL
GASTEIGER

@<TRIPOS>ATOM
      1  P1       -57.1340   10.7020  -21.4610 P.3   401  FBP401      0.5328
      2  O1P      -58.1810   10.8170  -22.6340 O.2   401  FBP401     -0.2224
      3  O2P      -55.8810    9.9770  -21.8720 O.3   401  FBP401     -0.1145
      4  O3P      -56.7950   12.0850  -20.9580 O.3   401  FBP401     -0.1145
      5  O1       -57.9760    9.9760  -20.3340 O.3   401  FBP401     -0.2648
      6  C1       -57.3940    9.1510  -19.3470 C.3   401  FBP401      0.2152
      7  C2       -58.0710    7.8330  -19.1520 C.3   401  FBP401      0.2780
      8  O2       -59.3780    8.0730  -18.7120 O.3   401  FBP401     -0.1897
      9  C3       -57.3420    6.9190  -18.2790 C.3   401  FBP401      0.2408
     10  O3       -57.6590    7.1720  -16.9630 O.3   401  FBP401     -0.2149
     11  C4       -57.8320    5.6390  -18.7160 C.3   401  FBP401      0.2167
     12  O4       -56.8440    4.6800  -18.4740 O.3   401  FBP401     -0.2175
     13  C5       -58.0210    5.8120  -20.1430 C.3   401  FBP401      0.1808
     14  O5       -58.1450    7.2080  -20.3830 O.3   401  FBP401     -0.3255
     15  C6       -59.2460    5.1760  -20.6620 C.3   401  FBP401      0.1859
     16  O6       -59.4970    5.4340  -22.0200 O.3   401  FBP401     -0.2675
     17  P2       -60.8610    5.0560  -22.7190 P.3   401  FBP401      0.5327
     18  O4P      -60.9120    5.8140  -24.1100 O.2   401  FBP401     -0.2224
     19  O5P      -61.9830    5.6080  -21.8610 O.3   401  FBP401     -0.1145
     20  O6P      -60.9820    3.5580  -22.9200 O.3   401  FBP401     -0.1145
@<TRIPOS>BOND
     1    18    17    2
     2    20    17    1
     3    17    16    1
     4    17    19    1
     5     2     1    2
     6    16    15    1
     7     3     1    1
     8     1     4    1
     9     1     5    1
    10    15    13    1
    11    14    13    1
    12    14     7    1
    13     5     6    1
    14    13    11    1
    15     6     7    1
    16     7     8    1
    17     7     9    1
    18    11    12    1
    19    11     9    1
    20     9    10    1
