@<TRIPOS>MOLECULE
3uqd_ATP_A_1.pdb
 31 33 0 0 0
SMALL
GASTEIGER

@<TRIPOS>ATOM
      1  PG       -35.6720   25.0220  -34.4820 P.3   401  ATP401      0.5373
      2  O1G      -36.1180   24.6930  -35.9140 O.2   401  ATP401     -0.2221
      3  O2G      -34.3210   25.6340  -34.6360 O.3   401  ATP401     -0.1143
      4  O3G      -35.6300   23.7910  -33.6100 O.3   401  ATP401     -0.1143
      5  PB       -36.6540   26.6310  -32.4470 P.3   401  ATP401      0.2277
      6  O1B      -35.3770   27.5010  -32.2770 O.2   401  ATP401     -0.5168
      7  O2B      -36.6430   25.4600  -31.3980 O.3   401  ATP401     -0.4368
      8  O3B      -36.7100   26.0150  -33.9170 O.3   401  ATP401     -0.2258
      9  PA       -39.3690   26.9080  -32.0440 P.3   401  ATP401      0.2189
     10  O1A      -39.3170   25.4120  -31.8860 O.2   401  ATP401     -0.5170
     11  O2A      -40.0570   27.5520  -30.8390 O.3   401  ATP401     -0.4371
     12  O3A      -37.9650   27.4830  -32.2610 O.3   401  ATP401     -0.2700
     13  O5'      -40.2140   27.2100  -33.3830 O.3   401  ATP401     -0.3112
     14  C5'      -40.3760   28.5240  -33.7850 C.3   401  ATP401      0.1813
     15  C4'      -41.7010   28.9260  -34.2330 C.3   401  ATP401      0.1821
     16  O4'      -42.1880   27.9170  -35.1430 O.3   401  ATP401     -0.3135
     17  C3'      -42.6800   28.8990  -33.1400 C.3   401  ATP401      0.2184
     18  O3'      -42.6720   30.0740  -32.4290 O.3   401  ATP401     -0.2174
     19  C2'      -43.9350   28.7150  -33.8710 C.3   401  ATP401      0.2570
     20  O2'      -44.2870   29.8890  -34.4850 O.3   401  ATP401     -0.2130
     21  C1'      -43.5620   27.7200  -34.9010 C.3   401  ATP401      0.3186
     22  N9       -43.8100   26.3530  -34.4600 N.pl3 401  ATP401     -0.1439
     23  C8       -42.8730   25.5220  -33.9620 C.3   401  ATP401      0.3377
     24  N7       -43.4860   24.3610  -33.6490 N.2   401  ATP401     -0.2095
     25  C5       -44.7990   24.4560  -33.9450 C.2   401  ATP401      0.2526
     26  C6       -45.8860   23.5780  -33.8470 C.2   401  ATP401      0.4393
     27  N6       -45.7000   22.1870  -33.3070 N.pl3 401  ATP401      0.2180
     28  N1       -47.1020   24.0040  -34.2470 N.2   401  ATP401      0.0021
     29  C2       -47.2790   25.2400  -34.7390 C.3   401  ATP401      0.5254
     30  N3       -46.2560   26.0920  -34.8460 N.2   401  ATP401     -0.0055
     31  C4       -45.0180   25.7360  -34.4670 C.2   401  ATP401      0.3518
@<TRIPOS>BOND
     1     2     1    2
     2    16    21    1
     3    16    15    1
     4    21    22    1
     5    21    19    1
     6    30    29    1
     7    30    31    2
     8    29    28    1
     9     3     1    1
    10    20    19    1
    11     1     8    1
    12     1     4    1
    13    31    22    1
    14    31    25    1
    15    22    23    1
    16    28    26    2
    17    15    14    1
    18    15    17    1
    19    23    24    1
    20    25    26    1
    21    25    24    2
    22     8     5    1
    23    19    17    1
    24    26    27    1
    25    14    13    1
    26    13     9    1
    27    17    18    1
    28     5     6    2
    29     5    12    1
    30     5     7    1
    31    12     9    1
    32     9    10    2
    33     9    11    1
