@<TRIPOS>MOLECULE
3uqe_ATP_A_1.pdb
 31 33 0 0 0
SMALL
GASTEIGER

@<TRIPOS>ATOM
      1  PG        18.4300  -23.6340   -9.4020 P.3   401  ATP401      0.5373
      2  O1G       18.9250  -25.0390   -8.7020 O.3   401  ATP401     -0.1143
      3  O2G       19.5010  -23.1980  -10.5720 O.2   401  ATP401     -0.2221
      4  O3G       17.1090  -23.8110   -9.9870 O.3   401  ATP401     -0.1143
      5  PB        19.7260  -21.8040   -7.6460 P.3   401  ATP401      0.2277
      6  O1B       20.6740  -21.2890   -8.8900 O.2   401  ATP401     -0.5168
      7  O2B       20.4430  -22.8100   -6.8810 O.3   401  ATP401     -0.4368
      8  O3B       18.3440  -22.4570   -8.2540 O.3   401  ATP401     -0.2258
      9  PA        18.3420  -20.6860   -5.3780 P.3   401  ATP401      0.2189
     10  O1A       18.2590  -22.2580   -4.8950 O.2   401  ATP401     -0.5170
     11  O2A       18.8440  -19.8700   -4.2820 O.3   401  ATP401     -0.4371
     12  O3A       19.3500  -20.5250   -6.6750 O.3   401  ATP401     -0.2700
     13  O5'       16.8350  -20.1670   -5.8060 O.3   401  ATP401     -0.3112
     14  C5'       16.6720  -18.8720   -6.3210 C.3   401  ATP401      0.1813
     15  C4'       15.5720  -18.1470   -5.5330 C.3   401  ATP401      0.1821
     16  O4'       14.3700  -18.9730   -5.4710 O.3   401  ATP401     -0.3135
     17  C3'       15.9950  -17.9330   -4.0840 C.3   401  ATP401      0.2184
     18  O3'       16.7260  -16.7500   -3.9390 O.3   401  ATP401     -0.2174
     19  C2'       14.6760  -17.8280   -3.3790 C.3   401  ATP401      0.2570
     20  O2'       14.1380  -16.5430   -3.5190 O.3   401  ATP401     -0.2130
     21  C1'       13.8050  -18.8360   -4.1270 C.3   401  ATP401      0.3186
     22  N9        13.8990  -20.1000   -3.4130 N.pl3 401  ATP401     -0.1439
     23  C8        14.7830  -21.2490   -3.7600 C.3   401  ATP401      0.3377
     24  N7        14.5620  -22.2990   -2.7680 N.2   401  ATP401     -0.2095
     25  C5        13.5580  -21.8130   -1.8070 C.2   401  ATP401      0.2526
     26  C6        12.9400  -22.4460   -0.5870 C.2   401  ATP401      0.4393
     27  N6        13.3340  -23.7850   -0.1900 N.pl3 401  ATP401      0.2180
     28  N1        11.9510  -21.7130    0.1880 N.2   401  ATP401      0.0021
     29  C2        11.5440  -20.3280   -0.2260 C.3   401  ATP401      0.5254
     30  N3        12.1540  -19.7020   -1.4300 N.2   401  ATP401     -0.0055
     31  C4        13.1540  -20.4440   -2.2140 C.2   401  ATP401      0.3518
@<TRIPOS>BOND
     1     3     1    2
     2     4     1    1
     3     1     2    1
     4     1     8    1
     5     6     5    2
     6     8     5    1
     7     5     7    1
     8     5    12    1
     9    12     9    1
    10    14    13    1
    11    14    15    1
    12    13     9    1
    13    15    16    1
    14    15    17    1
    15    16    21    1
    16     9    10    2
    17     9    11    1
    18    21    22    1
    19    21    19    1
    20    17    18    1
    21    17    19    1
    22    23    22    1
    23    23    24    1
    24    20    19    1
    25    22    31    1
    26    24    25    2
    27    31    25    1
    28    31    30    2
    29    25    26    1
    30    30    29    1
    31    26    27    1
    32    26    28    2
    33    29    28    1
