@<TRIPOS>MOLECULE
3uqf_BK5_A_1.pdb
 26 29 0 0 0
SMALL
GASTEIGER

@<TRIPOS>ATOM
      1  N1       -11.1040  -35.5510    6.7100 N.2     1  BK51       -0.0027
      2  C2       -11.6440  -36.4310    5.8630 C.3     1  BK51        0.5248
      3  N3       -10.9050  -37.3660    5.2830 N.2     1  BK51       -0.0088
      4  C4        -9.5940  -37.4390    5.5450 C.2     1  BK51        0.3405
      5  C5        -8.9990  -36.5570    6.4290 C.3     1  BK51        0.2639
      6  C6        -9.8020  -35.5770    7.0230 C.2     1  BK51        0.4081
      7  CAA        0.0360  -34.6750   12.2290 C.3     1  BK51        0.0512
      8  CAB       -8.1180  -40.6190    4.6140 C.3     1  BK51        0.0532
      9  CAC       -8.4350  -38.9180    2.7560 C.3     1  BK51        0.0532
     10  NAD       -9.3200  -34.6630    7.8640 N.pl3   1  BK51        0.2118
     11  CAE       -4.4740  -35.2600   11.3640 C.ar    1  BK51        0.0369
     12  CAF       -5.4400  -36.0870    6.5020 C.ar    1  BK51        0.0013
     13  CAG       -5.5870  -35.7420   10.6590 C.ar    1  BK51        0.0031
     14  CAH       -4.3340  -35.6080    7.2080 C.ar    1  BK51        0.0001
     15  CAJ       -3.2750  -35.0030    9.2860 C.ar    1  BK51        0.0369
     16  CAK       -6.6520  -36.3460    8.5610 C.ar    1  BK51        0.0013
     17  CAL       -1.2350  -35.3880   11.7420 C.3     1  BK51        0.2055
     18  NAO       -7.5480  -37.9940    5.6310 N.2     1  BK51       -0.0914
     19  OAP       -2.2250  -34.4060   11.3630 O.3     1  BK51       -0.4755
     20  CAQ       -3.3110  -34.8920   10.6800 C.ar    1  BK51        0.1386
     21  CAR       -6.6040  -36.4370    7.1680 C.ar    1  BK51        0.0182
     22  CAT       -7.6590  -36.9530    6.4420 C.2     1  BK51        0.1226
     23  CAU       -4.3870  -35.4900    8.5910 C.ar    1  BK51        0.0030
     24  CAV       -5.5460  -35.8620    9.2700 C.ar    1  BK51        0.0002
     25  CAY       -8.8710  -39.3560    4.1680 C.3     1  BK51        0.1876
     26  NAZ       -8.6380  -38.2570    5.1280 N.pl3   1  BK51       -0.0839
@<TRIPOS>BOND
     1     9    25    1
     2    25     8    1
     3    25    26    1
     4    26     4    1
     5    26    18    1
     6     3     4    2
     7     3     2    1
     8     4     5    1
     9    18    22    2
    10     2     1    1
    11     5    22    1
    12     5     6    1
    13    22    21    1
    14    12    21   ar
    15    12    14   ar
    16     1     6    2
    17     6    10    1
    18    21    16   ar
    19    14    23   ar
    20    16    24   ar
    21    23    24   ar
    22    23    15   ar
    23    24    13   ar
    24    15    20   ar
    25    13    11   ar
    26    20    19    1
    27    20    11   ar
    28    19    17    1
    29    17     7    1
