@<TRIPOS>MOLECULE
3uqg_B5A_A_1.pdb
 17 19 0 0 0
SMALL
GASTEIGER

@<TRIPOS>ATOM
      1  CAF       -8.7940  -41.1780    2.9130 C.3     1  B5A1        0.0231
      2  CAD       -8.5290  -41.0960    1.3970 C.3     1  B5A1        0.0888
      3  NAL       -7.0710  -41.0770    1.1530 N.3     1  B5A1       -0.2180
      4  CAE       -6.4380  -39.8910    1.7700 C.3     1  B5A1        0.0888
      5  CAG       -6.6370  -39.9010    3.2960 C.3     1  B5A1        0.0231
      6  CAP       -8.1370  -39.9980    3.6580 C.3     1  B5A1        0.0522
      7  CAH       -8.3260  -40.1380    5.1780 C.3     1  B5A1        0.2317
      8  NAQ       -8.3680  -38.8230    5.8540 N.pl3   1  B5A1       -0.0796
      9  NAK       -7.3750  -38.2650    6.3230 N.2     1  B5A1       -0.0899
     10  CAC       -7.7190  -37.1010    6.8770 C.2     1  B5A1        0.1407
     11  C5        -9.0310  -36.9500    6.7140 C.3     1  B5A1        0.2652
     12  C4        -9.4620  -38.0850    6.0380 C.2     1  B5A1        0.3407
     13  N3       -10.7680  -38.2120    5.7150 N.2     1  B5A1       -0.0088
     14  C2       -11.6340  -37.2560    6.0540 C.3     1  B5A1        0.5248
     15  N1       -11.2580  -36.1520    6.7010 N.2     1  B5A1       -0.0027
     16  C6        -9.9650  -35.9600    7.0480 C.2     1  B5A1        0.4082
     17  NAA       -9.5920  -34.8450    7.6890 N.pl3   1  B5A1        0.2118
@<TRIPOS>BOND
     1     3     2    1
     2     3     4    1
     3     2     1    1
     4     4     5    1
     5     1     6    1
     6     5     6    1
     7     6     7    1
     8     7     8    1
     9    13    12    2
    10    13    14    1
    11     8    12    1
    12     8     9    1
    13    12    11    1
    14    14    15    1
    15     9    10    2
    16    15    16    2
    17    11    10    1
    18    11    16    1
    19    16    17    1
