@<TRIPOS>MOLECULE
3uqo_3YH_A_1.pdb
 33 36 0 0 0
SMALL
GASTEIGER

@<TRIPOS>ATOM
      1  N1       -14.4230   17.6050    1.3190 N.pl3 481  3YH481      0.2047
      2  C2       -15.1060   18.7310    1.3780 C.2   481  3YH481      0.4766
      3  N3       -15.9960   18.9670    0.5140 N.pl3 481  3YH481      0.2047
      4  C4       -14.8190   19.7260    2.4680 C.ar  481  3YH481      0.0975
      5  C5       -14.2030   19.3510    3.6590 C.ar  481  3YH481      0.0080
      6  C6       -13.9720   20.3070    4.6450 C.ar  481  3YH481      0.0003
      7  C7       -14.3520   21.6330    4.4420 C.ar  481  3YH481      0.0016
      8  C8       -14.9550   21.9840    3.2290 C.ar  481  3YH481      0.0213
      9  C9       -15.2000   21.0370    2.2600 C.ar  481  3YH481      0.0096
     10  C10      -15.4050   23.3650    2.9400 C.ar  481  3YH481      0.1275
     11  C11      -14.6150   24.4730    2.3020 C.ar  481  3YH481      0.1164
     12  C12      -13.1830   24.3720    1.8890 C.2   481  3YH481      0.2737
     13  O13      -12.4450   23.4870    2.3210 O.2   481  3YH481     -0.2678
     14  N14      -12.7370   25.3180    1.0520 N.am  481  3YH481     -0.1753
     15  C15      -11.4350   25.3680    0.6770 C.ar  481  3YH481      0.0737
     16  C16      -10.4300   25.5360    1.6290 C.ar  481  3YH481      0.0166
     17  C17       -9.0970   25.6010    1.2480 C.ar  481  3YH481      0.0014
     18  C18       -8.7700   25.5170   -0.1070 C.ar  481  3YH481      0.0014
     19  C19       -9.7730   25.3630   -1.0530 C.ar  481  3YH481      0.0014
     20  C20      -11.1000   25.2950   -0.6650 C.ar  481  3YH481      0.0166
     21  C21       -7.3620   25.5990   -0.5630 C.ar  481  3YH481      0.0187
     22  C22       -6.7930   24.4800   -1.1340 C.ar  481  3YH481      0.0013
     23  C23       -5.4810   24.4880   -1.5800 C.ar  481  3YH481      0.0001
     24  C24       -4.7360   25.6580   -1.4860 C.ar  481  3YH481      0.0014
     25  C25       -5.3180   26.7970   -0.9330 C.ar  481  3YH481      0.0200
     26  C26       -6.6230   26.7890   -0.4640 C.ar  481  3YH481      0.1250
     27  S27       -7.2140   28.1580    0.1480 S.O2  481  3YH481      0.0935
     28  O28       -8.4400   28.5140   -0.5150 O.2   481  3YH481     -0.1503
     29  O29       -6.2510   29.2170   -0.0400 O.2   481  3YH481     -0.1503
     30  N30       -7.4880   28.0700    1.7140 N.3   481  3YH481      0.0392
     31  N39      -16.6500   23.8470    3.1700 N.ar  481  3YH481     -0.0767
     32  O40      -16.6480   25.1230    2.7560 O.2   481  3YH481     -0.3500
     33  C41      -15.4620   25.5720    2.2250 C.ar  481  3YH481      0.2183
@<TRIPOS>BOND
     1    23    24   ar
     2    23    22   ar
     3    24    25   ar
     4    22    21   ar
     5    19    20   ar
     6    19    18   ar
     7    25    26   ar
     8    20    15   ar
     9    21    26   ar
    10    21    18    1
    11    28    27    2
    12    26    27    1
    13    18    17   ar
    14    29    27    2
    15    27    30    1
    16     3     2    2
    17    15    14    1
    18    15    16   ar
    19    14    12   am
    20    17    16   ar
    21     1     2    1
    22     2     4    1
    23    12    11    1
    24    12    13    2
    25    33    11   ar
    26    33    32   ar
    27     9     4   ar
    28     9     8   ar
    29    11    10   ar
    30     4     5   ar
    31    32    31   ar
    32    10    31   ar
    33    10     8    1
    34     8     7   ar
    35     5     6   ar
    36     7     6   ar
