@<TRIPOS>MOLECULE
3uqu_ZPX_A_1.pdb
 43 46 0 0 0
SMALL
GASTEIGER

@<TRIPOS>ATOM
      1  CAA       17.7320   19.7420    3.7640 C.3   394  ZPX394      0.0283
      2  CAB       26.0860   21.2340   -0.9790 C.3   394  ZPX394      0.1388
      3  CAC       25.8060   17.7260   -0.0600 C.3   394  ZPX394      0.1999
      4  OAD       20.6960   18.2040    1.4760 O.2   394  ZPX394     -0.2684
      5  OAE       22.3230   24.6560   -0.2660 O.2   394  ZPX394     -0.2684
      6  OAF       25.7000   18.9320    2.2910 O.2   394  ZPX394     -0.1542
      7  OAG       27.6490   19.5260    0.7460 O.2   394  ZPX394     -0.1542
      8  OAH       21.5540   26.2000    4.0850 O.3   394  ZPX394     -0.2191
      9  FAI       20.8150   17.1130    8.5710 F     394  ZPX394     -0.2042
     10  CAJ       17.2500   22.3520    0.2000 C.ar  394  ZPX394     -0.0000
     11  CAK       17.0060   22.6650    1.5810 C.ar  394  ZPX394     -0.0003
     12  CAL       18.1460   23.1700   -0.4850 C.ar  394  ZPX394     -0.0003
     13  CAM       22.8220   30.0800    0.1500 C.ar  394  ZPX394      0.0427
     14  CAN       23.4810   29.1160   -0.5380 C.ar  394  ZPX394      0.1217
     15  CAO       17.7010   23.7530    2.2720 C.ar  394  ZPX394     -0.0042
     16  CAP       18.8380   24.1870    0.1690 C.ar  394  ZPX394     -0.0042
     17  CAQ       20.0750   16.5950    6.4220 C.ar  394  ZPX394      0.0294
     18  CAR       20.4190   18.9900    7.1840 C.ar  394  ZPX394      0.0294
     19  CAS       19.6140   17.1720    5.2030 C.ar  394  ZPX394     -0.0003
     20  CAT       20.0620   19.4980    5.9540 C.ar  394  ZPX394     -0.0003
     21  CAU       22.5400   29.5140    1.3770 C.ar  394  ZPX394      0.0968
     22  CAV       21.4930   21.6510    1.3630 C.ar  394  ZPX394      0.0092
     23  CAW       23.1070   19.8380    1.0860 C.ar  394  ZPX394      0.0207
     24  CAX       23.7450   22.1650    0.4570 C.ar  394  ZPX394      0.0207
     25  CAY       19.3600   25.6940    2.2140 C.3   394  ZPX394      0.0507
     26  CAZ       22.9830   27.2020    2.4240 C.3   394  ZPX394      0.1620
     27  NBA       23.5190   27.9820    0.2230 N.ar  394  ZPX394     -0.1676
     28  NBB       20.0590   19.8490    2.9590 N.am  394  ZPX394     -0.1989
     29  NBC       21.4550   24.4850    1.8210 N.am  394  ZPX394     -0.2004
     30  CBD       20.8520   19.3270    2.0080 C.2   394  ZPX394      0.2651
     31  CBE       22.0860   23.9830    0.7260 C.2   394  ZPX394      0.2649
     32  CBF       20.4550   17.5440    7.3490 C.ar  394  ZPX394      0.1401
     33  CBG       18.5810   24.5190    1.5340 C.ar  394  ZPX394     -0.0204
     34  CBH       21.8580   20.3150    1.4920 C.ar  394  ZPX394      0.0565
     35  CBI       22.4220   22.5720    0.8690 C.ar  394  ZPX394      0.0565
     36  CBJ       19.5920   18.5580    4.9890 C.ar  394  ZPX394     -0.0024
     37  CBK       24.0560   20.8160    0.5780 C.ar  394  ZPX394      0.0688
     38  CBL       19.1220   18.9850    3.6300 C.3   394  ZPX394      0.1178
     39  CBM       21.5020   26.8610    2.8450 C.3   394  ZPX394      0.1963
     40  CBN       20.8660   25.8400    1.8030 C.3   394  ZPX394      0.1322
     41  NBO       25.3710   20.4770    0.1590 N.pl3 394  ZPX394     -0.1925
     42  NBP       22.9420   28.2220    1.3450 N.ar  394  ZPX394     -0.2467
     43  SBQ       26.1370   19.2100    0.9340 S.O2  394  ZPX394      0.0588
@<TRIPOS>BOND
     1     2    41    1
     2    14    13   ar
     3    14    27   ar
     4    12    16   ar
     5    12    10   ar
     6     5    31    2
     7     3    43    1
     8    13    21   ar
     9    41    37    1
    10    41    43    1
    11    16    33   ar
    12    10    11   ar
    13    27    42   ar
    14    24    37   ar
    15    24    35   ar
    16    37    23   ar
    17    31    35    1
    18    31    29   am
    19     7    43    2
    20    35    22   ar
    21    43     6    2
    22    23    34   ar
    23    42    21   ar
    24    42    26    1
    25    22    34   ar
    26     4    30    2
    27    34    30    1
    28    33    25    1
    29    33    15   ar
    30    11    15   ar
    31    40    29    1
    32    40    25    1
    33    40    39    1
    34    30    28   am
    35    26    39    1
    36    39     8    1
    37    28    38    1
    38    38     1    1
    39    38    36    1
    40    36    19   ar
    41    36    20   ar
    42    19    17   ar
    43    20    18   ar
    44    17    32   ar
    45    18    32   ar
    46    32     9    1
