@<TRIPOS>MOLECULE
3uqv_3YH_A_1.pdb
 33 36 0 0 0
SMALL
GASTEIGER

@<TRIPOS>ATOM
      1  N1         4.3080  -18.7320   -5.6830 N.pl3 481  3YH481      0.2047
      2  C2         4.8740  -19.8670   -5.2500 C.2   481  3YH481      0.4766
      3  N3         4.1380  -20.8230   -4.7000 N.pl3 481  3YH481      0.2047
      4  C4         6.2510  -20.0090   -5.3020 C.ar  481  3YH481      0.0975
      5  C5         6.9150  -21.1160   -4.7660 C.ar  481  3YH481      0.0080
      6  C6         8.3020  -21.2260   -4.8220 C.ar  481  3YH481      0.0003
      7  C7         9.0420  -20.2110   -5.4140 C.ar  481  3YH481      0.0016
      8  C8         8.3680  -19.1200   -5.9560 C.ar  481  3YH481      0.0213
      9  C9         6.9840  -19.0160   -5.8930 C.ar  481  3YH481      0.0096
     10  C10        9.0510  -18.0750   -6.5280 C.ar  481  3YH481      0.1275
     11  C11        9.5420  -17.9800   -7.8350 C.ar  481  3YH481      0.1164
     12  C12        9.4340  -19.0110   -8.9850 C.2   481  3YH481      0.2737
     13  O13        9.1280  -20.1960   -8.7830 O.2   481  3YH481     -0.2678
     14  N14        9.6490  -18.5470  -10.2190 N.am  481  3YH481     -0.1753
     15  C15        9.5690  -19.4400  -11.2300 C.ar  481  3YH481      0.0737
     16  C16        8.5350  -19.3090  -12.1600 C.ar  481  3YH481      0.0166
     17  C17        8.4250  -20.2130  -13.2050 C.ar  481  3YH481      0.0014
     18  C18        9.3470  -21.2660  -13.3530 C.ar  481  3YH481      0.0014
     19  C19       10.3810  -21.4010  -12.4040 C.ar  481  3YH481      0.0014
     20  C20       10.4860  -20.4960  -11.3520 C.ar  481  3YH481      0.0166
     21  C21        9.1370  -22.1600  -14.4270 C.ar  481  3YH481      0.0187
     22  C22        7.9650  -22.9050  -14.3430 C.ar  481  3YH481      0.0013
     23  C23        7.6080  -23.8100  -15.3460 C.ar  481  3YH481      0.0001
     24  C24        8.4310  -23.9780  -16.4600 C.ar  481  3YH481      0.0014
     25  C25        9.6050  -23.2370  -16.5650 C.ar  481  3YH481      0.0200
     26  C26        9.9610  -22.3280  -15.5630 C.ar  481  3YH481      0.1250
     27  S27       11.4600  -21.4660  -15.8660 S.O2  481  3YH481      0.0935
     28  O28       11.3860  -20.0810  -15.2990 O.2   481  3YH481     -0.1503
     29  O29       11.5810  -21.3890  -17.3460 O.2   481  3YH481     -0.1503
     30  N30       12.7640  -22.2970  -15.3020 N.3   481  3YH481      0.0392
     31  N39        9.3260  -16.9700   -5.8640 N.ar  481  3YH481     -0.0767
     32  O40       10.0270  -16.1300   -6.7220 O.2   481  3YH481     -0.3500
     33  C41       10.1370  -16.7940   -7.9420 C.ar  481  3YH481      0.2183
@<TRIPOS>BOND
     1    29    27    2
     2    25    24   ar
     3    25    26   ar
     4    24    23   ar
     5    27    26    1
     6    27    30    1
     7    27    28    2
     8    26    21   ar
     9    23    22   ar
    10    21    22   ar
    11    21    18    1
    12    18    17   ar
    13    18    19   ar
    14    17    16   ar
    15    19    20   ar
    16    16    15   ar
    17    20    15   ar
    18    15    14    1
    19    14    12   am
    20    12    13    2
    21    12    11    1
    22    33    11   ar
    23    33    32   ar
    24    11    10   ar
    25    32    31   ar
    26    10     8    1
    27    10    31   ar
    28     8     9   ar
    29     8     7   ar
    30     9     4   ar
    31     1     2    2
    32     7     6   ar
    33     4     2    1
    34     4     5   ar
    35     2     3    1
    36     6     5   ar
