@<TRIPOS>MOLECULE
3uqw_ZPY_A_1.pdb
 48 51 0 0 0
SMALL
GASTEIGER

@<TRIPOS>ATOM
      1  CAA       20.8000   34.3310   -0.0070 C.3   394  ZPY394      0.0513
      2  CAB       18.3660   20.2430    3.8210 C.3   394  ZPY394      0.0283
      3  CAC       26.6630   21.6950   -1.0460 C.3   394  ZPY394      0.1388
      4  CAD       26.5490   18.1820   -0.0070 C.3   394  ZPY394      0.1999
      5  OAE       21.4090   18.7420    1.4850 O.2   394  ZPY394     -0.2684
      6  OAF       23.0510   25.3800   -0.1000 O.2   394  ZPY394     -0.2684
      7  OAG       23.4470   32.7850   -0.7500 O.2   394  ZPY394     -0.2448
      8  OAH       26.4270   19.5900    2.3810 O.2   394  ZPY394     -0.1542
      9  OAI       28.3400   20.0820    0.8350 O.2   394  ZPY394     -0.1542
     10  OAJ       22.1370   26.9280    4.2860 O.3   394  ZPY394     -0.2191
     11  FAK       21.4070   17.4110    8.6520 F     394  ZPY394     -0.2042
     12  CAL       17.7900   23.0150    0.3500 C.ar  394  ZPY394     -0.0000
     13  CAM       17.6370   23.3310    1.7290 C.ar  394  ZPY394     -0.0003
     14  CAN       18.6530   23.8290   -0.4290 C.ar  394  ZPY394     -0.0003
     15  CAO       18.3290   24.4290    2.3120 C.ar  394  ZPY394     -0.0042
     16  CAP       19.3370   24.9090    0.1670 C.ar  394  ZPY394     -0.0042
     17  CAQ       20.9790   19.4570    7.2680 C.ar  394  ZPY394      0.0294
     18  CAR       20.6520   17.1170    6.4370 C.ar  394  ZPY394      0.0294
     19  CAS       20.5630   19.9630    6.0060 C.ar  394  ZPY394     -0.0003
     20  CAT       20.2390   17.6720    5.2050 C.ar  394  ZPY394     -0.0003
     21  CAU       23.8980   30.0690   -0.3580 C.ar  394  ZPY394      0.1281
     22  CAV       22.1490   22.2780    1.3900 C.ar  394  ZPY394      0.0092
     23  CAW       23.7190   20.4400    1.0260 C.ar  394  ZPY394      0.0207
     24  CAX       24.3460   22.8120    0.5060 C.ar  394  ZPY394      0.0207
     25  CAY       23.1400   30.2440    1.7400 C.ar  394  ZPY394      0.1032
     26  CAZ       21.8830   34.2360    1.1020 C.3   394  ZPY394      0.2089
     27  CBA       19.8540   26.4030    2.1530 C.3   394  ZPY394      0.0507
     28  CBB       23.5390   27.8790    2.5670 C.3   394  ZPY394      0.1620
     29  NBC       24.0030   28.8540    0.2560 N.ar  394  ZPY394     -0.1674
     30  NBD       20.7110   20.3320    2.9360 N.am  394  ZPY394     -0.1989
     31  NBE       22.0570   25.1850    1.9520 N.am  394  ZPY394     -0.2004
     32  OBF       22.3810   32.8820    1.3900 O.3   394  ZPY394     -0.4454
     33  CBG       21.4890   19.9110    1.9280 C.2   394  ZPY394      0.2651
     34  CBH       22.7530   24.6720    0.8800 C.2   394  ZPY394      0.2649
     35  CBI       23.0880   32.2220    0.3320 C.2   394  ZPY394      0.3443
     36  CBJ       21.0180   18.0180    7.4400 C.ar  394  ZPY394      0.1401
     37  CBK       19.1570   25.2640    1.5270 C.ar  394  ZPY394     -0.0204
     38  CBL       23.3760   30.9130    0.5610 C.ar  394  ZPY394      0.1151
     39  CBM       22.4480   20.8800    1.4480 C.ar  394  ZPY394      0.0565
     40  CBN       23.0730   23.2740    0.9370 C.ar  394  ZPY394      0.0565
     41  CBO       20.1890   19.0710    4.9460 C.ar  394  ZPY394     -0.0024
     42  CBP       24.6790   21.4100    0.5170 C.ar  394  ZPY394      0.0688
     43  CBQ       19.7290   19.4930    3.6450 C.3   394  ZPY394      0.1178
     44  CBR       22.0840   27.5240    2.9970 C.3   394  ZPY394      0.1963
     45  CBS       21.4440   26.5290    1.9370 C.3   394  ZPY394      0.1322
     46  NBT       25.9790   21.0410    0.1080 N.pl3 394  ZPY394     -0.1925
     47  NBU       23.5520   28.9670    1.5780 N.ar  394  ZPY394     -0.2465
     48  SBV       26.8430   19.7440    0.9450 S.O2  394  ZPY394      0.0588
@<TRIPOS>BOND
     1     3    46    1
     2     7    35    2
     3    14    16   ar
     4    14    12   ar
     5    21    29   ar
     6    21    38   ar
     7     6    34    2
     8     4    48    1
     9     1    26    1
    10    46    42    1
    11    46    48    1
    12    16    37   ar
    13    29    47   ar
    14    35    38    1
    15    35    32    1
    16    12    13   ar
    17    24    42   ar
    18    24    40   ar
    19    42    23   ar
    20    38    25   ar
    21     9    48    2
    22    34    40    1
    23    34    31   am
    24    40    22   ar
    25    48     8    2
    26    23    39   ar
    27    26    32    1
    28    22    39   ar
    29    39    33    1
    30     5    33    2
    31    37    27    1
    32    37    15   ar
    33    47    25   ar
    34    47    28    1
    35    13    15   ar
    36    33    30   am
    37    45    31    1
    38    45    27    1
    39    45    44    1
    40    28    44    1
    41    30    43    1
    42    44    10    1
    43    43     2    1
    44    43    41    1
    45    41    20   ar
    46    41    19   ar
    47    20    18   ar
    48    19    17   ar
    49    18    36   ar
    50    17    36   ar
    51    36    11    1
