@<TRIPOS>MOLECULE
3uqx_ZPZ_A_1.pdb
 46 49 0 0 0
SMALL
GASTEIGER

@<TRIPOS>ATOM
      1  CAS       19.6530   17.0600    5.2200 C.ar  401  ZPZ401     -0.0003
      2  CAQ       20.1510   16.6160    6.4820 C.ar  401  ZPZ401      0.0294
      3  CBG       20.3970   17.6020    7.4060 C.ar  401  ZPZ401      0.1401
      4  FAK       20.8470   17.1600    8.6100 F     401  ZPZ401     -0.2042
      5  CAR       20.3600   18.9840    7.2090 C.ar  401  ZPZ401      0.0294
      6  CAT       20.0380   19.4930    5.9910 C.ar  401  ZPZ401     -0.0003
      7  CBK       19.5970   18.4720    5.0460 C.ar  401  ZPZ401     -0.0024
      8  CBO       19.1580   18.9940    3.6700 C.3   401  ZPZ401      0.1178
      9  CAB       17.8050   19.7430    3.7910 C.3   401  ZPZ401      0.0283
     10  NBC       20.1120   19.8450    3.0050 N.am  401  ZPZ401     -0.1989
     11  CBE       20.8750   19.4050    1.9260 C.2   401  ZPZ401      0.2651
     12  OAE       20.7470   18.2440    1.4420 O.2   401  ZPZ401     -0.2684
     13  CBI       21.8820   20.3540    1.4690 C.ar  401  ZPZ401      0.0565
     14  CAU       21.5590   21.6920    1.3560 C.ar  401  ZPZ401      0.0092
     15  CAV       23.1300   19.7990    1.0620 C.ar  401  ZPZ401      0.0207
     16  CBL       24.0380   20.8720    0.6390 C.ar  401  ZPZ401      0.0688
     17  NBR       25.4300   20.4920    0.2090 N.pl3 401  ZPZ401     -0.1925
     18  CAC       26.0680   21.2730   -0.9140 C.3   401  ZPZ401      0.1388
     19  SBT       26.2060   19.2650    0.9210 S.O2  401  ZPZ401      0.0588
     20  CAD       25.8960   17.7700   -0.0150 C.3   401  ZPZ401      0.1999
     21  OAH       25.6740   19.0320    2.2370 O.2   401  ZPZ401     -0.1542
     22  OAG       27.6490   19.6590    0.8300 O.2   401  ZPZ401     -0.1542
     23  CAW       23.7880   22.2270    0.5060 C.ar  401  ZPZ401      0.0207
     24  CBJ       22.4740   22.6890    0.8980 C.ar  401  ZPZ401      0.0565
     25  CBF       22.1420   24.0720    0.8020 C.2   401  ZPZ401      0.2649
     26  OAF       22.4210   24.7690   -0.1340 O.2   401  ZPZ401     -0.2684
     27  NBD       21.4130   24.6240    1.9080 N.am  401  ZPZ401     -0.2004
     28  CBQ       20.8400   25.9150    1.8840 C.3   401  ZPZ401      0.1316
     29  CAY       19.3710   25.6800    2.2600 C.3   401  ZPZ401      0.0507
     30  CBH       18.6100   24.5570    1.5500 C.ar  401  ZPZ401     -0.0204
     31  CAO       17.7470   23.7710    2.3530 C.ar  401  ZPZ401     -0.0042
     32  CAM       17.0500   22.6460    1.6680 C.ar  401  ZPZ401     -0.0003
     33  CAL       17.2540   22.4140    0.2830 C.ar  401  ZPZ401     -0.0000
     34  CAN       18.1360   23.2240   -0.4560 C.ar  401  ZPZ401     -0.0003
     35  CAP       18.8850   24.2450    0.1320 C.ar  401  ZPZ401     -0.0042
     36  CBP       21.5110   26.8250    2.9700 C.3   401  ZPZ401      0.1898
     37  OAJ       21.5740   26.0590    4.1520 O.3   401  ZPZ401     -0.2197
     38  CAZ       22.9450   27.2570    2.4770 C.3   401  ZPZ401      0.1304
     39  NBS       22.8340   28.3650    1.5760 N.3   401  ZPZ401     -0.1606
     40  CAX       22.6510   29.6610    1.8410 C.3   401  ZPZ401      0.1407
     41  NBB       23.1500   28.2760    0.2670 N.pl3 401  ZPZ401     -0.0630
     42  NBA       23.1490   29.5050   -0.3200 N.2   401  ZPZ401     -0.1515
     43  CBM       22.7290   30.3210    0.6550 C.2   401  ZPZ401      0.1050
     44  CBN       22.7640   31.7580    0.5000 C.3   401  ZPZ401      0.1906
     45  CAA       22.0500   32.6470    1.4800 C.3   401  ZPZ401      0.0419
     46  OAI       22.9210   32.0470   -0.8890 O.3   401  ZPZ401     -0.2169
@<TRIPOS>BOND
     1    18    17    1
     2    46    44    1
     3    34    35   ar
     4    34    33   ar
     5    42    41    1
     6    42    43    2
     7    26    25    2
     8    20    19    1
     9    35    30   ar
    10    17    16    1
    11    17    19    1
    12    41    39    1
    13    33    32   ar
    14    44    43    1
    15    44    45    1
    16    23    16   ar
    17    23    24   ar
    18    16    15   ar
    19    43    40    1
    20    25    24    1
    21    25    27   am
    22    22    19    2
    23    24    14   ar
    24    19    21    2
    25    15    13   ar
    26    14    13   ar
    27    12    11    2
    28    13    11    1
    29    30    29    1
    30    30    31   ar
    31    39    40    1
    32    39    38    1
    33    32    31   ar
    34    28    27    1
    35    28    29    1
    36    28    36    1
    37    11    10   am
    38    38    36    1
    39    36    37    1
    40    10     8    1
    41     8     9    1
    42     8     7    1
    43     7     1   ar
    44     7     6   ar
    45     1     2   ar
    46     6     5   ar
    47     2     3   ar
    48     5     3   ar
    49     3     4    1
