@<TRIPOS>MOLECULE
3ur0_SVR_B_1.pdb
 26 27 0 0 0
SMALL
GASTEIGER

@<TRIPOS>ATOM
      1  C58      -50.0210   19.2320   32.8380 C.3   516  SVR516      0.0968
      2  C61      -49.2540   20.5330   33.1390 C.2   516  SVR516      0.2461
      3  O64      -48.6860   20.6740   34.2240 O.2   516  SVR516     -0.2730
      4  N63      -49.3030   21.4590   32.1560 N.am  516  SVR516     -0.1792
      5  C65      -48.6980   22.6730   32.1430 C.ar  516  SVR516      0.0747
      6  C67      -47.4000   22.7390   32.6600 C.ar  516  SVR516      0.0180
      7  C70      -46.6980   23.9350   32.6740 C.ar  516  SVR516      0.0202
      8  C71      -47.2700   25.0950   32.1560 C.ar  516  SVR516      0.1124
      9  S75      -46.3180   26.5950   32.2030 S.3   516  SVR516      0.0421
     10  O80      -44.8920   26.2820   32.5700 O.3   516  SVR516     -0.0650
     11  O81      -46.3290   27.2580   30.8510 O.3   516  SVR516     -0.0650
     12  O82      -46.8780   27.4650   33.1920 O.3   516  SVR516     -0.0650
     13  C66      -49.2940   23.8480   31.6000 C.ar  516  SVR516      0.0343
     14  C68      -48.5690   25.0570   31.6210 C.ar  516  SVR516      0.0214
     15  C72      -49.1360   26.2350   31.1050 C.ar  516  SVR516      0.0203
     16  C69      -50.5880   23.8990   31.0380 C.ar  516  SVR516      0.1149
     17  S73      -51.6740   22.5940   30.9090 S.3   516  SVR516      0.0421
     18  O77      -52.7820   23.0100   30.0980 O.3   516  SVR516     -0.0650
     19  O78      -50.9980   21.4170   30.2820 O.3   516  SVR516     -0.0650
     20  O79      -52.1540   22.2620   32.2940 O.3   516  SVR516     -0.0650
     21  C74      -51.1320   25.0680   30.5340 C.ar  516  SVR516      0.0378
     22  C76      -50.4240   26.2470   30.5620 C.ar  516  SVR516      0.1137
     23  S83      -51.2000   27.6810   29.8840 S.3   516  SVR516      0.0421
     24  O85      -52.3990   27.9920   30.6030 O.3   516  SVR516     -0.0650
     25  O86      -51.5230   27.3820   28.4490 O.3   516  SVR516     -0.0650
     26  O84      -50.2510   28.8430   29.9640 O.3   516  SVR516     -0.0650
@<TRIPOS>BOND
     1    25    23    1
     2    23    26    1
     3    23    22    1
     4    23    24    1
     5    18    17    1
     6    19    17    1
     7    21    22   ar
     8    21    16   ar
     9    22    15   ar
    10    11     9    1
    11    17    16    1
    12    17    20    1
    13    16    13   ar
    14    15    14   ar
    15    13    14   ar
    16    13     5   ar
    17    14     8   ar
    18     5     4    1
    19     5     6   ar
    20     8     9    1
    21     8     7   ar
    22     4     2   am
    23     9    10    1
    24     9    12    1
    25     6     7   ar
    26     1     2    1
    27     2     3    2
