@<TRIPOS>MOLECULE
3ur4_0BW_A_1.pdb
 28 30 0 0 0
SMALL
GASTEIGER

@<TRIPOS>ATOM
      1  CAO       37.2270    0.3620   10.4530 C.3   1000  0BW1000     0.1082
      2  CAM       38.2720    0.8570   11.4670 C.3   1000  0BW1000     0.0938
      3  NBA       37.7560    1.9330   12.3400 N.3   1000  0BW1000    -0.2686
      4  CAC       38.8580    2.3860   13.2070 C.3   1000  0BW1000     0.0897
      5  CAN       37.3080    3.0790   11.5380 C.3   1000  0BW1000     0.0938
      6  CAP       36.1320    2.6900   10.6650 C.3   1000  0BW1000     0.1082
      7  NBB       36.3770    1.4470    9.8750 N.pl3 1000  0BW1000    -0.3036
      8  CAZ       35.5690    1.1940    8.8110 C.ar  1000  0BW1000     0.0635
      9  CAJ       34.8820   -0.0340    8.8140 C.ar  1000  0BW1000     0.0161
     10  CAI       33.9880   -0.3820    7.7930 C.ar  1000  0BW1000     0.0078
     11  CAX       33.7480    0.5040    6.7360 C.ar  1000  0BW1000     0.0770
     12  CAU       32.8400    0.1870    5.7070 C.2   1000  0BW1000     0.3414
     13  OAE       32.5270    1.0180    4.8440 O.2   1000  0BW1000    -0.2449
     14  OAR       32.2760   -1.0530    5.7860 O.3   1000  0BW1000    -0.4413
     15  CAA       31.2450   -1.2620    4.7950 C.3   1000  0BW1000     0.2560
     16  CAL       34.4150    1.7320    6.7320 C.ar  1000  0BW1000     0.0243
     17  CAY       35.3020    2.0930    7.7530 C.ar  1000  0BW1000     0.0871
     18  NAQ       35.9370    3.2830    7.6750 N.am  1000  0BW1000    -0.1742
     19  CAT       35.2910    4.4380    7.9640 C.2   1000  0BW1000     0.2691
     20  OAD       34.1280    4.4840    8.3880 O.2   1000  0BW1000    -0.2680
     21  CAW       36.0210    5.6260    7.7590 C.ar  1000  0BW1000     0.0584
     22  CAK       36.9670    5.7540    6.7250 C.ar  1000  0BW1000     0.0415
     23  CAH       35.7800    6.7310    8.5840 C.ar  1000  0BW1000     0.0048
     24  CAF       36.4620    7.9350    8.4030 C.ar  1000  0BW1000     0.0033
     25  CAG       37.4030    8.0480    7.3800 C.ar  1000  0BW1000     0.0369
     26  CAV       37.6610    6.9660    6.5370 C.ar  1000  0BW1000     0.1389
     27  OAS       38.5990    7.1610    5.5570 O.3   1000  0BW1000    -0.4714
     28  CAB       38.8370    6.0910    4.6300 C.3   1000  0BW1000     0.2525
@<TRIPOS>BOND
     1    28    27    1
     2    15    14    1
     3    13    12    2
     4    27    26    1
     5    12    14    1
     6    12    11    1
     7    26    22   ar
     8    26    25   ar
     9    22    21   ar
    10    16    11   ar
    11    16    17   ar
    12    11    10   ar
    13    25    24   ar
    14    18    17    1
    15    18    19   am
    16    17     8   ar
    17    21    19    1
    18    21    23   ar
    19    10     9   ar
    20    19    20    2
    21    24    23   ar
    22     8     9   ar
    23     8     7    1
    24     7     1    1
    25     7     6    1
    26     1     2    1
    27     6     5    1
    28     2     3    1
    29     5     3    1
    30     3     4    1
