@<TRIPOS>MOLECULE
3ur9_K36_A_1.pdb
 23 23 0 0 0
SMALL
GASTEIGER

@<TRIPOS>ATOM
      1  C7       -23.0180  -20.6780   36.1800 C.3   203  K36203      0.2574
      2  O8       -22.3290  -21.5920   35.3260 O.3   203  K36203     -0.4294
      3  C9       -21.2430  -21.1160   34.5040 C.2   203  K36203      0.4216
      4  O10      -21.1030  -19.8990   34.3600 O.2   203  K36203     -0.2245
      5  N11      -20.4240  -22.0460   33.9220 N.am  203  K36203     -0.1611
      6  C12      -19.2690  -21.6330   33.1050 C.3   203  K36203      0.1761
      7  C17      -19.7460  -21.0130   31.8260 C.2   203  K36203      0.2614
      8  O18      -20.7350  -21.4520   31.2460 O.2   203  K36203     -0.2715
      9  C13      -18.3920  -22.8180   32.7030 C.3   203  K36203      0.0312
     10  C14      -17.8300  -23.5600   33.9060 C.3   203  K36203      0.0022
     11  C15      -17.1830  -24.8510   33.4220 C.3   203  K36203      0.0001
     12  C16      -16.8190  -22.7220   34.6610 C.3   203  K36203      0.0001
     13  N19      -19.0370  -19.9270   31.3240 N.am  203  K36203     -0.2030
     14  C20      -19.4460  -19.2110   30.1160 C.3   203  K36203      0.1293
     15  C21      -18.2490  -19.0270   29.1660 C.3   203  K36203      0.2036
     16  O22      -17.8140  -20.2860   28.6450 O.3   203  K36203     -0.2185
     17  C24      -20.0190  -17.8420   30.4270 C.3   203  K36203      0.0409
     18  C25      -21.2120  -17.9050   31.3670 C.3   203  K36203      0.1101
     19  C26      -22.4150  -18.6230   30.7400 C.3   203  K36203      0.0438
     20  C27      -23.6280  -17.8360   31.2290 C.3   203  K36203      0.1387
     21  N28      -23.1600  -16.4850   31.6250 N.2   203  K36203     -0.2063
     22  C29      -21.7830  -16.5490   31.5740 C.1   203  K36203      0.1250
     23  O30      -21.1070  -15.5430   31.6970 O.2   203  K36203     -0.2271
@<TRIPOS>BOND
     1    16    15    1
     2    15    14    1
     3    14    17    1
     4    14    13    1
     5    17    18    1
     6    19    20    1
     7    19    18    1
     8    20    21    1
     9     8     7    2
    10    13     7   am
    11    18    22    1
    12    22    21    2
    13    22    23    2
    14     7     6    1
    15     9     6    1
    16     9    10    1
    17     6     5    1
    18    11    10    1
    19    10    12    1
    20     5     3   am
    21     4     3    2
    22     3     2    1
    23     2     1    1
