@<TRIPOS>MOLECULE
3urg_MNB_A_1.pdb
 13 13 0 0 0
SMALL
GASTEIGER

@<TRIPOS>ATOM
      1  C6       -12.1840   12.9230   -2.4050 C.ar  401  MNB401      0.0152
      2  C1       -10.8510   12.7840   -2.1870 C.ar  401  MNB401      0.1027
      3  C2       -10.1620   11.6780   -2.7840 C.ar  401  MNB401      0.1492
      4  C3       -10.8880   10.7430   -3.5900 C.ar  401  MNB401      0.0248
      5  C4       -12.2680   10.8930   -3.8060 C.ar  401  MNB401      0.0087
      6  C5       -12.9160   11.9480   -3.2390 C.ar  401  MNB401      0.0360
      7  S5       -14.6320   12.1820   -3.5070 S.3   401  MNB401     -0.0507
      8  C10      -10.2120   13.8240   -1.3180 C.2   401  MNB401      0.3894
      9  O12       -9.0440   13.7640   -0.9990 O.co2 401  MNB401     -0.2405
     10  O11      -10.9860   14.8200   -0.7710 O.co2 401  MNB401     -0.2405
     11  N7        -8.7570   11.4180   -2.6280 N.pl3 401  MNB401      0.0579
     12  O9        -8.2420   10.3600   -3.1790 O.2   401  MNB401     -0.1261
     13  O8        -7.9720   12.2440   -2.0180 O.2   401  MNB401     -0.1261
@<TRIPOS>BOND
     1     5     4   ar
     2     5     6   ar
     3     4     3   ar
     4     7     6    1
     5     6     1   ar
     6    12    11    2
     7     3    11    1
     8     3     2   ar
     9    11    13    2
    10     1     2   ar
    11     2     8    1
    12     8     9   ar
    13     8    10   ar
