@<TRIPOS>MOLECULE
3urk_0CG_A_1.pdb
 12 11 0 0 0
SMALL
GASTEIGER

@<TRIPOS>ATOM
      1  O20      -25.7070    0.9960  -18.1190 O.2   318  0CG318     -0.2221
      2  P17      -26.0330    0.8510  -16.6690 P.3   318  0CG318      0.5373
      3  O18      -24.7980    0.7880  -15.8220 O.3   318  0CG318     -0.1143
      4  O19      -27.0870    1.8390  -16.1850 O.3   318  0CG318     -0.1143
      5  O16      -26.7620   -0.5930  -16.5670 O.3   318  0CG318     -0.2261
      6  P13      -26.2600   -2.0920  -16.3970 P.3   318  0CG318      0.2239
      7  O14      -27.3380   -2.9510  -16.9510 O.2   318  0CG318     -0.5169
      8  O15      -24.8950   -2.3050  -16.8670 O.3   318  0CG318     -0.4370
      9  O29      -26.1560   -2.3210  -14.8320 O.3   318  0CG318     -0.2993
     10  C28      -27.0870   -1.9760  -13.7680 C.3   318  0CG318      0.2253
     11  C27      -28.4590   -1.7110  -14.1630 C.1   318  0CG318     -0.0449
     12  C30      -29.6470   -1.4760  -14.5110 C.1   318  0CG318     -0.0116
@<TRIPOS>BOND
     1     1     2    2
     2     7     6    2
     3     8     6    1
     4     2     5    1
     5     2     4    1
     6     2     3    1
     7     5     6    1
     8     6     9    1
     9     9    10    1
    10    12    11    3
    11    11    10    1
