@<TRIPOS>MOLECULE
3urm_GAL_A_1.pdb
 12 12 0 0 0
SMALL
GASTEIGER

@<TRIPOS>ATOM
      1  C1       -45.2060   46.1980   -8.8720 C.3   331  GAL331      0.3024
      2  C2       -45.4670   47.6740   -8.6060 C.3   331  GAL331      0.2434
      3  C3       -44.9340   48.4540   -9.7950 C.3   331  GAL331      0.2199
      4  C4       -43.4600   48.1060  -10.0300 C.3   331  GAL331      0.2144
      5  C5       -43.1990   46.5980  -10.0000 C.3   331  GAL331      0.1836
      6  C6       -41.6910   46.2990   -9.9870 C.3   331  GAL331      0.2142
      7  O1       -45.7880   45.4050   -7.8760 O.3   331  GAL331     -0.1869
      8  O2       -46.8400   47.9640   -8.4860 O.3   331  GAL331     -0.2148
      9  O3       -45.1140   49.8320   -9.5410 O.3   331  GAL331     -0.2174
     10  O4       -42.6590   48.7550   -9.0690 O.3   331  GAL331     -0.2176
     11  O5       -43.8040   45.9990   -8.8640 O.3   331  GAL331     -0.3236
     12  O6       -41.1170   46.7350   -8.7740 O.3   331  GAL331     -0.2176
@<TRIPOS>BOND
     1     4     5    1
     2     4     3    1
     3     4    10    1
     4     5     6    1
     5     5    11    1
     6     6    12    1
     7     3     9    1
     8     3     2    1
     9     1    11    1
    10     1     2    1
    11     1     7    1
    12     2     8    1
