@<TRIPOS>MOLECULE
3urn_QMP_A_1.pdb
 11 11 0 0 0
SMALL
GASTEIGER

@<TRIPOS>ATOM
      1  CAG       13.4120   32.2290   35.8220 C.3   902  QMP902      0.0301
      2  CAE       14.8090   31.7650   36.2380 C.3   902  QMP902      0.0025
      3  CAD       15.5120   31.0780   35.0660 C.3   902  QMP902      0.0002
      4  CAF       14.6770   29.8960   34.5670 C.3   902  QMP902      0.0025
      5  CAH       13.2810   30.3680   34.1570 C.3   902  QMP902      0.0301
      6  CAJ       12.5710   31.0480   35.3300 C.3   902  QMP902      0.1240
      7  OAI       11.2960   31.5220   34.8910 O.3   902  QMP902     -0.2952
      8  PAK        9.9460   30.8360   35.4360 P.3   902  QMP902      0.3703
      9  CAA        8.6290   31.5410   34.4480 C.3   902  QMP902      0.1309
     10  OAC        9.9920   29.3590   35.3490 O.2   902  QMP902     -0.2555
     11  OAB        9.7240   31.3650   36.9410 O.3   902  QMP902     -0.1398
@<TRIPOS>BOND
     1     5     4    1
     2     5     6    1
     3     9     8    1
     4     4     3    1
     5     7     6    1
     6     7     8    1
     7     3     2    1
     8     6     1    1
     9    10     8    2
    10     8    11    1
    11     1     2    1
