@<TRIPOS>MOLECULE
3urp_PGP_A_1.pdb
 41 43 0 0 0
SMALL
GASTEIGER

@<TRIPOS>ATOM
      1  P1        46.5620   19.8010    0.7550 P.3   105  PGP105      0.2103
      2  O4P       45.7420   19.4720   -0.4870 O.2   105  PGP105     -0.5173
      3  O5P       47.7620   18.8350    0.9660 O.3   105  PGP105     -0.3436
      4  O6P       47.1070   21.2450    0.7610 O.3   105  PGP105     -0.4374
      5  P         48.8660   18.3090    5.1630 P.3   105  PGP105      0.2100
      6  OP1       48.7840   16.8310    5.0590 O.3   105  PGP105     -0.4374
      7  OP2       49.7990   18.7900    6.2980 O.3   105  PGP105     -0.3436
      8  OP3       49.3030   18.9630    3.8390 O.2   105  PGP105     -0.5173
      9  O5'       47.4240   18.9200    5.4900 O.3   105  PGP105     -0.3249
     10  C5'       46.1400   18.4820    5.0090 C.3   105  PGP105      0.0836
     11  C4'       45.3670   19.6730    4.5030 C.3   105  PGP105      0.1137
     12  O4'       45.3230   20.7010    5.5150 O.3   105  PGP105     -0.3474
     13  C3'       45.9750   20.4070    3.3240 C.3   105  PGP105      0.1239
     14  O3'       45.6940   19.7010    2.0970 O.3   105  PGP105     -0.3188
     15  C2'       45.2310   21.7360    3.3790 C.3   105  PGP105      0.1273
     16  O2'       43.9140   21.6560    2.8440 O.3   105  PGP105     -0.3848
     17  C1'       45.1940   21.9690    4.8940 C.3   105  PGP105      0.1617
     18  N9        46.2980   22.8240    5.3330 N.pl3 105  PGP105     -0.2241
     19  C8        47.5520   22.4430    5.7290 C.2   105  PGP105      0.1451
     20  N7        48.3920   23.4430    5.8400 N.2   105  PGP105     -0.3865
     21  C5        47.6380   24.5550    5.5080 C.2   105  PGP105      0.2296
     22  C6        48.0000   25.9470    5.3770 C.2   105  PGP105      0.2859
     23  O6        49.0840   26.4690    5.6400 O.2   105  PGP105     -0.2668
     24  N1        46.9430   26.7180    4.9300 N.am  105  PGP105     -0.2418
     25  C2        45.6810   26.2510    4.6630 C.2   105  PGP105      0.2395
     26  N2        44.8180   27.1110    4.1230 N.pl3 105  PGP105     -0.3206
     27  N3        45.3180   24.9770    4.8240 N.2   105  PGP105     -0.3551
     28  C4        46.3390   24.1880    5.2150 C.2   105  PGP105      0.2272
     29 HOP5       48.3940   18.8810    1.7310 H     105  PGP105      0.2176
     30 HOP2       49.6990   19.6830    6.7220 H     105  PGP105      0.2176
     31  H5'       45.5970   17.9920    5.8160 H     105  PGP105      0.0591
     32 H5''       46.3260   17.7500    4.2250 H     105  PGP105      0.0591
     33  H4'       44.3380   19.3830    4.2960 H     105  PGP105      0.0647
     34  H3'       47.0470   20.5780    3.4090 H     105  PGP105      0.0655
     35  H2'       45.7800   22.5320    2.8780 H     105  PGP105      0.0663
     36 HO2'       44.0590   21.3950    1.8970 H     105  PGP105      0.2101
     37  H1'       44.2560   22.4010    5.2400 H     105  PGP105      0.0841
     38  H8        47.8310   21.4130    5.9430 H     105  PGP105      0.1149
     39  HN1       47.1630   27.6970    4.7880 H     105  PGP105      0.1589
     40 HN21       45.0930   28.0640    3.9110 H     105  PGP105      0.1459
     41 HN22       43.8580   26.8750    3.8920 H     105  PGP105      0.1459
@<TRIPOS>BOND
     1     2     1    2
     2     1     4    1
     3     1     3    1
     4     1    14    1
     5     3    29    1
     6    36    16    1
     7    14    13    1
     8    16    15    1
     9    35    15    1
    10    13    15    1
    11    13    34    1
    12    13    11    1
    13    15    17    1
    14     8     5    2
    15    41    26    1
    16    40    26    1
    17    26    25    1
    18    32    10    1
    19    33    11    1
    20    11    10    1
    21    11    12    1
    22    25    27    2
    23    25    24    1
    24    39    24    1
    25    27    28    2
    26    17    37    1
    27    17    18    1
    28    17    12    1
    29    24    22   am
    30    10     9    1
    31    10    31    1
    32     6     5    1
    33     5     9    1
    34     5     7    1
    35    28    18    1
    36    28    21    1
    37    18    19    1
    38    22    21    1
    39    22    23    2
    40    21    20    2
    41    19    20    2
    42    19    38    1
    43     7    30    1
