@<TRIPOS>MOLECULE
3urq_QMP_A_1.pdb
 11 11 0 0 0
SMALL
GASTEIGER

@<TRIPOS>ATOM
      1  CAG       30.0350   14.1790   10.2490 C.3   902  QMP902      0.0301
      2  CAE       31.0350   15.3320   10.3400 C.3   902  QMP902      0.0025
      3  CAD       31.4570   15.7850    8.9410 C.3   902  QMP902      0.0002
      4  CAF       32.0610   14.6210    8.1550 C.3   902  QMP902      0.0025
      5  CAH       31.0440   13.4810    8.0720 C.3   902  QMP902      0.0301
      6  CAJ       30.6470   13.0110    9.4730 C.3   902  QMP902      0.1240
      7  OAI       29.6820   11.9600    9.3890 O.3   902  QMP902     -0.2952
      8  PAK       29.8020   10.7870    8.2930 P.3   902  QMP902      0.3703
      9  CAA       30.2660    9.3210    9.2130 C.3   902  QMP902      0.1309
     10  OAC       31.0540   11.1220    7.3380 O.2   902  QMP902     -0.2555
     11  OAB       28.5480   10.6210    7.5250 O.3   902  QMP902     -0.1398
@<TRIPOS>BOND
     1    10     8    2
     2    11     8    1
     3     5     4    1
     4     5     6    1
     5     4     3    1
     6     8     9    1
     7     8     7    1
     8     3     2    1
     9     7     6    1
    10     6     1    1
    11     1     2    1
