@<TRIPOS>MOLECULE
3us7_GA3_A_1.pdb
 25 29 0 0 0
SMALL
GASTEIGER

@<TRIPOS>ATOM
      1  O71      -17.8130   -9.2540    0.9160 O.co2 201  GA3201     -0.2457
      2  C7       -18.7750   -9.1580    0.1310 C.2   201  GA3201      0.3645
      3  O72      -18.6480   -9.0370   -1.0990 O.co2 201  GA3201     -0.2457
      4  C6       -20.1850   -9.3080    0.6710 C.3   201  GA3201      0.1078
      5  C5       -21.2500   -8.4280   -0.0070 C.3   201  GA3201      0.0599
      6  C8       -20.7690  -10.7410    0.6740 C.3   201  GA3201      0.0200
      7  C15      -20.2270  -11.7140   -0.3850 C.3   201  GA3201      0.0251
      8  C16      -20.7690  -13.0170    0.1170 C.2   201  GA3201     -0.0171
      9  C17      -20.8140  -14.1150   -0.6020 C.2   201  GA3201     -0.0067
     10  C13      -21.1400  -12.8540    1.5800 C.3   201  GA3201      0.1417
     11  C14      -20.4390  -11.5330    1.9400 C.3   201  GA3201      0.0353
     12  O13      -20.7080  -13.9780    2.3630 O.3   201  GA3201     -0.2215
     13  C12      -22.6650  -12.7620    1.7530 C.3   201  GA3201      0.0345
     14  C11      -23.1380  -11.3350    1.4790 C.3   201  GA3201      0.0063
     15  C9       -22.2910  -10.5650    0.4630 C.3   201  GA3201      0.0378
     16  C10      -22.5750   -9.0770    0.4200 C.3   201  GA3201      0.1369
     17  O92      -22.7060   -8.4200    1.7500 O.3   201  GA3201     -0.4557
     18  C1       -23.7030   -8.5730   -0.4210 C.3   201  GA3201      0.0427
     19  C2       -23.7890   -7.2500   -0.4850 C.3   201  GA3201      0.0370
     20  C3       -22.5860   -6.3540   -0.3490 C.3   201  GA3201      0.1621
     21  O31      -22.1220   -6.1010   -1.6600 O.3   201  GA3201     -0.2226
     22  C4       -21.4660   -6.9850    0.5080 C.3   201  GA3201      0.1212
     23  C18      -20.2230   -6.0990    0.5870 C.3   201  GA3201      0.0138
     24  C19      -22.0230   -7.2560    1.8830 C.2   201  GA3201      0.3183
     25  O91      -22.2140   -6.6550    2.8830 O.2   201  GA3201     -0.2500
@<TRIPOS>BOND
     1    21    20    1
     2     3     2   ar
     3     9     8    2
     4    19    18    1
     5    19    20    1
     6    18    16    1
     7     7     8    1
     8     7     6    1
     9    20    22    1
    10     5    16    1
    11     5    22    1
    12     5     4    1
    13     8    10    1
    14     2     4    1
    15     2     1   ar
    16    16    15    1
    17    16    17    1
    18    15     6    1
    19    15    14    1
    20    22    23    1
    21    22    24    1
    22     4     6    1
    23     6    11    1
    24    14    13    1
    25    10    13    1
    26    10    11    1
    27    10    12    1
    28    17    24    1
    29    24    25    2
