@<TRIPOS>MOLECULE
3usb_IMP_A_1.pdb
 23 25 0 0 0
SMALL
GASTEIGER

@<TRIPOS>ATOM
      1  P         17.8270   14.8490  109.4500 P.3   500  IMP500      0.5327
      2  O1P       18.3380   14.3790  108.1150 O.2   500  IMP500     -0.2224
      3  O2P       17.1290   16.2020  109.5260 O.3   500  IMP500     -0.1145
      4  O3P       16.8230   13.8050  109.9170 O.3   500  IMP500     -0.1145
      5  O5'       18.9910   14.7680  110.5360 O.3   500  IMP500     -0.2675
      6  C5'       20.3540   14.7060  110.1350 C.3   500  IMP500      0.1860
      7  C4'       21.2530   14.3280  111.2820 C.3   500  IMP500      0.1823
      8  O4'       21.4560   12.8880  111.2870 O.3   500  IMP500     -0.3135
      9  C3'       22.6650   14.9120  111.2490 C.3   500  IMP500      0.2184
     10  O3'       22.7420   16.2320  111.7610 O.3   500  IMP500     -0.2174
     11  C2'       23.4720   13.8920  112.0480 C.3   500  IMP500      0.2570
     12  O2'       23.2820   14.0680  113.4430 O.3   500  IMP500     -0.2130
     13  C1'       22.7960   12.5870  111.6270 C.3   500  IMP500      0.3186
     14  N9        23.4610   11.9790  110.4570 N.pl3 500  IMP500     -0.1435
     15  C8        23.3040   12.3120  109.1330 C.3   500  IMP500      0.3382
     16  N7        24.1070   11.5180  108.3870 N.2   500  IMP500     -0.2054
     17  C5        24.7810   10.6800  109.2150 C.2   500  IMP500      0.2446
     18  C6        25.7230    9.6750  108.9810 C.1   500  IMP500      0.1792
     19  O6        26.3410    9.6630  107.9090 O.2   500  IMP500     -0.2203
     20  N1        26.2370    8.9740  110.0640 N.2   500  IMP500     -0.1458
     21  C2        25.8350    9.2650  111.3570 C.3   500  IMP500      0.4017
     22  N3        24.9060   10.2650  111.5730 N.2   500  IMP500     -0.0334
     23  C4        24.3890   10.9640  110.5220 C.2   500  IMP500      0.3528
@<TRIPOS>BOND
     1    19    18    2
     2     2     1    2
     3    16    15    1
     4    16    17    2
     5    18    17    1
     6    18    20    2
     7    15    14    1
     8    17    23    1
     9     1     3    1
    10     1     4    1
    11     1     5    1
    12    20    21    1
    13     6     5    1
    14     6     7    1
    15    14    23    1
    16    14    13    1
    17    23    22    2
    18     9     7    1
    19     9    10    1
    20     9    11    1
    21     7     8    1
    22     8    13    1
    23    21    22    1
    24    13    11    1
    25    11    12    1
