@<TRIPOS>MOLECULE
3usd_IDL_A_1.pdb
 13 14 0 0 0
SMALL
GASTEIGER

@<TRIPOS>ATOM
      1  C          7.3270   18.0280   18.6820 C.ar    5  IDL5        0.1248
      2  N1         7.7260   18.3110   19.9080 N.ar    5  IDL5       -0.2294
      3  C2         8.2940   18.2180   16.4320 C.3     5  IDL5        0.1330
      4  N2         8.4050   18.3880   17.7950 N.ar    5  IDL5       -0.3133
      5  O2        12.0470   21.3390   18.8720 O.co2   5  IDL5       -0.2452
      6  C3         7.1440   17.6570   15.9380 C.2     5  IDL5       -0.0059
      7  O3        10.2620   20.9940   20.0050 O.co2   5  IDL5       -0.2452
      8  C4         6.1190   17.2880   16.7710 C.2     5  IDL5       -0.0208
      9  C5         6.1960   17.4780   18.1320 C.3     5  IDL5        0.0896
     10  C7         9.4660   18.9390   18.6690 C.ar    5  IDL5        0.0689
     11  C8         8.9530   18.8530   19.9330 C.ar    5  IDL5        0.1134
     12  C17       10.8080   19.4870   18.2760 C.3     5  IDL5        0.1592
     13  C18       11.0570   20.6800   19.1170 C.2     5  IDL5        0.3708
@<TRIPOS>BOND
     1     6     3    1
     2     6     8    2
     3     3     4    1
     4     8     9    1
     5     4    10   ar
     6     4     1   ar
     7     9     1    1
     8    12    10    1
     9    12    13    1
    10    10    11   ar
    11     1     2   ar
    12     5    13   ar
    13    13     7   ar
    14     2    11   ar
