@<TRIPOS>MOLECULE
3usd_III_B_1.pdb
 44 44 0 0 0
SMALL
GASTEIGER

@<TRIPOS>ATOM
      1  N          4.0780    8.8610   31.9650 N.3   681  LEU681     -0.1231
      2  CA         4.7780   10.0900   32.4430 C.3   681  LEU681      0.1693
      3  C          6.1410    9.7560   33.0520 C.2   681  LEU681      0.2592
      4  O          6.6740    8.6800   32.7850 O.2   681  LEU681     -0.2718
      5  CB         3.9080   10.8470   33.4290 C.3   681  LEU681      0.0284
      6  CG         2.6640   11.4190   32.7520 C.3   681  LEU681      0.0019
      7  CD1        1.4690   10.4840   32.9390 C.3   681  LEU681      0.0001
      8  CD2        2.3710   12.7750   33.3440 C.3   681  LEU681      0.0001
      9  N          6.7030   10.6640   33.8560 N.am  682  GLU682     -0.1966
     10  CA         8.0580   10.5070   34.4220 C.3   682  GLU682      0.1733
     11  C          8.3940    9.4220   35.4370 C.2   682  GLU682      0.2616
     12  O          7.5120    8.8020   36.0280 O.2   682  GLU682     -0.2715
     13  CB         8.5520   11.8390   34.9960 C.3   682  GLU682      0.0429
     14  CG         8.3150   12.0780   36.4940 C.3   682  GLU682      0.1163
     15  CD         6.8400   12.2460   36.8760 C.2   682  GLU682      0.3649
     16  OE1        5.9990   12.4840   35.9820 O.co2 682  GLU682     -0.2457
     17  OE2        6.5180   12.1460   38.0830 O.co2 682  GLU682     -0.2457
     18  N          9.7030    9.2050   35.5940 N.am  683  ALA683     -0.1963
     19  CA        10.3280    8.2280   36.4920 C.3   683  ALA683      0.1728
     20  C         11.1590    7.2670   35.6640 C.2   683  ALA683      0.2616
     21  O         10.6460    6.6380   34.7360 O.2   683  ALA683     -0.2715
     22  CB         9.2980    7.4520   37.2870 C.3   683  ALA683      0.0334
     23  N         12.4430    7.1580   35.9940 N.am  684  CYS684     -0.1954
     24  CA        13.3170    6.2520   35.2600 C.3   684  CYS684      0.1843
     25  C         13.0290    4.7820   35.5550 C.2   684  CYS684      0.2625
     26  O         12.9620    4.3760   36.7110 O.2   684  CYS684     -0.2714
     27  CB        14.7740    6.5110   35.5700 C.3   684  CYS684      0.0997
     28  SG        15.7970    5.1940   34.8460 S.3   684  CYS684     -0.0797
     29  N         12.9000    3.9850   34.4940 N.am  685  ALA685     -0.1963
     30  CA        12.6070    2.5440   34.5900 C.3   685  ALA685      0.1728
     31  C         13.6520    1.6930   35.2920 C.2   685  ALA685      0.2616
     32  O         13.5130    0.4680   35.3740 O.2   685  ALA685     -0.2715
     33  CB        12.3830    1.9710   33.2190 C.3   685  ALA685      0.0334
     34  N         14.7040    2.3240   35.7780 N.am  686  PHE686     -0.1974
     35  CA        15.7320    1.5800   36.4580 C.3   686  PHE686      0.1639
     36  C         15.9580    2.3070   37.7620 C.2   686  PHE686      0.2290
     37  O         15.9320    1.6530   38.8250 O.2   686  PHE686     -0.2864
     38  CB        16.9990    1.5680   35.6130 C.3   686  PHE686      0.0560
     39  CG        16.8260    0.9220   34.2690 C.ar  686  PHE686     -0.0200
     40  CD1       16.5170   -0.4240   34.1760 C.ar  686  PHE686     -0.0042
     41  CD2       17.0100    1.6500   33.0980 C.ar  686  PHE686     -0.0042
     42  CE1       16.3980   -1.0500   32.9420 C.ar  686  PHE686     -0.0003
     43  CE2       16.8920    1.0330   31.8490 C.ar  686  PHE686     -0.0003
     44  CZ        16.5860   -0.3200   31.7720 C.ar  686  PHE686     -0.0000
@<TRIPOS>BOND
     1    44    43   ar
     2    44    42   ar
     3    43    41   ar
     4     1     2    1
     5     2     3    1
     6     2     5    1
     7     6     7    1
     8     6     8    1
     9     6     5    1
    10     4     3    2
    11    42    40   ar
    12     3     9   am
    13    41    39   ar
    14    33    30    1
    15     9    10    1
    16    40    39   ar
    17    39    38    1
    18    10    13    1
    19    10    11    1
    20    29    30    1
    21    29    25   am
    22    30    31    1
    23    21    20    2
    24    28    27    1
    25    13    14    1
    26    24    25    1
    27    24    27    1
    28    24    23    1
    29    31    32    2
    30    31    34   am
    31    11    18   am
    32    11    12    2
    33    25    26    2
    34    18    19    1
    35    38    35    1
    36    20    23   am
    37    20    19    1
    38    34    35    1
    39    16    15   ar
    40    35    36    1
    41    19    22    1
    42    14    15    1
    43    15    17   ar
    44    36    37    2
