@<TRIPOS>MOLECULE
3usf_PLR_A_1.pdb
 15 15 0 0 0
SMALL
GASTEIGER

@<TRIPOS>ATOM
      1  N1         4.4410   16.2710  -34.8300 N.ar  5000  PLR5000    -0.2452
      2  C2         4.3780   17.3220  -35.7020 C.ar  5000  PLR5000     0.0978
      3  C2A        3.6350   17.1650  -37.0250 C.3   5000  PLR5000     0.0555
      4  C3         5.0120   18.5030  -35.4010 C.ar  5000  PLR5000     0.2049
      5  O3         4.9260   19.5690  -36.2640 O.3   5000  PLR5000    -0.2857
      6  C4         5.7220   18.6260  -34.2280 C.ar  5000  PLR5000     0.0182
      7  C4A        6.5050   19.9140  -33.9540 C.3   5000  PLR5000     0.0342
      8  C5         5.7790   17.5560  -33.3450 C.ar  5000  PLR5000     0.0261
      9  C6         5.1370   16.3880  -33.6540 C.ar  5000  PLR5000     0.0965
     10  C5A        6.5490   17.6620  -32.0280 C.3   5000  PLR5000     0.1815
     11  O4P        5.7360   18.2570  -31.0110 O.3   5000  PLR5000    -0.2653
     12  P          6.4000   19.1470  -29.8410 P.3   5000  PLR5000     0.5329
     13  O1P        7.3160   20.1240  -30.4530 O.2   5000  PLR5000    -0.2224
     14  O2P        5.3080   19.6100  -28.9460 O.3   5000  PLR5000    -0.1145
     15  O3P        7.2880   18.0680  -29.0400 O.3   5000  PLR5000    -0.1145
@<TRIPOS>BOND
     1     3     2    1
     2     5     4    1
     3     2     4   ar
     4     2     1   ar
     5     4     6   ar
     6     1     9   ar
     7     6     7    1
     8     6     8   ar
     9     9     8   ar
    10     8    10    1
    11    10    11    1
    12    11    12    1
    13    13    12    2
    14    12    15    1
    15    12    14    1
