@<TRIPOS>MOLECULE
3usg_PC_A_1.pdb
 11 10 0 0 0
SMALL
GASTEIGER

@<TRIPOS>ATOM
      1  P1        31.6800   12.2000   44.1340 P.3   523  PC523       0.5325
      2  O1        32.6700   12.1750   45.2800 O.3   523  PC523      -0.1145
      3  O3        30.4230   12.9370   44.5470 O.3   523  PC523      -0.1145
      4  O4        32.2970   12.8910   42.9380 O.2   523  PC523      -0.2224
      5  O2        31.3260   10.7340   43.7050 O.3   523  PC523      -0.2725
      6  C1        30.8950    9.7900   44.6240 C.3   523  PC523       0.1317
      7  C2        30.1160    8.6420   44.0310 C.3   523  PC523      -0.0401
      8  N1        29.9070    7.4020   44.8000 N.4   523  PC523       0.3874
      9  C3        29.2750    6.3910   43.9540 C.3   523  PC523      -0.0959
     10  C4        29.0620    7.6790   45.9560 C.3   523  PC523      -0.0959
     11  C5        31.1920    6.8980   45.2690 C.3   523  PC523      -0.0959
@<TRIPOS>BOND
     1     4     1    2
     2     5     1    1
     3     5     6    1
     4     9     8    1
     5     7     6    1
     6     7     8    1
     7     1     3    1
     8     1     2    1
     9     8    11    1
    10     8    10    1
