@<TRIPOS>MOLECULE
3usl_PC_A_1.pdb
 11 10 0 0 0
SMALL
GASTEIGER

@<TRIPOS>ATOM
      1  P1        31.0150   11.4460   44.2360 P.3   521  PC521       0.5888
      2  O1        29.5820   11.9290   44.1910 O.3   521  PC521      -0.1039
      3  O3        31.5420   11.3050   42.8250 O.2   521  PC521      -0.2114
      4  O4        31.8740   12.4080   45.0210 O.3   521  PC521      -0.1039
      5  O2        31.0780   10.0530   44.9610 O.2   521  PC521      -0.3953
      6  C1        30.2670    9.0120   44.5380 C.2   521  PC521       0.1975
      7  C2        30.5410    7.6790   45.1680 C.2   521  PC521       0.0878
      8  N1        29.6340    6.5630   44.8670 N.pl3 521  PC521      -0.3478
      9  C3        29.9570    5.4070   45.7020 C.3   521  PC521       0.0961
     10  C4        29.7360    6.2030   43.4600 C.3   521  PC521       0.0961
     11  C5        28.2640    6.9810   45.1290 C.3   521  PC521       0.0961
@<TRIPOS>BOND
     1     3     1    2
     2    10     8    1
     3     2     1    1
     4     1     5    1
     5     1     4    1
     6     6     5    1
     7     6     7    2
     8     8    11    1
     9     8     7    1
    10     8     9    1
