@<TRIPOS>MOLECULE
3usm_PC_A_1.pdb
 11 10 0 0 0
SMALL
GASTEIGER

@<TRIPOS>ATOM
      1  P1        31.4530   10.1710   44.9900 P.3   520  PC520       0.5888
      2  O1        30.7920   10.7130   46.2270 O.3   520  PC520      -0.1039
      3  O3        30.6040   10.4050   43.7600 O.2   520  PC520      -0.2114
      4  O4        32.7830   10.8480   44.8140 O.3   520  PC520      -0.1039
      5  O2        31.7540    8.6490   45.2770 O.2   520  PC520      -0.3953
      6  C1        30.7640    7.6700   45.2660 C.2   520  PC520       0.1975
      7  C2        31.1860    6.2320   45.1930 C.2   520  PC520       0.0878
      8  N1        30.1500    5.2440   45.5130 N.pl3 520  PC520      -0.3478
      9  C3        30.5990    3.8760   45.2690 C.3   520  PC520       0.0961
     10  C4        28.9710    5.5170   44.7010 C.3   520  PC520       0.0961
     11  C5        29.7970    5.3690   46.9220 C.3   520  PC520       0.0961
@<TRIPOS>BOND
     1     3     1    2
     2    10     8    1
     3     4     1    1
     4     1     5    1
     5     1     2    1
     6     7     6    2
     7     7     8    1
     8     6     5    1
     9     9     8    1
    10     8    11    1
