@<TRIPOS>MOLECULE
3usn_ATT_A_1.pdb
 36 37 0 0 0
SMALL
GASTEIGER

@<TRIPOS>ATOM
      1  C1        -9.2880    1.7670    8.9730 C.3   174  ATT174      0.1047
      2  C2       -10.5160    0.9950    8.3530 C.2   174  ATT174      0.2335
      3  C3       -10.9470    2.5120    6.4320 C.3   174  ATT174      0.0001
      4  C7        -6.2210    5.0900   10.2810 C.ar  174  ATT174     -0.0615
      5  C8        -5.9830    4.7020   11.6090 C.ar  174  ATT174     -0.0617
      6  C9        -6.9470    3.9690   12.3020 C.ar  174  ATT174     -0.0615
      7  C10       -8.0910    3.5250   11.6450 C.ar  174  ATT174     -0.0585
      8  C11       -4.5840    1.8160    8.4670 C.2   174  ATT174      0.1969
      9  C12       -2.4420    1.6490    9.6280 C.1   174  ATT174      0.0441
     10  N3        -2.5110    2.6060    8.7050 N.2   174  ATT174     -0.0966
     11  N4        -3.7240    2.6660    8.1230 N.2   174  ATT174     -0.1167
     12  S1        -3.9280    0.7320    9.6790 S.3   174  ATT174      0.0109
     13  S2        -1.1010    1.3360   10.4720 S.2   174  ATT174      0.0199
     14  N         -5.8870    1.7870    7.8900 N.am  174  ATT174     -0.2466
     15  C         -6.9290    1.2530    8.4720 C.2   174  ATT174      0.3060
     16  O         -6.7550    0.5460    9.5000 O.2   174  ATT174     -0.2524
     17  N1        -8.1090    1.6510    8.0610 N.am  174  ATT174     -0.2875
     18  O1       -11.0390   -0.0030    8.8640 O.2   174  ATT174     -0.2738
     19  N2       -11.1900    1.2850    7.2560 N.am  174  ATT174     -0.3168
     20  C4        -9.4690    3.2280    9.4960 C.3   174  ATT174     -0.0006
     21  C5        -8.3130    3.8360   10.2990 C.ar  174  ATT174     -0.0451
     22  C6        -7.3970    4.6430    9.6470 C.ar  174  ATT174     -0.0585
     23  H1        -9.0760    1.1720    9.8790 H     174  ATT174      0.0598
     24  H31      -11.4060    2.3860    5.4710 H     174  ATT174      0.0426
     25  H32       -9.9350    2.8320    6.3070 H     174  ATT174      0.0426
     26  H33      -11.4920    3.3390    6.8950 H     174  ATT174      0.0426
     27  H7        -5.5060    5.6640    9.7460 H     174  ATT174      0.0618
     28  H8        -5.0910    4.9950   12.1140 H     174  ATT174      0.0618
     29  H9        -6.7910    3.7600   13.3270 H     174  ATT174      0.0618
     30  H10       -8.7830    2.8930   12.1290 H     174  ATT174      0.0620
     31  HN        -6.0350    2.4030    7.0780 H     174  ATT174      0.1584
     32  HN1       -8.0480    2.2040    7.1780 H     174  ATT174      0.1510
     33  HN2      -11.9810    0.6480    7.1040 H     174  ATT174      0.1484
     34  H41       -9.7620    3.8290    8.6220 H     174  ATT174      0.0336
     35  H42      -10.3610    3.2590   10.1560 H     174  ATT174      0.0336
     36  H6        -7.5250    4.7720    8.6020 H     174  ATT174      0.0620
@<TRIPOS>BOND
     1    24     3    1
     2    25     3    1
     3     3    26    1
     4     3    19    1
     5    31    14    1
     6    33    19    1
     7    32    17    1
     8    19     2   am
     9    14     8    1
    10    14    15   am
    11    17    15   am
    12    17     1    1
    13    11     8    2
    14    11    10    1
    15     2    18    2
    16     2     1    1
    17     8    12    1
    18    15    16    2
    19    36    22    1
    20    34    20    1
    21    10     9    2
    22     1    20    1
    23     1    23    1
    24    20    35    1
    25    20    21    1
    26     9    12    1
    27     9    13    2
    28    22     4   ar
    29    22    21   ar
    30    27     4    1
    31     4     5   ar
    32    21     7   ar
    33     5    28    1
    34     5     6   ar
    35     7    30    1
    36     7     6   ar
    37     6    29    1
