@<TRIPOS>MOLECULE
3usp_05L_A_1.pdb
 19 19 0 0 0
SMALL
GASTEIGER

@<TRIPOS>ATOM
      1 SE         51.9830   19.6900   32.5010 Se    520  05L520      0.0000
      2  C1        52.5620   18.5410   31.0140 C.3   520  05L520      0.0000
      3  C2        52.9560   17.2480   31.7350 C.3   520  05L520      0.0000
      4  O2        54.3190   17.3700   32.1140 O.3   520  05L520      0.0000
      5  C3        52.8550   16.0640   30.7600 C.3   520  05L520      0.0000
      6  O3        53.0220   14.8450   31.4540 O.3   520  05L520      0.0000
      7  C4        51.4440   16.1100   30.1650 C.3   520  05L520      0.0000
      8  O4        51.1870   14.9330   29.4320 O.3   520  05L520      0.0000
      9  C5        51.4250   17.3470   29.2580 C.3   520  05L520      0.0000
     10  O5        51.4740   18.5060   30.1090 O.3   520  05L520      0.0000
     11  C6        50.1540   17.4490   28.4100 C.3   520  05L520      0.0000
     12  O6        49.2620   16.4270   28.8110 O.3   520  05L520      0.0000
     13  C1'       50.0630   19.7680   32.1380 C.3   520  05L520      0.0000
     14  C2'       49.6650   21.1250   32.6200 C.3   520  05L520      0.0000
     15  C3'       48.4180   20.9870   33.4570 C.3   520  05L520      0.0000
     16  C4'       47.8540   22.3490   33.7760 C.3   520  05L520      0.0000
     17  C5'       46.3550   22.2660   33.6520 C.3   520  05L520      0.0000
     18  C6'       45.7080   22.8120   34.9060 C.3   520  05L520      0.0000
     19  C7'       44.3100   23.2210   34.5400 C.3   520  05L520      0.0000
@<TRIPOS>BOND
     1    11    12    1
     2    11     9    1
     3     9    10    1
     4     9     7    1
     5     8     7    1
     6    10     2    1
     7     7     5    1
     8     5     6    1
     9     5     3    1
    10     2     3    1
    11     2     1    1
    12     3     4    1
    13    13     1    1
    14    13    14    1
    15    14    15    1
    16    15    16    1
    17    17    16    1
    18    17    18    1
    19    19    18    1
