@<TRIPOS>MOLECULE
3usx_MYR_B_1.pdb
 16 15 0 0 0
SMALL
GASTEIGER

@<TRIPOS>ATOM
      1  C1       -34.3880  -17.6260  -41.0770 C.2   172  MYR172      0.3649
      2  O1       -33.7600  -18.1540  -40.1310 O.co2 172  MYR172     -0.2457
      3  O2       -33.8310  -16.6690  -41.6640 O.co2 172  MYR172     -0.2457
      4  C2       -35.7800  -18.0990  -41.4960 C.3   172  MYR172      0.1141
      5  C3       -36.0040  -19.6160  -41.3620 C.3   172  MYR172      0.0118
      6  C4       -36.3990  -20.3350  -42.6650 C.3   172  MYR172      0.0006
      7  C5       -36.2410  -21.8600  -42.5840 C.3   172  MYR172      0.0000
      8  C6       -34.9290  -22.3590  -43.1790 C.3   172  MYR172      0.0000
      9  C7       -33.7040  -21.8710  -42.3930 C.3   172  MYR172      0.0000
     10  C8       -32.9910  -22.9870  -41.6190 C.3   172  MYR172      0.0000
     11  C9       -33.4830  -23.0750  -40.1780 C.3   172  MYR172      0.0000
     12  C10      -33.5540  -24.5290  -39.7060 C.3   172  MYR172      0.0000
     13  C11      -34.9860  -24.9650  -39.3940 C.3   172  MYR172      0.0000
     14  C12      -35.0510  -26.4000  -38.8760 C.3   172  MYR172      0.0000
     15  C13      -36.1250  -27.2070  -39.6170 C.3   172  MYR172      0.0000
     16  C14      -37.3660  -27.4760  -38.7700 C.3   172  MYR172      0.0000
@<TRIPOS>BOND
     1     8     7    1
     2     8     9    1
     3     6     7    1
     4     6     5    1
     5     9    10    1
     6     3     1   ar
     7    10    11    1
     8     4     5    1
     9     4     1    1
    10     1     2   ar
    11    11    12    1
    12    12    13    1
    13    15    14    1
    14    15    16    1
    15    13    14    1
