@<TRIPOS>MOLECULE
3ut2_HEM_A_1.pdb
 43 50 0 0 0
SMALL
GASTEIGER

@<TRIPOS>ATOM
      1  CHA       44.7120   24.8840  -15.0570 C.2   1500  HEM1500     0.0000
      2  CHB       43.5470   23.6930  -19.6100 C.2   1500  HEM1500     0.0000
      3  CHC       39.0430   25.2400  -18.8540 C.2   1500  HEM1500     0.0000
      4  CHD       40.1070   26.2510  -14.2710 C.2   1500  HEM1500     0.0000
      5  C1A       44.7680   24.3590  -16.3250 C.ar  1500  HEM1500     0.0000
      6  C2A       45.8900   23.6570  -16.9080 C.ar  1500  HEM1500     0.0000
      7  C3A       45.5720   23.3460  -18.1670 C.ar  1500  HEM1500     0.0000
      8  C4A       44.2240   23.8260  -18.4160 C.ar  1500  HEM1500     0.0000
      9  CMA       46.4590   22.6050  -19.1840 C.3   1500  HEM1500     0.0000
     10  CAA       47.2300   23.3820  -16.2070 C.3   1500  HEM1500     0.0000
     11  CBA       47.2860   22.1350  -15.3450 C.3   1500  HEM1500     0.0000
     12  CGA       48.6410   22.1990  -14.6800 C.2   1500  HEM1500     0.0000
     13  O1A       49.6740   22.1280  -15.4010 O.co2 1500  HEM1500     0.0000
     14  O2A       48.6760   22.3620  -13.4340 O.co2 1500  HEM1500     0.0000
     15  C1B       42.2310   24.0250  -19.8310 C.2   1500  HEM1500     0.0000
     16  C2B       41.4930   23.8700  -21.0680 C.2   1500  HEM1500     0.0000
     17  C3B       40.2500   24.3090  -20.8590 C.2   1500  HEM1500     0.0000
     18  C4B       40.1560   24.7500  -19.4790 C.2   1500  HEM1500     0.0000
     19  CMB       42.0550   23.2910  -22.3750 C.3   1500  HEM1500     0.0000
     20  CAB       39.0820   24.3320  -21.8640 C.2   1500  HEM1500     0.0000
     21  CBB       39.2630   24.7160  -23.1290 C.2   1500  HEM1500     0.0000
     22  C1C       38.8990   25.5200  -17.5170 C.ar  1500  HEM1500     0.0000
     23  C2C       37.6550   25.7260  -16.8060 C.ar  1500  HEM1500     0.0000
     24  C3C       37.9610   26.0290  -15.5350 C.ar  1500  HEM1500     0.0000
     25  C4C       39.4080   25.9930  -15.4190 C.ar  1500  HEM1500     0.0000
     26  CMC       36.2600   25.6260  -17.4650 C.3   1500  HEM1500     0.0000
     27  CAC       37.0130   26.3290  -14.3610 C.2   1500  HEM1500     0.0000
     28  CBC       35.9890   27.1790  -14.4690 C.2   1500  HEM1500     0.0000
     29  C1D       41.4550   26.0820  -14.0640 C.2   1500  HEM1500     0.0000
     30  C2D       42.2040   26.5530  -12.9250 C.2   1500  HEM1500     0.0000
     31  C3D       43.6250   26.1220  -13.1830 C.2   1500  HEM1500     0.0000
     32  C4D       43.6180   25.4480  -14.4630 C.2   1500  HEM1500     0.0000
     33  CMD       41.6990   27.3210  -11.7060 C.3   1500  HEM1500     0.0000
     34  CAD       44.8300   26.3980  -12.2780 C.3   1500  HEM1500     0.0000
     35  CBD       45.2280   25.1730  -11.4600 C.3   1500  HEM1500     0.0000
     36  CGD       46.2720   25.5260  -10.4320 C.2   1500  HEM1500     0.0000
     37  O1D       46.9520   24.5750   -9.9730 O.co2 1500  HEM1500     0.0000
     38  O2D       46.4060   26.7350  -10.0760 O.co2 1500  HEM1500     0.0000
     39  NA        43.7680   24.4680  -17.2720 N.ar  1500  HEM1500     0.0000
     40  NB        41.4020   24.6150  -18.9120 N.2   1500  HEM1500     0.0000
     41  NC        39.9470   25.7090  -16.6590 N.ar  1500  HEM1500     0.0000
     42  ND        42.3250   25.5070  -14.9710 N.2   1500  HEM1500     0.0000
     43 FE         41.8850   25.1690  -16.9960 Fe    1500  HEM1500     0.0000
@<TRIPOS>BOND
     1    21    20    2
     2    19    16    1
     3    20    17    1
     4    16    17    2
     5    16    15    1
     6    17    18    1
     7    15     2    1
     8    15    40    2
     9     2     8    2
    10    18    40    1
    11    18     3    2
    12     9     7    1
    13    40    43    1
    14     3    22    1
    15     8     7   ar
    16     8    39   ar
    17     7     6   ar
    18    22    23   ar
    19    22    41   ar
    20    26    23    1
    21    39    43    1
    22    39     5   ar
    23    43    41    1
    24    43    42    1
    25     6     5   ar
    26     6    10    1
    27    23    24   ar
    28    41    25   ar
    29     5     1    2
    30    10    11    1
    31    24    25   ar
    32    24    27    1
    33    25     4    1
    34    13    12   ar
    35    11    12    1
    36     1    32    1
    37    42    32    2
    38    42    29    1
    39    12    14   ar
    40    28    27    2
    41    32    31    1
    42     4    29    2
    43    29    30    1
    44    31    30    2
    45    31    34    1
    46    30    33    1
    47    34    35    1
    48    35    36    1
    49    36    38   ar
    50    36    37   ar
