@<TRIPOS>MOLECULE
3ut3_EMJ_B_1.pdb
 21 21 0 0 0
SMALL
GASTEIGER

@<TRIPOS>ATOM
      1  C2        10.2070   27.3690   42.4680 C.2   401  EMJ401      0.2335
      2  C3        11.1890   28.3420   42.0890 C.2   401  EMJ401      0.0621
      3  C4        10.7900   29.3600   41.2390 C.2   401  EMJ401      0.2335
      4  C5         9.4930   29.4480   40.7510 C.2   401  EMJ401      0.2373
      5  C6         8.5500   28.5000   41.1230 C.2   401  EMJ401      0.0907
      6  C7         8.8990   27.4500   41.9860 C.2   401  EMJ401      0.2373
      7  O8         9.1540   30.3640   39.9660 O.2   401  EMJ401     -0.2830
      8  O9        10.4170   26.3930   43.2410 O.2   401  EMJ401     -0.2834
      9  O10       11.6860   30.3080   40.8850 O.2   401  EMJ401     -0.2834
     10  O11        7.9570   26.5080   42.3470 O.2   401  EMJ401     -0.2830
     11  C12       12.6550   28.3970   42.5720 C.3   401  EMJ401      0.0331
     12  C13       12.8390   27.3890   43.7220 C.3   401  EMJ401      0.0049
     13  C14       14.2130   27.2130   44.3890 C.3   401  EMJ401      0.0003
     14  C15       13.9630   26.7360   45.8500 C.3   401  EMJ401      0.0000
     15  C16       15.1900   26.2460   46.6480 C.3   401  EMJ401      0.0000
     16  C17       14.7460   25.2180   47.6900 C.3   401  EMJ401      0.0000
     17  C18       15.9190   24.6680   48.4960 C.3   401  EMJ401      0.0000
     18  C19       15.4420   24.1560   49.8620 C.3   401  EMJ401      0.0000
     19  C20       16.6300   23.6050   50.6720 C.3   401  EMJ401      0.0000
     20  C21       16.2410   23.0770   52.0670 C.3   401  EMJ401      0.0000
     21  C22       17.3410   22.2770   52.7550 C.3   401  EMJ401      0.0000
@<TRIPOS>BOND
     1     7     4    2
     2     4     5    1
     3     4     3    1
     4     9     3    1
     5     5     6    2
     6     3     2    2
     7     6    10    1
     8     6     1    1
     9     2     1    1
    10     2    11    1
    11     1     8    2
    12    11    12    1
    13    12    13    1
    14    13    14    1
    15    14    15    1
    16    15    16    1
    17    16    17    1
    18    17    18    1
    19    18    19    1
    20    19    20    1
    21    20    21    1
