@<TRIPOS>MOLECULE
3ut5_LOC_B_1.pdb
 29 31 0 0 0
SMALL
GASTEIGER

@<TRIPOS>ATOM
      1  O4        10.5140   53.4150   87.1710 O.2   502  LOC502     -0.2733
      2  C12        9.8680   52.7050   86.3830 C.2   502  LOC502      0.2421
      3  C13       10.4480   51.4140   85.8460 C.3   502  LOC502      0.0964
      4  N1         8.6390   52.9620   85.9350 N.am  502  LOC502     -0.2030
      5  C11        7.9020   54.1530   86.3340 C.3   502  LOC502      0.1146
      6  C14        7.5030   54.2980   87.6920 C.2   502  LOC502     -0.0139
      7  C15        7.0460   53.1140   88.2870 C.2   502  LOC502      0.0341
      8  C10        6.8170   54.6320   85.4030 C.3   502  LOC502      0.0305
      9  C9         6.5100   56.1420   85.5770 C.3   502  LOC502      0.0284
     10  C8         7.4430   56.9120   86.2670 C.ar  502  LOC502     -0.0194
     11  C7         7.7690   57.9920   85.4690 C.ar  502  LOC502      0.0357
     12  C5         8.7120   58.9220   85.9240 C.ar  502  LOC502      0.1751
     13  C3         9.3330   58.7270   87.2150 C.ar  502  LOC502      0.2057
     14  C1         9.0240   57.6200   88.0320 C.ar  502  LOC502      0.1717
     15  O1         9.6570   57.4890   89.2400 O.3   502  LOC502     -0.4686
     16  C2        10.6860   56.4990   89.2480 C.3   502  LOC502      0.2526
     17  O2        10.2120   59.6060   87.6890 O.3   502  LOC502     -0.4654
     18  C4         9.4280   60.4900   88.5110 C.3   502  LOC502      0.2528
     19  O3         9.0410   59.9900   85.1740 O.3   502  LOC502     -0.4683
     20  C6         8.3760   60.1510   83.9410 C.3   502  LOC502      0.2526
     21  C22        8.0390   56.6990   87.5750 C.ar  502  LOC502      0.0186
     22  C21        7.5910   55.5730   88.3040 C.3   502  LOC502      0.0666
     23  C20        7.2620   55.9770   89.6250 C.2   502  LOC502     -0.0196
     24  C19        6.7920   55.2350   90.6690 C.2   502  LOC502      0.0068
     25  C17        6.4750   53.8490   90.7120 C.3   502  LOC502      0.1981
     26  C16        6.5890   52.8870   89.6100 C.2   502  LOC502      0.2036
     27  O5         6.2680   51.7210   89.7730 O.2   502  LOC502     -0.2884
     28  O6         6.0210   53.3000   91.9050 O.3   502  LOC502     -0.3414
     29  C18        5.2380   54.0400   92.7590 C.3   502  LOC502      0.1751
@<TRIPOS>BOND
     1    20    19    1
     2    19    12    1
     3     8     9    1
     4     8     5    1
     5    11    12   ar
     6    11    10   ar
     7     9    10    1
     8     3     2    1
     9    12    13   ar
    10     4     5    1
    11     4     2   am
    12    10    21   ar
    13     5     6    1
    14     2     1    2
    15    13    17    1
    16    13    14   ar
    17    21    14   ar
    18    21    22    1
    19    17    18    1
    20     6     7    2
    21     6    22    1
    22    14    15    1
    23     7    26    1
    24    22    23    1
    25    15    16    1
    26    26    27    2
    27    26    25    1
    28    23    24    2
    29    24    25    1
    30    25    28    1
    31    28    29    1
