@<TRIPOS>MOLECULE
3ut5_GDP_B_1.pdb
 28 30 0 0 0
SMALL
GASTEIGER

@<TRIPOS>ATOM
      1  PB        -2.1440   85.9700   92.8240 P.3   501  GDP501      0.5373
      2  O1B       -1.2270   86.6850   91.8850 O.2   501  GDP501     -0.2221
      3  O2B       -2.3400   84.4670   92.3200 O.3   501  GDP501     -0.1143
      4  O3B       -3.6190   86.6530   92.8980 O.3   501  GDP501     -0.1143
      5  O3A       -1.5700   86.1110   94.3420 O.3   501  GDP501     -0.2261
      6  PA        -0.1730   85.3750   94.7640 P.3   501  GDP501      0.2231
      7  O1A        0.4470   84.5850   93.6330 O.2   501  GDP501     -0.5169
      8  O2A        0.9590   86.3590   95.3320 O.3   501  GDP501     -0.4370
      9  O5'       -0.6940   84.3500   95.9260 O.3   501  GDP501     -0.3111
     10  C5'       -0.3640   84.7610   97.2620 C.3   501  GDP501      0.1813
     11  C4'        0.1090   83.4850   97.9290 C.3   501  GDP501      0.1799
     12  O4'        1.2950   82.9940   97.2360 O.3   501  GDP501     -0.3326
     13  C3'        0.5480   83.6730   99.3860 C.3   501  GDP501      0.2158
     14  O3'        0.2860   82.4620  100.1420 O.3   501  GDP501     -0.2175
     15  C2'        2.0710   83.9690   99.2630 C.3   501  GDP501      0.2310
     16  O2'        2.8010   83.5950  100.4610 O.3   501  GDP501     -0.2158
     17  C1'        2.4540   83.0830   98.0700 C.3   501  GDP501      0.2293
     18  N9         3.4940   83.6280   97.2300 N.pl3 501  GDP501     -0.2354
     19  C8         3.5050   84.7860   96.5000 C.3   501  GDP501      0.2246
     20  N7         4.6290   84.8990   95.8300 N.2   501  GDP501     -0.2322
     21  C5         5.4210   83.8170   96.0890 C.2   501  GDP501      0.2182
     22  C6         6.7440   83.3300   95.6720 C.1   501  GDP501      0.2372
     23  O6         7.5070   83.9140   94.9100 O.2   501  GDP501     -0.2069
     24  N1         7.1500   82.1320   96.1950 N.2   501  GDP501     -0.2485
     25  C2         6.3730   81.3920   97.0790 C.1   501  GDP501      0.2531
     26  N2         6.8990   80.2090   97.5320 N.pl3 501  GDP501     -0.0226
     27  N3         5.1610   81.7970   97.4610 N.2   501  GDP501     -0.3074
     28  C4         4.6560   82.9850   96.9930 C.2   501  GDP501      0.2300
@<TRIPOS>BOND
     1     2     1    2
     2     3     1    1
     3     1     4    1
     4     1     5    1
     5     7     6    2
     6     5     6    1
     7     6     8    1
     8     6     9    1
     9    23    22    2
    10    22    21    1
    11    22    24    2
    12    20    21    2
    13    20    19    1
    14     9    10    1
    15    21    28    1
    16    24    25    2
    17    19    18    1
    18    28    18    1
    19    28    27    2
    20    25    27    2
    21    25    26    1
    22    18    17    1
    23    12    11    1
    24    12    17    1
    25    10    11    1
    26    11    13    1
    27    17    15    1
    28    15    13    1
    29    15    16    1
    30    13    14    1
