@<TRIPOS>MOLECULE
3ut5_GTP_A_1.pdb
 32 34 0 0 0
SMALL
GASTEIGER

@<TRIPOS>ATOM
      1  PG         4.0350   50.4190   77.2690 P.3   501  GTP501      0.5373
      2  O1G        3.0520   51.0280   76.3410 O.2   501  GTP501     -0.2221
      3  O2G        5.4250   51.1990   77.3370 O.3   501  GTP501     -0.1143
      4  O3G        3.4640   50.4420   78.7600 O.3   501  GTP501     -0.1143
      5  O3B        4.2630   48.8890   76.7090 O.3   501  GTP501     -0.2258
      6  PB         5.7650   48.2160   76.5430 P.3   501  GTP501      0.2277
      7  O1B        6.6010   48.8650   75.5040 O.2   501  GTP501     -0.5168
      8  O2B        5.4090   46.7170   76.1020 O.3   501  GTP501     -0.4368
      9  O3A        6.4900   48.3010   77.9960 O.3   501  GTP501     -0.2700
     10  PA         7.8380   47.4260   78.2380 P.3   501  GTP501      0.2189
     11  O1A        8.0880   46.3690   77.1980 O.2   501  GTP501     -0.5170
     12  O2A        9.1300   48.3820   78.2970 O.3   501  GTP501     -0.4371
     13  O5'        7.4930   46.7280   79.6790 O.3   501  GTP501     -0.3112
     14  C5'        8.4710   46.9080   80.6920 C.3   501  GTP501      0.1813
     15  C4'        8.6230   45.5760   81.3850 C.3   501  GTP501      0.1799
     16  O4'        9.3890   44.8080   80.4270 O.3   501  GTP501     -0.3326
     17  C3'        9.5040   45.5840   82.6390 C.3   501  GTP501      0.2158
     18  O3'        9.3800   44.3830   83.4030 O.3   501  GTP501     -0.2175
     19  C2'       10.9130   45.7410   82.0460 C.3   501  GTP501      0.2310
     20  O2'       11.9190   45.2520   82.9320 O.3   501  GTP501     -0.2158
     21  C1'       10.7890   44.8310   80.8280 C.3   501  GTP501      0.2293
     22  N9        11.5880   45.2620   79.6880 N.pl3 501  GTP501     -0.2354
     23  C8        11.4350   46.3930   78.9220 C.3   501  GTP501      0.2246
     24  N7        12.3420   46.3930   77.9850 N.2   501  GTP501     -0.2322
     25  C5        13.1360   45.2760   78.1270 C.2   501  GTP501      0.2182
     26  C6        14.2580   44.7160   77.4250 C.1   501  GTP501      0.2372
     27  O6        14.7420   45.2820   76.4820 O.2   501  GTP501     -0.2069
     28  N1        14.8030   43.5380   77.8770 N.2   501  GTP501     -0.2485
     29  C2        14.2640   42.8750   78.9720 C.1   501  GTP501      0.2531
     30  N2        14.8130   41.6800   79.3780 N.pl3 501  GTP501     -0.0226
     31  N3        13.2040   43.3790   79.6280 N.2   501  GTP501     -0.3074
     32  C4        12.6240   44.5390   79.2260 C.2   501  GTP501      0.2300
@<TRIPOS>BOND
     1     7     6    2
     2     8     6    1
     3     2     1    2
     4    27    26    2
     5     6     5    1
     6     6     9    1
     7     5     1    1
     8    11    10    2
     9     1     3    1
    10     1     4    1
    11    26    28    2
    12    26    25    1
    13    28    29    2
    14    24    25    2
    15    24    23    1
    16     9    10    1
    17    25    32    1
    18    10    12    1
    19    10    13    1
    20    23    22    1
    21    29    30    1
    22    29    31    2
    23    32    31    2
    24    32    22    1
    25    13    14    1
    26    22    21    1
    27    16    21    1
    28    16    15    1
    29    14    15    1
    30    21    19    1
    31    15    17    1
    32    19    17    1
    33    19    20    1
    34    17    18    1
