@<TRIPOS>MOLECULE
3ut5_III_F_1.pdb
 35 36 0 0 0
SMALL
GASTEIGER

@<TRIPOS>ATOM
      1  O1         8.8290   86.0640  104.5240 O.2     1  TYR1       -0.4729
      2  C5         8.6010   86.3730  105.9110 C.2     1  TYR1        0.1736
      3  C6         7.3030   86.6770  106.4580 C.2     1  TYR1        0.0207
      4  C7         9.6620   86.3950  106.8620 C.2     1  TYR1        0.2287
      5  O5        10.8440   86.1570  106.4970 O.2     1  TYR1       -0.2833
      6  C8         9.5310   86.6680  108.2240 C.2     1  TYR1        0.0410
      7  C9         8.2650   86.9770  108.7250 C.2     1  TYR1       -0.0160
      8  C10        7.1340   86.9850  107.8580 C.3     1  TYR1        0.0802
      9  C11        5.7520   87.3540  108.4430 C.3     1  TYR1        0.1916
     10  O8         5.5610   86.8880  109.8300 O.3     1  TYR1       -0.2197
     11  C12        5.7700   88.9460  108.4150 C.3     1  TYR1        0.2095
     12  N6         4.6480   89.5440  109.1760 N.3     1  TYR1       -0.1995
     13  C13        5.0150   90.9020  109.6230 C.3     1  TYR1        0.1088
     14  C14        6.1150   89.6730  107.0270 C.1     1  TYR1        0.1453
     15  O3         5.2510   89.7760  106.0810 O.2     1  TYR1       -0.2255
     16  N          7.4330   90.1440  106.9930 N.2     2  VAL2       -0.1889
     17  CA         8.1420   90.8570  105.9250 C.3     2  VAL2        0.2309
     18  C          9.2130   89.9720  105.2740 C.1     2  VAL2        0.2033
     19  O         10.3920   90.0120  105.6360 O.2     2  VAL2       -0.2122
     20  CB         8.7120   92.2200  106.3800 C.3     2  VAL2        0.0404
     21  CG1        9.0140   93.1080  105.1790 C.3     2  VAL2        0.0032
     22  CG2        7.7700   92.9170  107.3520 C.3     2  VAL2        0.0032
     23  C1         9.1980   84.8630  101.9140 C.3     3  THR3        0.0042
     24  C2         9.2400   86.3800  101.9960 C.3     3  THR3        0.0472
     25  C3         8.6580   86.9860  103.3080 C.3     3  THR3        0.1842
     26  C4         7.1240   87.2250  103.0480 C.3     3  THR3        0.0512
     27  N1         8.7280   89.2120  104.3220 N.2     3  THR3       -0.3311
     28  C19        9.5350   88.2700  103.5530 C.2     3  THR3        0.2120
     29  C20       10.5580   88.9320  102.5390 C.2     3  THR3        0.2952
     30  O6        11.7810   88.8210  102.8470 O.2     3  THR3       -0.2657
     31  N         10.0910   89.5580  101.4360 N.am    4  GLY4       -0.1874
     32  CA        10.9280   90.1910  100.4240 C.3     4  GLY4        0.2288
     33  C         11.3540   89.2300   99.3340 C.2     4  GLY4        0.3865
     34  O         12.4240   89.3850   98.7420 O.co2   4  GLY4       -0.2437
     35  OXT       10.7750   88.0670   99.1880 O.co2   4  GLY4       -0.2437
@<TRIPOS>BOND
     1    34    33   ar
     2    35    33   ar
     3    33    32    1
     4    32    31    1
     5    31    29   am
     6    23    24    1
     7    24    25    1
     8    29    30    2
     9    29    28    1
    10    26    25    1
    11    25    28    1
    12    25     1    1
    13    28    27    2
    14    27    18    2
    15     1     2    1
    16    21    20    1
    17    18    19    2
    18    18    17    1
    19     2     3    2
    20     2     4    1
    21    17    20    1
    22    17    16    1
    23    15    14    2
    24    20    22    1
    25     3     8    1
    26     5     4    2
    27     4     6    1
    28    16    14    2
    29    14    11    1
    30     8     9    1
    31     8     7    1
    32     6     7    2
    33    11     9    1
    34    11    12    1
    35     9    10    1
    36    12    13    1
