@<TRIPOS>MOLECULE
3ut6_FMC_A_1.pdb
 19 21 0 0 0
SMALL
GASTEIGER

@<TRIPOS>ATOM
      1  N1       -18.2540   71.1130   64.6160 N.2   300  FMC300     -0.0278
      2  C2       -17.3350   71.2320   65.6050 C.3   300  FMC300      0.3922
      3  N3       -17.1740   70.3540   66.6190 N.2   300  FMC300     -0.2155
      4  C4       -17.9920   69.2780   66.6770 C.2   300  FMC300      0.1251
      5  C5       -19.0180   69.0640   65.6390 C.2   300  FMC300      0.2111
      6  C6       -19.1190   70.0710   64.5680 C.2   300  FMC300      0.4334
      7  N6       -20.0560   69.9430   63.5810 N.pl3 300  FMC300      0.2178
      8  N7       -19.6750   67.9270   65.9300 N.2   300  FMC300     -0.1387
      9  N8       -19.1380   67.3530   67.1080 N.2   300  FMC300     -0.1480
     10  C9       -18.1240   68.1130   67.6010 C.2   300  FMC300      0.1291
     11  C1'      -17.3070   67.8950   68.8350 C.3   300  FMC300      0.1910
     12  C2'      -16.2190   68.9460   69.1420 C.3   300  FMC300      0.2173
     13  O2'      -14.9300   68.3670   69.1080 O.3   300  FMC300     -0.2173
     14  C3'      -16.6160   69.5040   70.5210 C.3   300  FMC300      0.2144
     15  O3'      -15.9180   68.8050   71.5520 O.3   300  FMC300     -0.2176
     16  C4'      -18.0950   69.1980   70.6190 C.3   300  FMC300      0.1814
     17  O4'      -18.3030   68.0030   69.8390 O.3   300  FMC300     -0.3446
     18  C5'      -19.0170   70.2810   70.1180 C.3   300  FMC300      0.2141
     19  O5'      -20.3590   69.8240   70.0270 O.3   300  FMC300     -0.2176
@<TRIPOS>BOND
     1     7     6    1
     2     6     1    2
     3     6     5    1
     4     1     2    1
     5     2     3    1
     6     5     8    2
     7     5     4    1
     8     8     9    1
     9     3     4    2
    10     4    10    1
    11     9    10    2
    12    10    11    1
    13    11    12    1
    14    11    17    1
    15    13    12    1
    16    12    14    1
    17    17    16    1
    18    19    18    1
    19    18    16    1
    20    14    16    1
    21    14    15    1
