@<TRIPOS>MOLECULE
3utc_0JX_A_1.pdb
 14 13 0 0 0
SMALL
GASTEIGER

@<TRIPOS>ATOM
      1  O20      -25.6800    0.7450  -18.5940 O.2   318  0JX318     -0.2221
      2  P17      -26.0500    0.6550  -17.1600 P.3   318  0JX318      0.5373
      3  O19      -27.3090    1.3490  -16.8460 O.3   318  0JX318     -0.1143
      4  O18      -24.9650    0.8550  -16.2210 O.3   318  0JX318     -0.1143
      5  O16      -26.6700   -0.7820  -16.9740 O.3   318  0JX318     -0.2261
      6  P13      -26.2180   -2.2450  -16.7780 P.3   318  0JX318      0.2230
      7  O15      -24.8220   -2.6290  -17.0980 O.3   318  0JX318     -0.4370
      8  O14      -27.3270   -2.8650  -17.5390 O.2   318  0JX318     -0.5169
      9  O29      -26.3210   -2.4830  -15.2690 O.3   318  0JX318     -0.3138
     10  C28      -27.5600   -2.6770  -14.5850 C.3   318  0JX318      0.1492
     11  C27      -28.4760   -1.5290  -14.8640 C.3   318  0JX318      0.0352
     12  C30      -28.3210   -0.4300  -13.9140 C.3   318  0JX318      0.0381
     13  C13      -29.4720    0.2820  -13.9220 C.3   318  0JX318      0.1822
     14  O33      -29.2690    1.2220  -12.9560 O.3   318  0JX318     -0.2204
@<TRIPOS>BOND
     1     1     2    2
     2     8     6    2
     3     2     5    1
     4     2     3    1
     5     2     4    1
     6     7     6    1
     7     5     6    1
     8     6     9    1
     9     9    10    1
    10    11    10    1
    11    11    12    1
    12    13    12    1
    13    13    14    1
