@<TRIPOS>MOLECULE
3utd_0CJ_A_1.pdb
 15 14 0 0 0
SMALL
GASTEIGER

@<TRIPOS>ATOM
      1  O25      -28.9690    1.7820  -14.5560 O.2   318  0CJ318     -0.2960
      2  C13      -29.1840    0.7780  -13.8300 C.2   318  0CJ318      0.1512
      3  C22      -30.5550    0.6440  -13.3030 C.3   318  0CJ318      0.0722
      4  C30      -28.1430   -0.2310  -13.5700 C.3   318  0CJ318      0.0671
      5  C27      -28.4140   -1.5800  -14.1840 C.3   318  0CJ318      0.0403
      6  C28      -27.2890   -2.5610  -14.1000 C.3   318  0CJ318      0.1496
      7  O29      -26.1060   -2.1840  -14.8460 O.3   318  0CJ318     -0.3138
      8  P13      -26.0840   -1.8700  -16.3670 P.3   318  0CJ318      0.2230
      9  O15      -24.6510   -2.1100  -16.7610 O.3   318  0CJ318     -0.4370
     10  O14      -27.0940   -2.7330  -16.9790 O.2   318  0CJ318     -0.5169
     11  O16      -26.6190   -0.3590  -16.5520 O.3   318  0CJ318     -0.2261
     12  P17      -25.7770    0.9620  -16.6280 P.3   318  0CJ318      0.5373
     13  O20      -25.4470    1.2230  -18.0930 O.2   318  0CJ318     -0.2221
     14  O18      -24.5370    0.9260  -15.7600 O.3   318  0CJ318     -0.1143
     15  O19      -26.6840    2.0340  -16.1190 O.3   318  0CJ318     -0.1143
@<TRIPOS>BOND
     1    13    12    2
     2    10     8    2
     3     9     8    1
     4    12    11    1
     5    12    15    1
     6    12    14    1
     7    11     8    1
     8     8     7    1
     9     7     6    1
    10     1     2    2
    11     5     6    1
    12     5     4    1
    13     2     4    1
    14     2     3    1
