@<TRIPOS>MOLECULE
3utg_UDP_A_1.pdb
 25 26 0 0 0
SMALL
GASTEIGER

@<TRIPOS>ATOM
      1  N1        67.5930   75.9830  173.3870 N.am  515  UDP515     -0.1766
      2  C2        66.8520   75.3690  174.4710 C.1   515  UDP515      0.2845
      3  N3        67.5140   74.4820  175.3710 N.2   515  UDP515     -0.2452
      4  C4        68.8860   74.1940  175.2080 C.1   515  UDP515      0.2182
      5  C5        69.6520   74.8230  174.0830 C.2   515  UDP515      0.1242
      6  C6        68.9980   75.6920  173.2020 C.2   515  UDP515      0.0929
      7  O2        65.6600   75.5970  174.5940 O.2   515  UDP515     -0.1918
      8  O4        69.4330   73.4230  175.9890 O.2   515  UDP515     -0.2085
      9  C1'       66.8880   76.8530  172.4850 C.3   515  UDP515      0.2401
     10  C2'       67.4490   78.2510  172.4370 C.3   515  UDP515      0.2319
     11  O2'       66.5220   79.1450  172.9170 O.3   515  UDP515     -0.2157
     12  C3'       67.7990   78.4730  171.0280 C.3   515  UDP515      0.2158
     13  C4'       67.0100   77.4300  170.2990 C.3   515  UDP515      0.1799
     14  O4'       66.9220   76.3310  171.1850 O.3   515  UDP515     -0.3320
     15  O3'       67.5380   79.7460  170.5420 O.3   515  UDP515     -0.2175
     16  C5'       67.6360   76.9550  168.9680 C.3   515  UDP515      0.1813
     17  O5'       69.0000   76.7490  169.1690 O.3   515  UDP515     -0.3111
     18  PA        69.8410   75.8280  168.2240 P.3   515  UDP515      0.2231
     19  O1A       71.3280   75.4660  168.6630 O.3   515  UDP515     -0.4370
     20  O2A       68.8310   74.6510  168.0020 O.2   515  UDP515     -0.5169
     21  O3A       69.5380   76.5240  166.8250 O.3   515  UDP515     -0.2261
     22  PB        70.4780   77.5640  166.1320 P.3   515  UDP515      0.5373
     23  O1B       71.6740   76.8620  165.5300 O.3   515  UDP515     -0.1143
     24  O2B       70.9380   78.6160  167.1100 O.3   515  UDP515     -0.1143
     25  O3B       69.6930   78.3200  165.0950 O.2   515  UDP515     -0.2221
@<TRIPOS>BOND
     1    25    22    2
     2    23    22    1
     3    22    21    1
     4    22    24    1
     5    21    18    1
     6    20    18    2
     7    18    19    1
     8    18    17    1
     9    16    17    1
    10    16    13    1
    11    13    12    1
    12    13    14    1
    13    15    12    1
    14    12    10    1
    15    14     9    1
    16    10     9    1
    17    10    11    1
    18     9     1    1
    19     6     1    1
    20     6     5    2
    21     1     2   am
    22     5     4    1
    23     2     7    2
    24     2     3    2
    25     4     3    2
    26     4     8    2
