@<TRIPOS>MOLECULE
3uth_GDU_A_1.pdb
 36 38 0 0 0
SMALL
GASTEIGER

@<TRIPOS>ATOM
      1  N1        67.9010   76.3010  174.2350 N.am  514  GDU514     -0.1766
      2  C2        67.1880   75.6770  175.3250 C.1   514  GDU514      0.2845
      3  N3        67.8880   74.8060  176.2150 N.2   514  GDU514     -0.2452
      4  C4        69.2580   74.5550  176.0300 C.1   514  GDU514      0.2182
      5  C5        69.9890   75.1910  174.9110 C.2   514  GDU514      0.1242
      6  C6        69.3050   76.0360  174.0330 C.2   514  GDU514      0.0929
      7  O2        65.9880   75.8890  175.5000 O.2   514  GDU514     -0.1918
      8  O4        69.8380   73.7830  176.7940 O.2   514  GDU514     -0.2085
      9  C1D       67.1960   77.1210  173.2860 C.3   514  GDU514      0.2401
     10  C2D       67.7290   78.5270  173.2660 C.3   514  GDU514      0.2319
     11  O2D       66.8510   79.4790  173.7690 O.3   514  GDU514     -0.2157
     12  C3D       68.0710   78.7060  171.8500 C.3   514  GDU514      0.2158
     13  C4D       67.3290   77.6050  171.1630 C.3   514  GDU514      0.1799
     14  O4D       67.3770   76.5510  172.0360 O.3   514  GDU514     -0.3320
     15  O3D       67.7700   79.9250  171.3370 O.3   514  GDU514     -0.2175
     16  C5D       67.9950   77.1970  169.8370 C.3   514  GDU514      0.1813
     17  O5D       69.3040   76.8640  170.1330 O.3   514  GDU514     -0.3112
     18  PA        70.1450   76.0400  169.1030 P.3   514  GDU514      0.2189
     19  O1A       71.6480   75.7300  169.4740 O.3   514  GDU514     -0.4371
     20  O2A       69.1920   74.8340  168.7690 O.2   514  GDU514     -0.5170
     21  O3A       69.7580   76.8320  167.7580 O.3   514  GDU514     -0.2703
     22  PB        70.8120   77.7070  166.9790 P.3   514  GDU514      0.2208
     23  O1B       71.5170   78.9060  167.7190 O.3   514  GDU514     -0.4371
     24  O2B       70.0190   78.0140  165.6460 O.2   514  GDU514     -0.5170
     25  O3B       71.7010   76.4410  166.4750 O.3   514  GDU514     -0.2857
     26  C1'       72.2640   76.1670  165.1980 C.3   514  GDU514      0.2742
     27  C2'       71.2550   75.6270  164.2350 C.3   514  GDU514      0.2409
     28  C3'       70.5160   74.5640  164.9730 C.3   514  GDU514      0.2198
     29  C4'       71.4830   73.4880  165.5230 C.3   514  GDU514      0.2144
     30  C5'       72.7800   74.0390  166.0510 C.3   514  GDU514      0.1835
     31  C6'       73.8300   72.9070  166.0880 C.3   514  GDU514      0.2142
     32  O2'       70.3930   76.5970  163.7400 O.3   514  GDU514     -0.2149
     33  O3'       69.5180   74.0030  164.1800 O.3   514  GDU514     -0.2174
     34  O4'       71.7350   72.5170  164.5610 O.3   514  GDU514     -0.2176
     35  O5'       73.2560   75.1860  165.3910 O.3   514  GDU514     -0.3254
     36  O6'       75.1310   73.3900  166.2170 O.3   514  GDU514     -0.2176
@<TRIPOS>BOND
     1    32    27    1
     2    33    28    1
     3    27    28    1
     4    27    26    1
     5    34    29    1
     6    28    29    1
     7    26    35    1
     8    26    25    1
     9    35    30    1
    10    29    30    1
    11    24    22    2
    12    30    31    1
    13    31    36    1
    14    25    22    1
    15    22    23    1
    16    22    21    1
    17    21    18    1
    18    20    18    2
    19    18    19    1
    20    18    17    1
    21    16    17    1
    22    16    13    1
    23    13    12    1
    24    13    14    1
    25    15    12    1
    26    12    10    1
    27    14     9    1
    28    10     9    1
    29    10    11    1
    30     9     1    1
    31     6     1    1
    32     6     5    2
    33     1     2   am
    34     5     4    1
    35     2     7    2
    36     2     3    2
    37     4     3    2
    38     4     8    2
