@<TRIPOS>MOLECULE
3utu_1TS_H_1.pdb
 47 50 0 0 0
SMALL
GASTEIGER

@<TRIPOS>ATOM
      1  S8        18.0850  -16.3870   24.9640 S.O2  901  1TS901      0.0773
      2 CL         20.8370  -12.1460   26.6850 Cl    901  1TS901     -0.0790
      3  C35       19.5510  -15.4720   24.9520 C.ar  901  1TS901      0.1246
      4  C10       23.9730  -13.3580   24.1640 C.3   901  1TS901      0.2525
      5  O9        22.9250  -13.0920   24.9790 O.3   901  1TS901     -0.4706
      6  C5        21.8130  -13.8370   24.8930 C.ar  901  1TS901      0.1492
      7  O1        18.4230  -17.3820   24.3800 O.2   901  1TS901     -0.1516
      8  O10       17.6440  -16.3220   26.0080 O.2   901  1TS901     -0.1516
      9  C7        20.5770  -15.7130   24.0780 C.ar  901  1TS901      0.0231
     10  C3        19.6800  -14.3240   25.7610 C.ar  901  1TS901      0.0344
     11  C6        21.7330  -14.9280   24.0610 C.ar  901  1TS901      0.0391
     12  C4        20.7550  -13.5930   25.6870 C.ar  901  1TS901      0.0928
     13  C13       17.6640  -13.9570   22.3680 C.2   901  1TS901      0.2442
     14  N11       17.1750  -15.7780   23.8350 N.3   901  1TS901     -0.0694
     15  O14       16.7870  -13.3640   22.8960 O.2   901  1TS901     -0.2733
     16  C15       14.7330  -19.3660   22.1860 C.3   901  1TS901      0.1415
     17  C31       14.2280  -19.6180   23.4990 C.ar  901  1TS901     -0.0005
     18  C32       13.0220  -20.1390   23.6580 C.ar  901  1TS901     -0.0019
     19  C33       12.5970  -20.3510   24.9050 C.ar  901  1TS901      0.0100
     20  C44       13.3220  -20.1100   26.0220 C.ar  901  1TS901      0.0684
     21  C8        14.5730  -19.5710   25.8720 C.ar  901  1TS901      0.0100
     22  C9        14.9450  -19.4300   24.6230 C.ar  901  1TS901     -0.0019
     23  C40       12.8160  -20.3110   27.1020 C.1   901  1TS901      0.1004
     24  N63       12.3340  -20.3620   28.0940 N.1   901  1TS901     -0.1908
     25  C45       17.6950  -15.5130   22.6230 C.3   901  1TS901      0.1827
     26  C12       16.8720  -16.1360   21.3880 C.3   901  1TS901      0.1154
     27  C46       16.5250  -17.6600   21.5310 C.2   901  1TS901      0.2437
     28  O22       17.3940  -18.3810   21.3740 O.2   901  1TS901     -0.2733
     29  N14       15.3170  -18.0060   21.9460 N.am  901  1TS901     -0.2005
     30  N15       18.5770  -13.4810   21.6180 N.am  901  1TS901     -0.2718
     31  C16       18.4480  -12.1770   21.1290 C.3   901  1TS901      0.1535
     32  C17       17.1200  -12.1720   20.2810 C.2   901  1TS901      0.2598
     33  O18       16.8440  -12.9880   19.4770 O.2   901  1TS901     -0.2715
     34  C34       19.5280  -12.0160   20.0730 C.3   901  1TS901      0.0310
     35  C1        20.3560  -13.2590   20.0790 C.3   901  1TS901      0.0237
     36  C2        19.6190  -14.2220   20.9120 C.3   901  1TS901      0.0939
     37  N19       16.3280  -11.0690   20.4540 N.am  901  1TS901     -0.1992
     38  C20       15.0790  -10.8690   19.7970 C.3   901  1TS901      0.1415
     39  C21       14.0190  -10.8830   20.8490 C.ar  901  1TS901     -0.0006
     40  C26       13.4110   -9.7610   21.3260 C.ar  901  1TS901     -0.0023
     41  C25       12.5010   -9.7550   22.2480 C.ar  901  1TS901      0.0077
     42  C24       12.0730  -10.8450   22.8530 C.ar  901  1TS901      0.0975
     43  C27       11.0670  -10.8660   23.8680 C.2   901  1TS901      0.4766
     44  N29       10.8020   -9.8930   24.4720 N.pl3 901  1TS901      0.2047
     45  N28       10.3980  -11.9280   24.1010 N.pl3 901  1TS901      0.2047
     46  C23       12.6730  -11.9760   22.4630 C.ar  901  1TS901      0.0077
     47  C22       13.5990  -11.9520   21.4950 C.ar  901  1TS901     -0.0023
@<TRIPOS>BOND
     1    33    32    2
     2    38    37    1
     3    38    39    1
     4    34    35    1
     5    34    31    1
     6    35    36    1
     7    32    37   am
     8    32    31    1
     9    39    40   ar
    10    39    47   ar
    11    36    30    1
    12    31    30    1
    13    40    41   ar
    14    28    27    2
    15    26    27    1
    16    26    25    1
    17    47    46   ar
    18    27    29   am
    19    30    13   am
    20    29    16    1
    21    16    17    1
    22    41    42   ar
    23    13    25    1
    24    13    15    2
    25    46    42   ar
    26    25    14    1
    27    42    43    1
    28    17    18   ar
    29    17    22   ar
    30    18    19   ar
    31    14     1    1
    32    43    45    2
    33    43    44    1
    34    11     9   ar
    35    11     6   ar
    36     9     3   ar
    37     4     5    1
    38     7     1    2
    39    22    21   ar
    40     6     5    1
    41     6    12   ar
    42    19    20   ar
    43     3     1    1
    44     3    10   ar
    45     1     8    2
    46    12    10   ar
    47    12     2    1
    48    21    20   ar
    49    20    23    1
    50    23    24    3
