@<TRIPOS>MOLECULE
3utv_RET_A_1.pdb
 20 20 0 0 0
SMALL
GASTEIGER

@<TRIPOS>ATOM
      1  C1       -26.8770  -10.5940   -2.9790 C.3   301  RET301      0.0183
      2  C2       -27.1910  -10.0720   -4.3060 C.3   301  RET301      0.0044
      3  C3       -27.9500   -8.7970   -4.2880 C.3   301  RET301      0.0047
      4  C4       -28.4560   -8.2000   -2.9730 C.3   301  RET301      0.0217
      5  C5       -27.7180   -8.6540   -1.7510 C.2   301  RET301     -0.0479
      6  C6       -26.9120   -9.7470   -1.7370 C.2   301  RET301     -0.0307
      7  C7       -26.2380  -10.1240   -0.4760 C.2   301  RET301     -0.0052
      8  C8       -25.3550  -11.1270   -0.3280 C.2   301  RET301     -0.0046
      9  C9       -24.6990  -11.4150    0.9560 C.2   301  RET301     -0.0219
     10  C10      -23.7240  -12.3720    0.9300 C.2   301  RET301     -0.0043
     11  C11      -22.9630  -12.7280    2.1100 C.2   301  RET301     -0.0007
     12  C12      -22.0490  -13.6770    1.9330 C.2   301  RET301     -0.0046
     13  C13      -21.2120  -14.3240    2.9260 C.2   301  RET301     -0.0261
     14  C14      -20.6010  -15.3690    2.3560 C.2   301  RET301     -0.0300
     15  C15      -19.7480  -16.2730    3.0700 C.3   301  RET301      0.0304
     16  C16      -26.8270  -12.1240   -2.8670 C.3   301  RET301      0.0043
     17  C17      -25.3370  -10.4580   -3.2890 C.3   301  RET301      0.0043
     18  C18      -27.9690   -7.8310   -0.5200 C.3   301  RET301      0.0260
     19  C19      -25.0280  -10.6440    2.2340 C.3   301  RET301      0.0310
     20  C20      -21.0970  -14.0260    4.4110 C.3   301  RET301      0.0307
@<TRIPOS>BOND
     1     2     3    1
     2     2     1    1
     3     3     4    1
     4    17     1    1
     5     1    16    1
     6     1     6    1
     7     4     5    1
     8     5     6    2
     9     5    18    1
    10     6     7    1
    11     7     8    2
    12     8     9    1
    13    10     9    2
    14    10    11    1
    15     9    19    1
    16    12    11    2
    17    12    13    1
    18    14    13    2
    19    14    15    1
    20    13    20    1
