@<TRIPOS>MOLECULE
3utw_RET_A_1.pdb
 20 20 0 0 0
SMALL
GASTEIGER

@<TRIPOS>ATOM
      1  C1       -26.4140  -10.4140   -2.9750 C.3   301  RET301      0.0183
      2  C2       -26.9820   -9.8520   -4.2840 C.3   301  RET301      0.0044
      3  C3       -27.5540   -8.4740   -4.2150 C.3   301  RET301      0.0047
      4  C4       -28.1220   -7.9590   -2.9230 C.3   301  RET301      0.0217
      5  C5       -27.3600   -8.4630   -1.7150 C.2   301  RET301     -0.0479
      6  C6       -26.5800   -9.5750   -1.7040 C.2   301  RET301     -0.0307
      7  C7       -25.9040   -9.9600   -0.4060 C.2   301  RET301     -0.0052
      8  C8       -25.1360  -10.9950   -0.1840 C.2   301  RET301     -0.0046
      9  C9       -24.4640  -11.2770    1.1150 C.2   301  RET301     -0.0219
     10  C10      -23.3750  -12.1040    1.0610 C.2   301  RET301     -0.0043
     11  C11      -22.5510  -12.5670    2.1870 C.2   301  RET301     -0.0007
     12  C12      -21.6960  -13.5410    1.8970 C.2   301  RET301     -0.0046
     13  C13      -20.8620  -14.2440    2.9020 C.2   301  RET301     -0.0261
     14  C14      -20.2380  -15.3140    2.3890 C.2   301  RET301     -0.0300
     15  C15      -19.3020  -16.2320    2.9920 C.3   301  RET301      0.0304
     16  C16      -26.5300  -11.9650   -2.8480 C.3   301  RET301      0.0043
     17  C17      -24.9070  -10.3490   -3.2540 C.3   301  RET301      0.0043
     18  C18      -27.6570   -7.7070   -0.4720 C.3   301  RET301      0.0260
     19  C19      -24.9300  -10.6260    2.3930 C.3   301  RET301      0.0310
     20  C20      -20.8540  -13.9170    4.3500 C.3   301  RET301      0.0307
@<TRIPOS>BOND
     1     2     3    1
     2     2     1    1
     3     3     4    1
     4    17     1    1
     5     1    16    1
     6     1     6    1
     7     4     5    1
     8     5     6    2
     9     5    18    1
    10     6     7    1
    11     7     8    2
    12     8     9    1
    13    10     9    2
    14    10    11    1
    15     9    19    1
    16    12    11    2
    17    12    13    1
    18    14    13    2
    19    14    15    1
    20    13    20    1
