@<TRIPOS>MOLECULE
3utx_RET_A_1.pdb
 20 20 0 0 0
SMALL
GASTEIGER

@<TRIPOS>ATOM
      1  C1       -15.3560    5.5010   -6.9400 C.3   301  RET301      0.0183
      2  C2       -14.5400    6.7220   -7.4430 C.3   301  RET301      0.0044
      3  C3       -14.0500    6.6990   -8.8420 C.3   301  RET301      0.0047
      4  C4       -13.4310    5.3740   -9.2780 C.3   301  RET301      0.0217
      5  C5       -14.1910    4.0910   -8.8360 C.2   301  RET301     -0.0479
      6  C6       -15.1120    4.1490   -7.7570 C.2   301  RET301     -0.0307
      7  C7       -15.7910    2.8450   -7.4400 C.2   301  RET301     -0.0052
      8  C8       -16.7260    2.5030   -6.4950 C.2   301  RET301     -0.0049
      9  C9       -17.3790    1.2170   -6.2920 C.2   301  RET301     -0.0258
     10  C10      -18.2480    1.2630   -5.2360 C.2   301  RET301     -0.0257
     11  C11      -19.0410    0.0960   -4.8300 C.3   301  RET301      0.0510
     12  C12      -19.8180    0.3790   -3.7520 C.2   301  RET301     -0.0299
     13  C13      -20.7100   -0.5740   -3.1030 C.2   301  RET301     -0.0478
     14  C14      -21.3260    0.0350   -2.0480 C.3   301  RET301      0.0217
     15  C15      -22.2610   -0.6010   -1.1750 C.3   301  RET301      0.0047
     16  C16      -14.9920    5.3210   -5.4320 C.3   301  RET301      0.0043
     17  C17      -16.8440    6.0470   -7.0810 C.3   301  RET301      0.0043
     18  C18      -13.7860    2.9570   -9.7470 C.3   301  RET301      0.0260
     19  C19      -17.1150   -0.0030   -7.1670 C.3   301  RET301      0.0307
     20  C20      -20.8850   -2.0030   -3.5520 C.3   301  RET301      0.0260
@<TRIPOS>BOND
     1    18     5    1
     2     4     3    1
     3     4     5    1
     4     3     2    1
     5     5     6    2
     6     6     7    1
     7     6     1    1
     8     2     1    1
     9     7     8    2
    10    19     9    1
    11    17     1    1
    12     1    16    1
    13     8     9    1
    14     9    10    2
    15    10    11    1
    16    11    12    1
    17    12    13    2
    18    20    13    1
    19    13    14    1
    20    14    15    1
