@<TRIPOS>MOLECULE
3uty_RET_A_1.pdb
 20 20 0 0 0
SMALL
GASTEIGER

@<TRIPOS>ATOM
      1  C1         0.2370    9.9010  -30.3110 C.3   301  RET301      0.0183
      2  C2         1.0190   11.1470  -30.8640 C.3   301  RET301      0.0044
      3  C3         1.4450   11.1260  -32.2920 C.3   301  RET301      0.0047
      4  C4         2.0240    9.7880  -32.7770 C.3   301  RET301      0.0217
      5  C5         1.2950    8.4960  -32.2830 C.2   301  RET301     -0.0479
      6  C6         0.4600    8.5420  -31.1430 C.2   301  RET301     -0.0307
      7  C7        -0.1900    7.2260  -30.8160 C.2   301  RET301     -0.0052
      8  C8        -1.0640    6.8430  -29.8340 C.2   301  RET301     -0.0049
      9  C9        -1.6620    5.5350  -29.6080 C.2   301  RET301     -0.0258
     10  C10       -2.5060    5.5540  -28.5410 C.2   301  RET301     -0.0257
     11  C11       -3.2410    4.3490  -28.1410 C.3   301  RET301      0.0510
     12  C12       -4.0530    4.5880  -27.0760 C.2   301  RET301     -0.0299
     13  C13       -4.9190    3.5980  -26.4460 C.2   301  RET301     -0.0478
     14  C14       -5.5910    4.1950  -25.4150 C.3   301  RET301      0.0217
     15  C15       -6.5440    3.5500  -24.5540 C.3   301  RET301      0.0047
     16  C16        0.7100    9.7270  -28.8150 C.3   301  RET301      0.0043
     17  C17       -1.2800   10.4040  -30.3340 C.3   301  RET301      0.0043
     18  C18        1.6460    7.3530  -33.2010 C.3   301  RET301      0.0260
     19  C19       -1.3840    4.3190  -30.4930 C.3   301  RET301      0.0307
     20  C20       -5.0250    2.1580  -26.9020 C.3   301  RET301      0.0260
@<TRIPOS>BOND
     1    18     5    1
     2     4     3    1
     3     4     5    1
     4     3     2    1
     5     5     6    2
     6     6     7    1
     7     6     1    1
     8     2     1    1
     9     7     8    2
    10    19     9    1
    11    17     1    1
    12     1    16    1
    13     8     9    1
    14     9    10    2
    15    10    11    1
    16    11    12    1
    17    12    13    2
    18    20    13    1
    19    13    14    1
    20    14    15    1
