@<TRIPOS>MOLECULE
3uu1_14B_A_1.pdb
 12 12 0 0 0
SMALL
GASTEIGER

@<TRIPOS>ATOM
      1  CAA        7.9580   -3.2540   29.5240 C.3   404  14B404      0.0310
      2  CAB        9.1880   -4.4310   24.7850 C.3   404  14B404      0.0324
      3  NAC        7.6410   -6.7990   25.1350 N.pl3 404  14B404     -0.1282
      4  OAD        5.6670   -7.7090   28.7070 O.co2 404  14B404     -0.2405
      5  OAE        6.0480   -8.3460   26.5930 O.co2 404  14B404     -0.2405
      6  CAF        8.5250   -3.9300   27.1560 C.ar  404  14B404     -0.0072
      7  CAG        7.1310   -5.4040   28.4760 C.ar  404  14B404      0.0037
      8  CAH        6.2020   -7.5610   27.5680 C.2   404  14B404      0.3890
      9  CAI        7.8600   -4.2230   28.3490 C.ar  404  14B404     -0.0219
     10  CAJ        8.4510   -4.7950   26.0760 C.ar  404  14B404     -0.0052
     11  CAK        7.7080   -5.9750   26.1840 C.ar  404  14B404      0.0914
     12  CAL        7.0520   -6.2820   27.3850 C.ar  404  14B404      0.0958
@<TRIPOS>BOND
     1     2    10    1
     2     3    11    1
     3    10    11   ar
     4    10     6   ar
     5    11    12   ar
     6     5     8   ar
     7     6     9   ar
     8    12     8    1
     9    12     7   ar
    10     8     4   ar
    11     9     7   ar
    12     9     1    1
