@<TRIPOS>MOLECULE
3uu1_PRP_A_1.pdb
 22 22 0 0 0
SMALL
GASTEIGER

@<TRIPOS>ATOM
      1  C1        -0.8680   -4.9680   35.8440 C.3   401  PRP401      0.2742
      2  C2        -1.1220   -5.3710   34.3630 C.3   401  PRP401      0.2408
      3  C3        -0.1410   -6.5120   34.1810 C.3   401  PRP401      0.2167
      4  C4        -0.2820   -7.1440   35.5490 C.3   401  PRP401      0.1808
      5  C5         0.7490   -8.2650   35.7650 C.3   401  PRP401      0.1859
      6  O1        -2.0670   -4.7200   36.6350 O.3   401  PRP401     -0.2857
      7  O2        -2.4840   -5.8140   34.1360 O.3   401  PRP401     -0.2149
      8  O3        -0.6230   -7.4450   33.2140 O.3   401  PRP401     -0.2175
      9  O4        -0.0700   -6.0270   36.4200 O.3   401  PRP401     -0.3255
     10  O5         0.4090   -9.3890   34.9660 O.3   401  PRP401     -0.2675
     11  P         -0.4760  -10.6530   35.4730 P.3   401  PRP401      0.5327
     12  O1P       -1.2740  -10.3790   36.8480 O.3   401  PRP401     -0.1145
     13  O2P       -1.5940  -10.8400   34.3430 O.2   401  PRP401     -0.2224
     14  O3P        0.3750  -11.8580   35.5890 O.3   401  PRP401     -0.1145
     15  PA        -2.5390   -3.1600   36.7150 P.3   401  PRP401      0.2249
     16  O1A       -2.4460   -2.7330   38.2010 O.3   401  PRP401     -0.4370
     17  O2A       -1.6990   -2.3410   35.8130 O.2   401  PRP401     -0.5169
     18  O3A       -4.0550   -3.2000   36.1110 O.3   401  PRP401     -0.2260
     19  PB        -5.3070   -3.7670   36.9120 P.3   401  PRP401      0.5373
     20  O1B       -6.4590   -2.8340   36.3950 O.3   401  PRP401     -0.1143
     21  O2B       -5.4590   -5.1200   36.1780 O.2   401  PRP401     -0.2221
     22  O3B       -5.2000   -3.8880   38.3980 O.3   401  PRP401     -0.1143
@<TRIPOS>BOND
     1     8     3    1
     2     7     2    1
     3     3     2    1
     4     3     4    1
     5    13    11    2
     6     2     1    1
     7    10    11    1
     8    10     5    1
     9    11    14    1
    10    11    12    1
    11     4     5    1
    12     4     9    1
    13    17    15    2
    14     1     9    1
    15     1     6    1
    16    18    15    1
    17    18    19    1
    18    21    19    2
    19    20    19    1
    20     6    15    1
    21    15    16    1
    22    19    22    1
