@<TRIPOS>MOLECULE
3uu7_2OH_A_1.pdb
 17 18 0 0 0
SMALL
GASTEIGER

@<TRIPOS>ATOM
      1  O2         0.0640   -2.3740   20.3200 O.3     1  2OH1       -0.2866
      2  C13       -1.1520   -2.9590   20.4900 C.ar    1  2OH1        0.1957
      3  C12       -1.7500   -3.6040   19.4170 C.ar    1  2OH1        0.0417
      4  C11       -2.9920   -4.2040   19.5730 C.ar    1  2OH1       -0.0007
      5  C14       -1.7970   -2.9100   21.7240 C.ar    1  2OH1        0.0417
      6  C15       -3.0420   -3.5150   21.8780 C.ar    1  2OH1       -0.0007
      7  C4        -3.6440   -4.1600   20.7990 C.ar    1  2OH1       -0.0188
      8  C2        -5.0090   -4.8480   20.9320 C.3     1  2OH1        0.0377
      9  C3        -4.8150   -6.2140   21.5910 C.3     1  2OH1        0.0088
     10  C5        -5.6260   -5.0230   19.5460 C.3     1  2OH1        0.0088
     11  C1        -5.9940   -4.0260   21.7650 C.ar    1  2OH1       -0.0188
     12  C10       -6.1290   -2.6590   21.5510 C.ar    1  2OH1       -0.0007
     13  C9        -7.0380   -1.9270   22.3080 C.ar    1  2OH1        0.0417
     14  C6        -6.7750   -4.6610   22.7250 C.ar    1  2OH1       -0.0007
     15  C7        -7.6860   -3.9310   23.4810 C.ar    1  2OH1        0.0417
     16  C8        -7.8160   -2.5610   23.2730 C.ar    1  2OH1        0.1957
     17  O1        -8.7060   -1.8410   24.0100 O.3     1  2OH1       -0.2866
@<TRIPOS>BOND
     1     3     4   ar
     2     3     2   ar
     3    10     8    1
     4     4     7   ar
     5     1     2    1
     6     2     5   ar
     7     7     8    1
     8     7     6   ar
     9     8     9    1
    10     8    11    1
    11    12    11   ar
    12    12    13   ar
    13     5     6   ar
    14    11    14   ar
    15    13    16   ar
    16    14    15   ar
    17    16    15   ar
    18    16    17    1
