@<TRIPOS>MOLECULE
3uu9_HEC_A_1.pdb
 43 50 0 0 0
SMALL
GASTEIGER

@<TRIPOS>ATOM
      1 FE         35.1730   24.7880  147.8430 Fe    601  HEC601      0.0000
      2  CHA       35.8910   27.8770  146.7030 C.2   601  HEC601      0.0000
      3  CHB       37.5760   23.4140  145.8630 C.2   601  HEC601      0.0000
      4  CHC       34.4770   21.7680  149.1170 C.2   601  HEC601      0.0000
      5  CHD       32.3590   26.0440  149.4470 C.2   601  HEC601      0.0000
      6  NA        36.4380   25.4680  146.5100 N.ar  601  HEC601      0.0000
      7  C1A       36.5990   26.8090  146.1800 C.ar  601  HEC601      0.0000
      8  C2A       37.6040   26.9120  145.1300 C.ar  601  HEC601      0.0000
      9  C3A       38.0630   25.6950  144.8970 C.ar  601  HEC601      0.0000
     10  C4A       37.3650   24.7640  145.7740 C.ar  601  HEC601      0.0000
     11  CMA       39.1610   25.3280  143.8960 C.3   601  HEC601      0.0000
     12  CAA       38.0800   28.2260  144.4790 C.3   601  HEC601      0.0000
     13  CBA       39.0960   28.8400  145.4700 C.3   601  HEC601      0.0000
     14  CGA       40.2910   27.9660  145.8350 C.2   601  HEC601      0.0000
     15  O1A       41.2080   27.7380  144.9860 O.co2 601  HEC601      0.0000
     16  O2A       40.3740   27.4880  146.9900 O.co2 601  HEC601      0.0000
     17  NB        35.8740   22.9440  147.5300 N.2   601  HEC601      0.0000
     18  C1B       36.9720   22.5930  146.7900 C.2   601  HEC601      0.0000
     19  C2B       37.3970   21.2480  147.1720 C.2   601  HEC601      0.0000
     20  C3B       36.5220   20.7660  148.0580 C.2   601  HEC601      0.0000
     21  C4B       35.5630   21.8510  148.2950 C.2   601  HEC601      0.0000
     22  CMB       38.5500   20.5360  146.4550 C.3   601  HEC601      0.0000
     23  CAB       36.4570   19.3490  148.7510 C.3   601  HEC601      0.0000
     24  CBB       37.7580   18.9020  149.4610 C.3   601  HEC601      0.0000
     25  NC        33.6890   24.0730  149.0470 N.ar  601  HEC601      0.0000
     26  C1C       33.5800   22.7510  149.4240 C.ar  601  HEC601      0.0000
     27  C2C       32.5080   22.6240  150.4000 C.ar  601  HEC601      0.0000
     28  C3C       31.8110   23.7730  150.3390 C.ar  601  HEC601      0.0000
     29  C4C       32.6090   24.7110  149.5900 C.ar  601  HEC601      0.0000
     30  CMC       31.9390   21.2400  150.8430 C.3   601  HEC601      0.0000
     31  CAC       30.4730   24.0930  151.0470 C.3   601  HEC601      0.0000
     32  CBC       30.5060   23.9110  152.6010 C.3   601  HEC601      0.0000
     33  ND        34.2480   26.6670  148.0340 N.2   601  HEC601      0.0000
     34  C1D       33.1670   26.9540  148.8260 C.2   601  HEC601      0.0000
     35  C2D       32.9670   28.3780  148.8930 C.2   601  HEC601      0.0000
     36  C3D       34.0590   28.9520  148.0290 C.2   601  HEC601      0.0000
     37  C4D       34.7970   27.8140  147.5340 C.2   601  HEC601      0.0000
     38  CMD       31.8700   29.1340  149.6430 C.3   601  HEC601      0.0000
     39  CAD       34.3270   30.4470  147.7700 C.3   601  HEC601      0.0000
     40  CBD       34.9640   31.0740  149.0130 C.3   601  HEC601      0.0000
     41  CGD       36.4150   30.7370  149.2200 C.2   601  HEC601      0.0000
     42  O1D       37.0340   30.1090  148.3280 O.co2 601  HEC601      0.0000
     43  O2D       36.9790   31.1290  150.2830 O.co2 601  HEC601      0.0000
@<TRIPOS>BOND
     1    11     9    1
     2    12     8    1
     3    12    13    1
     4     9     8   ar
     5     9    10   ar
     6    15    14   ar
     7     8     7   ar
     8    13    14    1
     9    10     3    2
    10    10     6   ar
    11    14    16   ar
    12     3    18    1
    13     7     6   ar
    14     7     2    2
    15    22    19    1
    16     6     1    1
    17     2    37    1
    18    18    19    1
    19    18    17    2
    20    19    20    2
    21    17     1    1
    22    17    21    1
    23    37    36    1
    24    37    33    2
    25    39    36    1
    26    39    40    1
    27     1    33    1
    28     1    25    1
    29    36    35    2
    30    33    34    1
    31    20    21    1
    32    20    23    1
    33    21     4    2
    34    42    41   ar
    35    23    24    1
    36    34    35    1
    37    34     5    2
    38    35    38    1
    39    40    41    1
    40    25    26   ar
    41    25    29   ar
    42     4    26    1
    43    41    43   ar
    44    26    27   ar
    45     5    29    1
    46    29    28   ar
    47    28    27   ar
    48    28    31    1
    49    27    30    1
    50    31    32    1
