@<TRIPOS>MOLECULE
3uua_0CZ_A_1.pdb
 23 24 0 0 0
SMALL
GASTEIGER

@<TRIPOS>ATOM
      1  CAM       22.2100    2.6660    6.2800 C.ar    1  0CZ1       -0.0002
      2  CAI       22.7980    1.5930    6.9360 C.ar    1  0CZ1        0.0417
      3  CAQ       23.8510    1.8150    7.8110 C.ar    1  0CZ1        0.1957
      4  OAA       24.4270    0.7660    8.4530 O.3     1  0CZ1       -0.2866
      5  CAJ       24.3130    3.1060    8.0290 C.ar    1  0CZ1        0.0417
      6  CAN       23.7250    4.1790    7.3700 C.ar    1  0CZ1       -0.0002
      7  CAS       22.6670    3.9620    6.4950 C.ar    1  0CZ1       -0.0029
      8  CAW       22.0060    5.1300    5.7520 C.3     1  0CZ1        0.2118
      9  CAU       22.1350    4.8460    4.2510 C.3     1  0CZ1        0.4117
     10  FAD       23.4180    4.7000    3.9380 F       1  0CZ1       -0.1690
     11  FAE       21.4910    3.7240    3.9580 F       1  0CZ1       -0.1690
     12  FAC       21.6050    5.8310    3.5350 F       1  0CZ1       -0.1690
     13  CAV       22.6630    6.4670    6.1110 C.3     1  0CZ1        0.4117
     14  FAG       23.9510    6.4500    5.7790 F       1  0CZ1       -0.1690
     15  FAH       22.0550    7.4460    5.4490 F       1  0CZ1       -0.1690
     16  FAF       22.5430    6.6870    7.4160 F       1  0CZ1       -0.1690
     17  CAT       20.5300    5.2030    6.1740 C.ar    1  0CZ1       -0.0029
     18  CAO       19.5400    5.5730    5.2690 C.ar    1  0CZ1       -0.0002
     19  CAK       18.2110    5.6350    5.6740 C.ar    1  0CZ1        0.0417
     20  CAR       17.8670    5.3300    6.9850 C.ar    1  0CZ1        0.1957
     21  OAB       16.5660    5.3930    7.3760 O.3     1  0CZ1       -0.2866
     22  CAL       18.8520    4.9620    7.8920 C.ar    1  0CZ1        0.0417
     23  CAP       20.1800    4.9010    7.4860 C.ar    1  0CZ1       -0.0002
@<TRIPOS>BOND
     1    12     9    1
     2    10     9    1
     3    11     9    1
     4     9     8    1
     5    18    19   ar
     6    18    17   ar
     7    15    13    1
     8    19    20   ar
     9     8    13    1
    10     8    17    1
    11     8     7    1
    12    14    13    1
    13    13    16    1
    14    17    23   ar
    15     1     7   ar
    16     1     2   ar
    17     7     6   ar
    18     2     3   ar
    19    20    21    1
    20    20    22   ar
    21     6     5   ar
    22    23    22   ar
    23     3     5   ar
    24     3     4    1
