@<TRIPOS>MOLECULE
3uuc_0D1_A_1.pdb
 18 19 0 0 0
SMALL
GASTEIGER

@<TRIPOS>ATOM
      1  CAI       -9.3890  -19.0210    3.6650 C.ar    1  0D11        0.0033
      2  CAE       -8.0390  -18.6710    3.6490 C.ar    1  0D11        0.0420
      3  CAO       -7.4000  -18.4320    2.4370 C.ar    1  0D11        0.1957
      4  OAA       -6.0860  -18.0960    2.4340 O.3     1  0D11       -0.2866
      5  CAF       -8.1030  -18.5400    1.2320 C.ar    1  0D11        0.0420
      6  CAJ       -9.4570  -18.8890    1.2520 C.ar    1  0D11        0.0033
      7  CAQ      -10.1080  -19.1230    2.4680 C.ar    1  0D11        0.0018
      8  CAN      -11.4590  -19.4910    2.5220 C.2     1  0D11        0.0213
      9  CAM      -12.4360  -18.5090    3.2210 C.2     1  0D11        0.1148
     10 CLD       -11.8110  -17.0450    3.8880 Cl      1  0D11       -0.0698
     11 CLC       -14.1370  -18.7710    3.3870 Cl      1  0D11       -0.0698
     12  CAR      -11.8340  -20.6780    1.8490 C.ar    1  0D11        0.0018
     13  CAK      -13.0550  -20.7930    1.1580 C.ar    1  0D11        0.0033
     14  CAG      -13.3930  -21.9590    0.4600 C.ar    1  0D11        0.0420
     15  CAP      -12.4840  -23.0210    0.4190 C.ar    1  0D11        0.1957
     16  OAB      -12.7860  -24.1490   -0.2690 O.3     1  0D11       -0.2866
     17  CAH      -11.2520  -22.9170    1.0760 C.ar    1  0D11        0.0420
     18  CAL      -10.9300  -21.7550    1.7840 C.ar    1  0D11        0.0033
@<TRIPOS>BOND
     1    16    15    1
     2    15    14   ar
     3    15    17   ar
     4    14    13   ar
     5    17    18   ar
     6    13    12   ar
     7     5     6   ar
     8     5     3   ar
     9     6     7   ar
    10    18    12   ar
    11    12     8    1
    12     4     3    1
    13     3     2   ar
    14     7     8    1
    15     7     1   ar
    16     8     9    2
    17     9    11    1
    18     9    10    1
    19     2     1   ar
