@<TRIPOS>MOLECULE
3uud_EST_A_1.pdb
 20 23 0 0 0
SMALL
GASTEIGER

@<TRIPOS>ATOM
      1  C1        20.1490    4.1850    7.7240 C.ar  600  EST600     -0.0013
      2  C2        18.8270    4.3900    8.0270 C.ar  600  EST600      0.0417
      3  C3        17.9580    4.9780    7.1560 C.ar  600  EST600      0.1954
      4  O3        16.6830    5.1560    7.4000 O.3   600  EST600     -0.2866
      5  C4        18.4820    5.3260    5.9280 C.ar  600  EST600      0.0375
      6  C5        19.7950    5.1380    5.5910 C.ar  600  EST600     -0.0230
      7  C6        20.2710    5.5740    4.1940 C.3   600  EST600      0.0261
      8  C7        21.7470    5.6320    4.0640 C.3   600  EST600      0.0050
      9  C8        22.3700    4.4120    4.6090 C.3   600  EST600      0.0044
     10  C9        22.1120    4.3660    6.1420 C.3   600  EST600      0.0220
     11  C10       20.6360    4.5490    6.4800 C.ar  600  EST600     -0.0263
     12  C11       22.8250    3.1530    6.8150 C.3   600  EST600      0.0044
     13  C12       24.3070    3.1070    6.4540 C.3   600  EST600      0.0028
     14  C13       24.5350    3.1820    4.9420 C.3   600  EST600      0.0282
     15  C14       23.8640    4.4240    4.4110 C.3   600  EST600      0.0028
     16  C15       24.3750    4.4970    2.9840 C.3   600  EST600      0.0027
     17  C16       25.7980    3.9550    3.0890 C.3   600  EST600      0.0329
     18  C17       25.9700    3.4700    4.5580 C.3   600  EST600      0.1519
     19  O17       26.7720    2.3450    4.6230 O.3   600  EST600     -0.2232
     20  C18       24.0580    1.9160    4.3080 C.3   600  EST600      0.0025
@<TRIPOS>BOND
     1    16    17    1
     2    16    15    1
     3    17    18    1
     4     8     7    1
     5     8     9    1
     6     7     6    1
     7    20    14    1
     8    15     9    1
     9    15    14    1
    10    18    19    1
    11    18    14    1
    12     9    10    1
    13    14    13    1
    14     6     5   ar
    15     6    11   ar
    16     5     3   ar
    17    10    11    1
    18    10    12    1
    19    13    12    1
    20    11     1   ar
    21     3     4    1
    22     3     2   ar
    23     1     2   ar
