@<TRIPOS>MOLECULE
3uuf_MAN_A_1.pdb
 11 11 0 0 0
SMALL
GASTEIGER

@<TRIPOS>ATOM
      1  C1        40.8740  -21.3060  -14.4940 C.3   504  MAN504      0.1777
      2  C2        41.5950  -21.7730  -13.1970 C.3   504  MAN504      0.2141
      3  C3        41.9850  -20.5740  -12.2760 C.3   504  MAN504      0.2173
      4  C4        42.7110  -19.4720  -13.0460 C.3   504  MAN504      0.2142
      5  C5        41.7980  -19.1020  -14.2230 C.3   504  MAN504      0.1810
      6  C6        42.2140  -17.8650  -14.9990 C.3   504  MAN504      0.2141
      7  O2        42.6880  -22.6140  -13.5420 O.3   504  MAN504     -0.2176
      8  O3        42.7040  -20.9030  -11.1110 O.3   504  MAN504     -0.2175
      9  O4        42.9280  -18.3840  -12.1720 O.3   504  MAN504     -0.2176
     10  O5        41.6150  -20.2330  -15.1000 O.3   504  MAN504     -0.3481
     11  O6        41.8090  -18.1050  -16.3270 O.3   504  MAN504     -0.2176
@<TRIPOS>BOND
     1    11     6    1
     2    10     1    1
     3    10     5    1
     4     6     5    1
     5     1     2    1
     6     5     4    1
     7     7     2    1
     8     2     3    1
     9     4     3    1
    10     4     9    1
    11     3     8    1
