@<TRIPOS>MOLECULE
3uug_BDP_A_1.pdb
 13 13 0 0 0
SMALL
GASTEIGER

@<TRIPOS>ATOM
      1  C1       -62.8200   16.1970    6.1490 C.3   331  BDP331      0.3028
      2  C2       -64.2200   15.6490    5.9100 C.3   331  BDP331      0.2435
      3  C3       -64.5700   14.7360    7.0740 C.3   331  BDP331      0.2204
      4  C4       -63.5230   13.6300    7.1620 C.3   331  BDP331      0.2229
      5  C5       -62.1090   14.2140    7.1560 C.3   331  BDP331      0.2530
      6  C6       -61.0850   13.0860    7.0590 C.2   331  BDP331      0.3941
      7  O2       -65.1710   16.6810    5.8090 O.3   331  BDP331     -0.2148
      8  O3       -65.8660   14.2150    6.8740 O.3   331  BDP331     -0.2174
      9  O4       -63.6900   12.8910    8.3540 O.3   331  BDP331     -0.2171
     10  O5       -61.9360   15.1020    6.0660 O.3   331  BDP331     -0.3149
     11  O6A      -60.2460   13.1330    6.1450 O.co2 331  BDP331     -0.2429
     12  O1       -62.4940   17.1280    5.1500 O.3   331  BDP331     -0.1869
     13  O6B      -61.1340   12.1640    7.9030 O.co2 331  BDP331     -0.2429
@<TRIPOS>BOND
     1    12     1    1
     2     7     2    1
     3     2     1    1
     4     2     3    1
     5    10     1    1
     6    10     5    1
     7    11     6   ar
     8     8     3    1
     9     6     5    1
    10     6    13   ar
    11     3     4    1
    12     5     4    1
    13     4     9    1
