@<TRIPOS>MOLECULE
3uuo_0CV_A_1.pdb
 44 47 0 0 0
SMALL
GASTEIGER

@<TRIPOS>ATOM
      1  C11        4.7290   12.1460   42.0020 C.2     1  0CV1       -0.0222
      2  C20        3.7580   13.4990   40.2660 C.2     1  0CV1       -0.0146
      3  C8         4.3570   13.0430   43.0150 C.3     1  0CV1        0.1051
      4  C9         4.3170   13.6790   45.3130 C.ar    1  0CV1        0.0717
      5  C15        3.3490   14.4580   41.2160 C.2     1  0CV1       -0.0125
      6  C10        3.6530   14.2420   42.6160 C.2     1  0CV1        0.1140
      7  C7         4.7290   12.7540   44.3800 C.2     1  0CV1        0.0389
      8  C16        4.4720   12.3560   40.6430 C.2     1  0CV1        0.1179
      9  C13        4.2780   13.8290   46.6690 C.ar    1  0CV1        0.0716
     10  C12        3.5340   14.8900   44.8590 C.ar    1  0CV1        0.2090
     11  C2         4.8480   10.3810   45.0180 C.3     1  0CV1        0.0245
     12  C6         6.9720   11.7400   44.4610 C.3     1  0CV1        0.0245
     13  C3         5.7470    9.4220   45.7880 C.3     1  0CV1        0.0117
     14  C5         7.7690   10.6990   45.2110 C.3     1  0CV1        0.0117
     15  C23        2.6140   15.6670   40.7110 C.3     1  0CV1       -0.0369
     16  C19        4.8900   13.0050   47.7300 C.3     1  0CV1       -0.0199
     17  C22        5.8550   10.5670   39.7870 C.3     1  0CV1        0.0788
     18  N18        3.7000   14.9670   47.0320 N.ar    1  0CV1       -0.1759
     19  N17        3.2210   15.6290   45.9140 N.ar    1  0CV1       -0.2501
     20  N14        3.2520   15.1200   43.5930 N.2     1  0CV1       -0.3871
     21  N1         5.5080   11.6270   44.7030 N.pl3   1  0CV1       -0.3290
     22  N4         7.0730    9.3900   45.0940 N.3     1  0CV1       -0.3130
     23  O21        4.8170   11.5230   39.6120 O.2     1  0CV1       -0.4954
     24  H11        5.2680   11.2650   42.2970 H       1  0CV1        0.0622
     25  H20        3.5690   13.6620   39.2120 H       1  0CV1        0.0657
     26  H21        4.0000   10.5940   45.6520 H       1  0CV1        0.0476
     27  H22        4.4570    9.8910   44.1170 H       1  0CV1        0.0476
     28  H62        7.3380   12.7400   44.6790 H       1  0CV1        0.0476
     29  H61        7.2140   11.5180   43.4330 H       1  0CV1        0.0476
     30  H32        5.8990    9.7530   46.8190 H       1  0CV1        0.0439
     31  H31        5.3460    8.4020   45.7840 H       1  0CV1        0.0439
     32  H51        8.7500   10.5600   44.7500 H       1  0CV1        0.0439
     33  H52        7.8730   10.9320   46.2740 H       1  0CV1        0.0439
     34 H233        2.2140   15.5250   39.7090 H       1  0CV1        0.0278
     35 H232        1.7900   15.9130   41.3790 H       1  0CV1        0.0278
     36 H231        3.3050   16.5150   40.6670 H       1  0CV1        0.0278
     37 H193        5.9800   13.0230   47.6730 H       1  0CV1        0.0293
     38 H191        4.6000   13.3430   48.7300 H       1  0CV1        0.0293
     39 H192        4.5430   11.9800   47.5920 H       1  0CV1        0.0293
     40 H221        6.1420   10.2300   38.7900 H       1  0CV1        0.0660
     41 H223        5.5050    9.7050   40.3670 H       1  0CV1        0.0660
     42 H222        6.7330   11.0360   40.2440 H       1  0CV1        0.0660
     43  H17        2.7140   16.5020   45.9800 H       1  0CV1        0.1915
     44  H1         6.9280    9.1660   44.0990 H       1  0CV1        0.1220
@<TRIPOS>BOND
     1    40    17    1
     2    25     2    1
     3    23    17    1
     4    23     8    1
     5    34    15    1
     6    17    42    1
     7    17    41    1
     8     2     8    1
     9     2     5    2
    10     8     1    2
    11    36    15    1
    12    15     5    1
    13    15    35    1
    14     5     6    1
    15     1    24    1
    16     1     3    1
    17     6     3    1
    18     6    20    2
    19     3     7    1
    20    29    12    1
    21    20    10    2
    22    44    22    1
    23    27    11    1
    24     7    21    1
    25     7     4    2
    26    12    28    1
    27    12    21    1
    28    12    14    1
    29    21    11    1
    30    32    14    1
    31    10     4   ar
    32    10    19   ar
    33    11    26    1
    34    11    13    1
    35    22    14    1
    36    22    13    1
    37    14    33    1
    38     4     9   ar
    39    31    13    1
    40    13    30    1
    41    19    43    1
    42    19    18   ar
    43     9    18   ar
    44     9    16    1
    45    39    16    1
    46    37    16    1
    47    16    38    1
