@<TRIPOS>MOLECULE
3uus_DTP_A_1.pdb
 30 32 0 0 0
SMALL
GASTEIGER

@<TRIPOS>ATOM
      1  PG        34.0580  -46.9810   86.9530 P.3   800  DTP800      0.5373
      2  O1G       33.4210  -48.0260   86.0740 O.2   800  DTP800     -0.2221
      3  O2G       33.9030  -47.4350   88.4100 O.3   800  DTP800     -0.1143
      4  O3G       35.5310  -46.8690   86.6300 O.3   800  DTP800     -0.1143
      5  PB        32.3730  -45.2210   85.6360 P.3   800  DTP800      0.2277
      6  O1B       30.9580  -45.1850   86.1730 O.3   800  DTP800     -0.4368
      7  O2B       32.7070  -43.8610   85.0680 O.2   800  DTP800     -0.5168
      8  O3B       33.3800  -45.5830   86.7900 O.3   800  DTP800     -0.2258
      9  PA        33.6110  -46.3210   83.4350 P.3   800  DTP800      0.2189
     10  O1A       34.9290  -46.3400   84.1000 O.3   800  DTP800     -0.4371
     11  O2A       33.4610  -47.5450   82.6340 O.2   800  DTP800     -0.5170
     12  O3A       32.4460  -46.3010   84.4750 O.3   800  DTP800     -0.2700
     13  O5'       33.5080  -45.0410   82.5040 O.3   800  DTP800     -0.3112
     14  C5'       34.4500  -44.1010   82.5900 C.3   800  DTP800      0.1813
     15  C4'       35.0160  -43.6160   81.3830 C.3   800  DTP800      0.1795
     16  O4'       34.6040  -42.2470   81.1700 O.3   800  DTP800     -0.3155
     17  C3'       36.4930  -43.5140   81.5070 C.3   800  DTP800      0.1883
     18  O3'       37.0830  -43.4400   80.2990 O.3   800  DTP800     -0.2202
     19  C2'       36.6810  -42.2540   82.2190 C.3   800  DTP800      0.1151
     20  C1'       35.4780  -41.4390   81.9090 C.3   800  DTP800      0.2873
     21  N9        34.8650  -40.8550   83.1180 N.pl3 800  DTP800     -0.1460
     22  C8        33.7140  -41.2430   83.6960 C.3   800  DTP800      0.3377
     23  N7        33.4720  -40.4850   84.7750 N.2   800  DTP800     -0.2095
     24  C5        34.4840  -39.5940   84.8930 C.2   800  DTP800      0.2526
     25  C6        34.7680  -38.5770   85.8000 C.2   800  DTP800      0.4393
     26  N6        33.8510  -38.3120   86.9140 N.pl3 800  DTP800      0.2180
     27  N1        35.8880  -37.8350   85.6540 N.2   800  DTP800      0.0021
     28  C2        36.7040  -38.0980   84.6320 C.3   800  DTP800      0.5254
     29  N3        36.4770  -39.0660   83.7290 N.2   800  DTP800     -0.0055
     30  C4        35.3710  -39.8280   83.8410 C.2   800  DTP800      0.3518
@<TRIPOS>BOND
     1    18    17    1
     2    16    15    1
     3    16    20    1
     4    15    17    1
     5    15    14    1
     6    17    19    1
     7    20    19    1
     8    20    21    1
     9    13    14    1
    10    13     9    1
    11    11     9    2
    12    21    22    1
    13    21    30    1
    14     9    10    1
    15     9    12    1
    16    22    23    1
    17    29    30    2
    18    29    28    1
    19    30    24    1
    20    12     5    1
    21    28    27    1
    22    23    24    2
    23    24    25    1
    24     7     5    2
    25     5     6    1
    26     5     8    1
    27    27    25    2
    28    25    26    1
    29     2     1    2
    30     4     1    1
    31     8     1    1
    32     1     3    1
