@<TRIPOS>MOLECULE
3uuz_0CB_A_1.pdb
 38 41 0 0 0
SMALL
GASTEIGER

@<TRIPOS>ATOM
      1  C13       -3.6410   -7.3090   30.4090 C.ar  481  0CB481      0.0003
      2  C14       -4.8180   -6.5820   30.4550 C.ar  481  0CB481      0.0080
      3  C16       -5.4020   -7.6390   32.5570 C.ar  481  0CB481      0.0080
      4  C22       -6.9480   -5.9570   31.6080 C.2   481  0CB481      0.4766
      5  C1        -2.1890   -8.9720   31.3730 C.ar  481  0CB481     -0.0003
      6  C2        -1.9000   -9.8830   32.3800 C.ar  481  0CB481     -0.0026
      7  C3        -2.7710  -10.0280   33.4530 C.ar  481  0CB481     -0.0006
      8  C4        -3.9410   -9.2850   33.5090 C.ar  481  0CB481     -0.0026
      9  C5        -4.2340   -8.3780   32.4940 C.ar  481  0CB481     -0.0000
     10  C6        -3.3590   -8.2190   31.4270 C.ar  481  0CB481     -0.0000
     11  O36        1.1220  -12.0990   34.8220 O.2   481  0CB481     -0.1537
     12  S32       -0.2870  -12.3690   34.9720 S.O2  481  0CB481      0.0685
     13  O38       -0.7170  -13.2250   33.9060 O.2   481  0CB481     -0.1537
     14  C34       -0.5480  -13.0750   36.4570 C.3   481  0CB481      0.2856
     15  C53       -0.3470  -14.5700   36.3560 C.2   481  0CB481      0.3905
     16  O57       -1.3610  -15.3070   36.3590 O.co2 481  0CB481     -0.2436
     17  O54        0.8280  -15.0060   36.2650 O.co2 481  0CB481     -0.2436
     18  N30       -1.0990  -11.0640   34.9710 N.pl3 481  0CB481     -0.1894
     19  C28       -2.4910  -11.0350   34.5510 C.3   481  0CB481      0.1418
     20  C15       -5.6850   -6.7350   31.5420 C.ar  481  0CB481      0.0975
     21  N26       -7.8540   -6.2870   32.5400 N.pl3 481  0CB481      0.2047
     22  N24       -7.1610   -5.0230   30.7690 N.pl3 481  0CB481      0.2047
     23  C40       -0.5100   -9.9140   35.4870 C.ar  481  0CB481      0.0690
     24  C46       -0.9660   -9.3980   36.7050 C.ar  481  0CB481      0.0192
     25  C45       -0.3640   -8.2580   37.2360 C.ar  481  0CB481      0.0382
     26  C44        0.6770   -7.6500   36.5390 C.ar  481  0CB481      0.1385
     27  C43        1.1170   -8.1630   35.3230 C.ar  481  0CB481      0.0382
     28  C42        0.5190   -9.2960   34.7950 C.ar  481  0CB481      0.0192
     29  O59        1.3070   -6.5360   37.0110 O.3   481  0CB481     -0.4789
     30  C61        0.6770   -5.6660   37.9180 C.3   481  0CB481      0.1742
     31  C67       -0.1320   -4.6640   37.1050 C.3   481  0CB481      0.0944
     32  C66        0.7350   -3.6900   36.3250 C.3   481  0CB481      0.2059
     33  N65        1.6310   -3.0720   37.2890 N.pl3 481  0CB481     -0.1903
     34  C74        1.5950   -1.7720   37.6080 C.2   481  0CB481      0.3531
     35  C76        0.5750   -0.8640   36.9970 C.3   481  0CB481      0.1349
     36  N82        2.3870   -1.2550   38.4460 N.2   481  0CB481      0.1879
     37  C64        2.6010   -4.0000   37.8620 C.3   481  0CB481      0.2059
     38  C63        1.7850   -4.9700   38.7040 C.3   481  0CB481      0.0944
@<TRIPOS>BOND
     1     1     2   ar
     2     1    10   ar
     3     2    20   ar
     4    22     4    2
     5     5    10   ar
     6     5     6   ar
     7    10     9   ar
     8    20     4    1
     9    20     3   ar
    10     4    21    1
    11     6     7   ar
    12     9     3   ar
    13     9     8   ar
    14     7     8   ar
    15     7    19    1
    16    13    12    2
    17    19    18    1
    18    28    27   ar
    19    28    23   ar
    20    11    12    2
    21    18    12    1
    22    18    23    1
    23    12    14    1
    24    27    26   ar
    25    23    24   ar
    26    17    15   ar
    27    32    31    1
    28    32    33    1
    29    15    16   ar
    30    15    14    1
    31    26    29    1
    32    26    25   ar
    33    24    25   ar
    34    35    34    1
    35    29    30    1
    36    31    30    1
    37    33    34    1
    38    33    37    1
    39    34    36    2
    40    37    38    1
    41    30    38    1
