@<TRIPOS>MOLECULE
3uv3_0CM_A_1.pdb
 13 12 0 0 0
SMALL
GASTEIGER

@<TRIPOS>ATOM
      1  O12      -24.6890    0.8650  -15.6510 O.3   318  0CM318     -0.1143
      2  P8       -25.9140    0.8980  -16.4480 P.3   318  0CM318      0.5373
      3  O13      -25.6210    1.0140  -17.9520 O.2   318  0CM318     -0.2221
      4  O9       -26.8400    1.9670  -16.0040 O.3   318  0CM318     -0.1143
      5  O7       -26.6050   -0.4910  -16.2920 O.3   318  0CM318     -0.2261
      6  P6       -26.0860   -1.9750  -16.2290 P.3   318  0CM318      0.2239
      7  O10      -24.7150   -2.1540  -16.7940 O.2   318  0CM318     -0.5169
      8  O11      -27.1580   -2.7690  -16.7610 O.3   318  0CM318     -0.4370
      9  O5       -25.9290   -2.3200  -14.7340 O.3   318  0CM318     -0.2993
     10  C4       -26.6110   -1.7960  -13.5040 C.3   318  0CM318      0.2244
     11  C3       -28.0290   -1.5780  -13.8160 C.1   318  0CM318     -0.0581
     12  C2       -29.2330   -1.3750  -14.0620 C.1   318  0CM318     -0.0875
     13  C1       -30.6400   -1.1310  -14.3060 C.3   318  0CM318      0.0900
@<TRIPOS>BOND
     1     3     2    2
     2     7     6    2
     3     8     6    1
     4     2     5    1
     5     2     4    1
     6     2     1    1
     7     5     6    1
     8     6     9    1
     9     9    10    1
    10    13    12    1
    11    12    11    3
    12    11    10    1
