@<TRIPOS>MOLECULE
3uv6_0CH_A_1.pdb
 14 13 0 0 0
SMALL
GASTEIGER

@<TRIPOS>ATOM
      1  O20      -25.5210    1.1680  -18.0010 O.2   318  0CH318     -0.2221
      2  P17      -25.8180    0.9120  -16.5080 P.3   318  0CH318      0.5373
      3  O19      -24.6170    0.8620  -15.6340 O.3   318  0CH318     -0.1143
      4  O18      -26.8670    1.9210  -16.0190 O.3   318  0CH318     -0.1143
      5  O16      -26.6450   -0.4550  -16.4500 O.3   318  0CH318     -0.2261
      6  P13      -26.0310   -1.9210  -16.2860 P.3   318  0CH318      0.2230
      7  O15      -24.6850   -2.1480  -16.7900 O.3   318  0CH318     -0.4370
      8  O14      -27.1190   -2.8490  -16.8860 O.2   318  0CH318     -0.5169
      9  O29      -25.8460   -2.2700  -14.7270 O.3   318  0CH318     -0.3138
     10  C28      -27.0050   -2.4980  -13.8590 C.3   318  0CH318      0.1492
     11  C27      -27.9100   -1.2440  -13.8330 C.3   318  0CH318      0.0352
     12  C30      -29.3850   -1.5750  -14.1860 C.3   318  0CH318      0.0381
     13  C13      -30.2670   -0.4150  -13.7390 C.3   318  0CH318      0.1822
     14  O33      -29.4770    0.4660  -12.9860 O.3   318  0CH318     -0.2204
@<TRIPOS>BOND
     1     1     2    2
     2     8     6    2
     3     7     6    1
     4     2     5    1
     5     2     4    1
     6     2     3    1
     7     5     6    1
     8     6     9    1
     9     9    10    1
    10    12    11    1
    11    12    13    1
    12    10    11    1
    13    13    14    1
