@<TRIPOS>MOLECULE
3uv7_0CN_A_1.pdb
 13 12 0 0 0
SMALL
GASTEIGER

@<TRIPOS>ATOM
      1  O15      -24.8690   -2.3090  -16.7580 O.3   318  0CN318     -0.4370
      2  P13      -26.2310   -2.0430  -16.3180 P.3   318  0CN318      0.2230
      3  O14      -27.2510   -2.9920  -16.8490 O.2   318  0CN318     -0.5169
      4  O16      -26.7740   -0.5600  -16.5250 O.3   318  0CN318     -0.2261
      5  P17      -25.9990    0.8160  -16.5680 P.3   318  0CN318      0.5373
      6  O19      -25.7300    1.0510  -18.0190 O.2   318  0CN318     -0.2221
      7  O18      -24.8110    0.7510  -15.7470 O.3   318  0CN318     -0.1143
      8  O20      -26.9720    1.7410  -16.0990 O.3   318  0CN318     -0.1143
      9  O29      -26.0900   -2.2450  -14.7980 O.3   318  0CN318     -0.3138
     10  C28      -27.1840   -2.3470  -13.9020 C.3   318  0CN318      0.1491
     11  C27      -27.9820   -1.0940  -13.8950 C.3   318  0CN318      0.0325
     12  C30      -29.3390   -1.1620  -14.1300 C.3   318  0CN318      0.0026
     13  C13      -30.7210   -1.2060  -14.3700 C.3   318  0CN318      0.0001
@<TRIPOS>BOND
     1     6     5    2
     2     3     2    2
     3     1     2    1
     4     5     4    1
     5     5     8    1
     6     5     7    1
     7     4     2    1
     8     2     9    1
     9     9    10    1
    10    13    12    1
    11    12    11    1
    12    10    11    1
