@<TRIPOS>MOLECULE
3uvc_0D2_A_1.pdb
 26 29 0 0 0
SMALL
GASTEIGER

@<TRIPOS>ATOM
      1  O20       15.6500   -7.8620   12.3500 O.2   314  0D2314     -0.2110
      2  C19       15.4310   -6.6670   11.9810 C.1   314  0D2314      0.2197
      3  N16       16.3560   -5.8690   11.4420 N.2   314  0D2314     -0.2445
      4  C18       14.0630   -6.0830   12.0190 C.3   314  0D2314      0.2567
      5  N17       14.3620   -4.7690   11.4520 N.2   314  0D2314     -0.1549
      6  C15       15.6660   -4.7620   11.1500 C.1   314  0D2314      0.3076
      7  O14       16.2270   -3.7420   10.6050 O.2   314  0D2314     -0.1881
      8  C21       13.6000   -5.9020   13.4750 C.ar  314  0D2314      0.0176
      9  C26       13.6490   -6.9530   14.3950 C.ar  314  0D2314     -0.0013
     10  C25       13.2000   -6.7770   15.7150 C.ar  314  0D2314     -0.0002
     11  C24       12.6960   -5.5490   16.1310 C.ar  314  0D2314     -0.0000
     12  C23       12.6210   -4.5050   15.2120 C.ar  314  0D2314     -0.0002
     13  C22       13.0620   -4.6820   13.9030 C.ar  314  0D2314     -0.0013
     14  C5        13.0800   -6.8890   11.0920 C.3   314  0D2314      0.2567
     15  N4        12.6980   -8.2030   11.6240 N.2   314  0D2314     -0.1549
     16  C3        11.3670   -8.1770   11.8050 C.1   314  0D2314      0.3076
     17  O13       10.6900   -9.1450   12.2740 O.2   314  0D2314     -0.1881
     18  C1        11.7370   -6.2470   11.0830 C.1   314  0D2314      0.2197
     19  O12       11.5330   -5.0420   10.7320 O.2   314  0D2314     -0.2110
     20  N2        10.7540   -7.0480   11.4790 N.2   314  0D2314     -0.2445
     21  C6        13.6190   -7.0450    9.6670 C.ar  314  0D2314      0.0176
     22  C7        14.2660   -8.2290    9.2770 C.ar  314  0D2314     -0.0013
     23  C8        14.7810   -8.3780    7.9840 C.ar  314  0D2314     -0.0002
     24  C9        14.6780   -7.3410    7.0720 C.ar  314  0D2314     -0.0000
     25  C10       14.0600   -6.1520    7.4490 C.ar  314  0D2314     -0.0002
     26  C11       13.5180   -6.0060    8.7330 C.ar  314  0D2314     -0.0013
@<TRIPOS>BOND
     1    24    25   ar
     2    24    23   ar
     3    25    26   ar
     4    23    22   ar
     5    26    21   ar
     6    22    21   ar
     7    21    14    1
     8     7     6    2
     9    19    18    2
    10    18    14    1
    11    18    20    2
    12    14    15    1
    13    14     4    1
    14     6     3    2
    15     6     5    2
    16     3     2    2
    17     5     4    1
    18    20    16    2
    19    15    16    2
    20    16    17    2
    21     2     4    1
    22     2     1    2
    23     4     8    1
    24     8    13   ar
    25     8     9   ar
    26    13    12   ar
    27     9    10   ar
    28    12    11   ar
    29    10    11   ar
