@<TRIPOS>MOLECULE
3uve_NAD_A_1.pdb
 44 48 0 0 0
SMALL
GASTEIGER

@<TRIPOS>ATOM
      1  PA         7.8150   11.2510   46.0420 P.3   300  NAD300      0.2189
      2  O1A        8.8010   11.7400   47.0300 O.3   300  NAD300     -0.4371
      3  O2A        6.6100   12.0600   45.7210 O.2   300  NAD300     -0.5170
      4  O5B        7.2860    9.8090   46.4170 O.3   300  NAD300     -0.3112
      5  C5B        8.0870    8.8040   47.0530 C.3   300  NAD300      0.1813
      6  C4B        7.3030    8.1520   48.1580 C.3   300  NAD300      0.1821
      7  O4B        8.2000    7.1730   48.7140 O.3   300  NAD300     -0.3135
      8  C3B        6.9310    9.1260   49.2540 C.3   300  NAD300      0.2184
      9  O3B        5.5690    9.0560   49.5890 O.3   300  NAD300     -0.2174
     10  C2B        7.7910    8.6750   50.4440 C.3   300  NAD300      0.2570
     11  O2B        7.2720    8.8630   51.7770 O.3   300  NAD300     -0.2130
     12  C1B        8.0140    7.2050   50.1080 C.3   300  NAD300      0.3186
     13  N9A        9.1880    6.6710   50.8050 N.pl3 300  NAD300     -0.1439
     14  C8A       10.4420    7.2160   50.8690 C.3   300  NAD300      0.3377
     15  N7A       11.2340    6.4850   51.6800 N.2   300  NAD300     -0.2095
     16  C5A       10.4710    5.4760   52.1500 C.2   300  NAD300      0.2526
     17  C6A       10.7190    4.3500   53.0430 C.2   300  NAD300      0.4393
     18  N6A       11.9140    4.2170   53.6420 N.pl3 300  NAD300      0.2180
     19  N1A        9.7120    3.4480   53.2490 N.2   300  NAD300      0.0021
     20  C2A        8.5180    3.6160   52.6730 C.3   300  NAD300      0.5254
     21  N3A        8.2030    4.6730   51.8770 N.2   300  NAD300     -0.0055
     22  C4A        9.1570    5.5760   51.5650 C.2   300  NAD300      0.3518
     23  O3         8.6730   10.9870   44.7150 O.3   300  NAD300     -0.2703
     24  PN         8.3060   10.1730   43.4000 P.3   300  NAD300      0.2189
     25  O1N        8.6950   11.0250   42.2180 O.2   300  NAD300     -0.5170
     26  O2N        6.9130    9.6310   43.4040 O.3   300  NAD300     -0.4371
     27  O5D        9.3570    8.9690   43.5950 O.3   300  NAD300     -0.3112
     28  C5D        9.0200    7.6450   43.1930 C.3   300  NAD300      0.1813
     29  C4D       10.2420    6.8810   42.6780 C.3   300  NAD300      0.1799
     30  O4D       10.6750    7.4640   41.4370 O.3   300  NAD300     -0.3327
     31  C3D       11.4580    6.9600   43.6370 C.3   300  NAD300      0.2158
     32  O3D       12.1620    5.7350   43.6210 O.3   300  NAD300     -0.2175
     33  C2D       12.3050    8.0120   42.9550 C.3   300  NAD300      0.2309
     34  O2D       13.6930    7.8620   43.2540 O.3   300  NAD300     -0.2158
     35  C1D       12.0830    7.7110   41.4840 C.3   300  NAD300      0.2263
     36  N1N       12.3600    8.8130   40.5450 N.pl3 300  NAD300     -0.2787
     37  C2N       11.8330   10.0560   40.6670 C.3   300  NAD300      0.1244
     38  C3N       12.1100   11.0520   39.7580 C.2   300  NAD300      0.0544
     39  C7N       11.4750   12.3780   39.8260 C.2   300  NAD300      0.2818
     40  O7N       11.8570   13.2630   39.0560 O.2   300  NAD300     -0.2670
     41  N7N       10.4580   12.6570   40.6790 N.am  300  NAD300     -0.0839
     42  C4N       12.9530   10.7750   38.6310 C.2   300  NAD300      0.0033
     43  C5N       13.4450    9.4580   38.5210 C.2   300  NAD300      0.0157
     44  C6N       13.1450    8.5140   39.4540 C.2   300  NAD300      0.0633
@<TRIPOS>BOND
     1    43    42    1
     2    43    44    2
     3    42    38    2
     4    40    39    2
     5    44    36    1
     6    38    39    1
     7    38    37    1
     8    39    41   am
     9    36    37    1
    10    36    35    1
    11    30    35    1
    12    30    29    1
    13    35    33    1
    14    25    24    2
    15    29    28    1
    16    29    31    1
    17    33    34    1
    18    33    31    1
    19    28    27    1
    20    24    26    1
    21    24    27    1
    22    24    23    1
    23    32    31    1
    24    23     1    1
    25     3     1    2
    26     1     4    1
    27     1     2    1
    28     4     5    1
    29     5     6    1
    30     6     7    1
    31     6     8    1
    32     7    12    1
    33     8     9    1
    34     8    10    1
    35    12    10    1
    36    12    13    1
    37    10    11    1
    38    13    14    1
    39    13    22    1
    40    14    15    1
    41    22    21    2
    42    22    16    1
    43    15    16    2
    44    21    20    1
    45    16    17    1
    46    20    19    1
    47    17    19    2
    48    17    18    1
