@<TRIPOS>MOLECULE
3uvp_048_A_1.pdb
 29 32 0 0 0
SMALL
GASTEIGER

@<TRIPOS>ATOM
      1  OAA      -18.1660   -1.3740  -26.6470 O.2   361  048361     -0.2913
      2  OAB      -18.1280    4.2010  -19.3870 O.2   361  048361     -0.2680
      3  FAC      -22.6550    4.7150  -19.4720 F     361  048361     -0.2028
      4  CAD      -17.7760    7.4170  -15.5520 C.ar  361  048361      0.0000
      5  CAE      -17.5450    7.7140  -16.8950 C.ar  361  048361      0.0001
      6  CAF      -18.3800    6.2180  -15.1680 C.ar  361  048361      0.0001
      7  CAG      -17.9330    6.8050  -17.8810 C.ar  361  048361      0.0046
      8  CAH      -18.7610    5.3060  -16.1480 C.ar  361  048361      0.0046
      9  CAI      -22.7000    2.6540  -20.6720 C.ar  361  048361      0.0323
     10  CAJ      -22.0550    1.4590  -21.0010 C.ar  361  048361      0.0189
     11  CAK      -20.0570    0.1460  -23.2250 C.ar  361  048361      0.0166
     12  CAL      -19.6480   -0.4320  -24.4290 C.ar  361  048361      0.0039
     13  CAM      -19.0920   -1.6830  -21.9910 C.ar  361  048361      0.0123
     14  CAN      -20.1530    2.0910  -19.6640 C.ar  361  048361      0.0354
     15  CAO      -17.6670   -4.4700  -25.2430 C.3   361  048361      0.0085
     16  CAP      -18.2730   -4.7360  -23.8570 C.3   361  048361      0.0051
     17  CAQ      -18.6220   -3.6510  -26.1270 C.3   361  048361      0.0692
     18  CAR      -17.8980   -3.5860  -22.9210 C.3   361  048361      0.0265
     19  NAS      -20.2280    4.1880  -18.5060 N.am  361  048361     -0.1731
     20  NAT      -20.1240    0.0100  -20.7990 N.pl3 361  048361     -0.2124
     21  CAU      -18.5580   -2.1640  -25.7830 C.2   361  048361      0.1727
     22  CAV      -18.9550    4.5920  -18.5670 C.2   361  048361      0.2690
     23  CAW      -22.0610    3.5620  -19.8280 C.ar  361  048361      0.1554
     24  CAX      -19.7810   -0.4810  -21.9970 C.ar  361  048361      0.0702
     25  CAY      -20.7660    1.1700  -20.5190 C.ar  361  048361      0.0719
     26  CAZ      -18.5460    5.6030  -17.5000 C.ar  361  048361      0.0554
     27  CBA      -18.6750   -2.2650  -23.1850 C.ar  361  048361     -0.0181
     28  CBB      -20.7930    3.2930  -19.3310 C.ar  361  048361      0.1023
     29  CBC      -18.9510   -1.6410  -24.4000 C.ar  361  048361      0.0308
@<TRIPOS>BOND
     1     1    21    2
     2    17    21    1
     3    17    15    1
     4    21    29    1
     5    15    16    1
     6    12    29   ar
     7    12    11   ar
     8    29    27   ar
     9    16    18    1
    10    11    24   ar
    11    27    18    1
    12    27    13   ar
    13    24    13   ar
    14    24    20    1
    15    10     9   ar
    16    10    25   ar
    17    20    25    1
    18     9    23   ar
    19    25    14   ar
    20    23     3    1
    21    23    28   ar
    22    14    28   ar
    23     2    22    2
    24    28    19    1
    25    22    19   am
    26    22    26    1
    27     7    26   ar
    28     7     5   ar
    29    26     8   ar
    30     5     4   ar
    31     8     6   ar
    32     4     6   ar
