@<TRIPOS>MOLECULE
3uvq_FS8_A_1.pdb
 39 43 0 0 0
SMALL
GASTEIGER

@<TRIPOS>ATOM
      1  OAA       -0.5410   -1.8270  -15.4310 O.2   361  FS8361     -0.2680
      2  OAB       -2.2270    4.3980  -23.0010 O.2   361  FS8361     -0.2866
      3  OAC       -5.7270    6.8740  -29.5600 O.3   361  FS8361     -0.2174
      4  OAD       -4.9810    4.7820  -30.9480 O.3   361  FS8361     -0.2163
      5  FAE       -4.9910   -1.4070  -14.9830 F     361  FS8361     -0.2028
      6  CAF        0.0610   -5.3060  -11.9570 C.ar  361  FS8361      0.0000
      7  CAG       -0.5840   -5.8000  -13.0830 C.ar  361  FS8361      0.0001
      8  CAH        0.2400   -3.9110  -11.8150 C.ar  361  FS8361      0.0001
      9  CAI       -4.4160   -0.3360  -18.3180 C.ar  361  FS8361      0.0189
     10  CAJ       -2.8780    1.4230  -20.2900 C.ar  361  FS8361      0.0166
     11  CAK       -1.0320   -4.8950  -14.0680 C.ar  361  FS8361      0.0046
     12  CAL       -0.2180   -3.0280  -12.7860 C.ar  361  FS8361      0.0046
     13  CAM       -5.0340   -0.5200  -17.0700 C.ar  361  FS8361      0.0323
     14  CAN       -1.8500    2.7510  -27.5020 C.ar  361  FS8361      0.0366
     15  CAO       -0.9480    2.0030  -26.7330 C.ar  361  FS8361     -0.0010
     16  CAP       -2.6890    2.4000  -21.2750 C.ar  361  FS8361      0.0042
     17  CAQ       -1.7380   -0.1400  -21.7580 C.ar  361  FS8361      0.0123
     18  CAR       -2.5810   -1.7380  -17.5310 C.ar  361  FS8361      0.0354
     19  CAS       -2.7780    3.7670  -25.5060 C.ar  361  FS8361      0.0398
     20  CAT       -5.6090    5.6990  -28.7450 C.3   361  FS8361      0.2187
     21  CAU       -0.0430    1.3510  -24.6910 C.3   361  FS8361      0.0311
     22  CAV       -0.8610    0.2970  -23.8840 C.3   361  FS8361      0.0312
     23  CAW       -3.7700    3.9800  -29.0090 C.3   361  FS8361      0.2408
     24  NAX       -2.6580   -2.6820  -15.2860 N.am  361  FS8361     -0.1731
     25  NAY       -2.4950   -0.8820  -19.6980 N.pl3 361  FS8361     -0.2124
     26  OAZ       -3.6470    4.3630  -27.6270 O.3   361  FS8361     -0.4726
     27  CBA       -1.3470   -2.6130  -14.9310 C.2   361  FS8361      0.2690
     28  CBB       -2.0040    3.2510  -23.3830 C.2   361  FS8361      0.1950
     29  CBC       -2.3950    0.1440  -20.5410 C.ar  361  FS8361      0.0702
     30  CBD       -3.1770   -0.9460  -18.5390 C.ar  361  FS8361      0.0719
     31  CBE       -4.4270   -1.3000  -16.0610 C.ar  361  FS8361      0.1554
     32  CBF       -2.7580    3.6210  -26.8930 C.ar  361  FS8361      0.1388
     33  CBG       -0.8950   -3.5040  -13.9190 C.ar  361  FS8361      0.0554
     34  CBH       -0.9580    2.1650  -25.3510 C.ar  361  FS8361     -0.0186
     35  CBI       -1.5390    0.8420  -22.7440 C.ar  361  FS8361     -0.0175
     36  CBJ       -3.1900   -1.9100  -16.2760 C.ar  361  FS8361      0.1023
     37  CBK       -2.0270    2.1410  -22.4950 C.ar  361  FS8361      0.0351
     38  CBL       -1.8550    3.0460  -24.7450 C.ar  361  FS8361      0.0380
     39  CBM       -5.1140    4.4740  -29.5510 C.3   361  FS8361      0.2280
@<TRIPOS>BOND
     1     4    39    1
     2     3    20    1
     3    39    23    1
     4    39    20    1
     5    23    26    1
     6    26    32    1
     7    14    32   ar
     8    14    15   ar
     9    32    19   ar
    10    15    34   ar
    11    19    38   ar
    12    34    38   ar
    13    34    21    1
    14    38    28    1
    15    21    22    1
    16    22    35    1
    17    28     2    2
    18    28    37    1
    19    35    37   ar
    20    35    17   ar
    21    37    16   ar
    22    17    29   ar
    23    16    10   ar
    24    29    10   ar
    25    29    25    1
    26    25    30    1
    27    30     9   ar
    28    30    18   ar
    29     9    13   ar
    30    18    36   ar
    31    13    31   ar
    32    36    31   ar
    33    36    24    1
    34    31     5    1
    35     1    27    2
    36    24    27   am
    37    27    33    1
    38    11    33   ar
    39    11     7   ar
    40    33    12   ar
    41     7     6   ar
    42    12     8   ar
    43     6     8   ar
