@<TRIPOS>MOLECULE
3uvr_06F_A_1.pdb
 39 43 0 0 0
SMALL
GASTEIGER

@<TRIPOS>ATOM
      1  CAA       18.9520   -6.0910  -11.1570 C.3   361  06F361      0.0310
      2  CAB       13.5020   -7.1100  -19.2050 C.3   361  06F361      0.0060
      3  CAC       14.6980   -9.2750  -19.0900 C.3   361  06F361      0.0060
      4  CAD       13.2680   -8.5100  -17.1700 C.3   361  06F361      0.0060
      5  OAE       17.8570    1.1270  -26.5080 O.2   361  06F361     -0.2913
      6  OAF       17.7520   -4.3130  -19.2270 O.2   361  06F361     -0.2484
      7  CAG       22.2630   -2.6590  -20.5860 C.ar  361  06F361      0.0027
      8  CAH       21.6070   -3.5090  -19.6950 C.ar  361  06F361      0.0167
      9  CAI       21.6410   -1.4590  -20.9250 C.ar  361  06F361      0.0166
     10  CAJ       18.2910   -5.1060  -13.2570 C.ar  361  06F361     -0.0027
     11  CAK       17.9840   -7.4670  -12.8550 C.ar  361  06F361     -0.0027
     12  CAL       19.5250   -0.3190  -23.1250 C.ar  361  06F361      0.0166
     13  CAM       17.7270   -5.2750  -14.5190 C.ar  361  06F361      0.0189
     14  CAN       17.4390   -7.6350  -14.1140 C.ar  361  06F361      0.0189
     15  CAO       19.0230    0.2610  -24.3090 C.ar  361  06F361      0.0039
     16  CAP       19.7360   -1.9920  -19.5080 C.ar  361  06F361      0.0331
     17  CAQ       18.7980    1.6330  -21.9260 C.ar  361  06F361      0.0123
     18  CAR       16.3990   -6.6500  -18.2840 C.ar  361  06F361      0.0527
     19  CAS       18.2130    4.2600  -24.9680 C.3   361  06F361      0.0085
     20  CAT       17.2520    4.3270  -23.8000 C.3   361  06F361      0.0051
     21  CAU       17.6260    3.2510  -25.9530 C.3   361  06F361      0.0692
     22  CAV       17.7520    3.4420  -22.6940 C.3   361  06F361      0.0265
     23  NAW       15.7630   -7.3700  -16.3580 N.ar  361  06F361     -0.1683
     24  NAX       19.8350   -4.0780  -18.3070 N.am  361  06F361     -0.1606
     25  NAY       18.3450   -5.5310  -17.4040 N.am  361  06F361     -0.1418
     26  NAZ       19.8080    0.0080  -20.7070 N.pl3 361  06F361     -0.2124
     27  CBA       17.9590    1.9440  -25.5920 C.2   361  06F361      0.1727
     28  CBB       18.5870   -4.6300  -18.3800 C.2   361  06F361      0.3491
     29  CBC       18.4070   -6.2210  -12.4260 C.ar  361  06F361     -0.0218
     30  CBD       20.3450   -3.1960  -19.1710 C.ar  361  06F361      0.0763
     31  CBE       20.3810   -1.1420  -20.4120 C.ar  361  06F361      0.0718
     32  CBF       19.4030    0.3880  -21.9200 C.ar  361  06F361      0.0702
     33  CBG       17.3110   -6.5420  -14.9420 C.ar  361  06F361      0.0842
     34  CBH       18.2960    2.2000  -23.0880 C.ar  361  06F361     -0.0181
     35  CBI       17.2100   -6.2350  -17.3030 C.ar  361  06F361      0.1587
     36  CBJ       15.4760   -7.3670  -17.6510 C.ar  361  06F361      0.0811
     37  CBK       18.3940    1.5240  -24.3110 C.ar  361  06F361      0.0308
     38  NBL       16.7720   -6.7200  -16.1450 N.ar  361  06F361     -0.2145
     39  CBM       14.2500   -8.0670  -18.2730 C.3   361  06F361      0.0372
@<TRIPOS>BOND
     1     5    27    2
     2    21    27    1
     3    21    19    1
     4    27    37    1
     5    19    20    1
     6    37    15   ar
     7    37    34   ar
     8    15    12   ar
     9    20    22    1
    10    12    32   ar
    11    34    22    1
    12    34    17   ar
    13    17    32   ar
    14    32    26    1
    15     9     7   ar
    16     9    31   ar
    17    26    31    1
    18     7     8   ar
    19    31    16   ar
    20     8    30   ar
    21    16    30   ar
    22     6    28    2
    23     2    39    1
    24    30    24    1
    25     3    39    1
    26    28    24   am
    27    28    25   am
    28    18    36   ar
    29    18    35   ar
    30    39    36    1
    31    39     4    1
    32    36    23   ar
    33    25    35    1
    34    35    38   ar
    35    23    38   ar
    36    38    33    1
    37    33    13   ar
    38    33    14   ar
    39    13    10   ar
    40    14    11   ar
    41    10    29   ar
    42    11    29   ar
    43    29     1    1
