@<TRIPOS>MOLECULE
3uvv_T3_A_1.pdb
 23 24 0 0 0
SMALL
GASTEIGER

@<TRIPOS>ATOM
      1  C1       -22.3450   -9.1090   19.3640 C.ar  501  T3501      -0.0191
      2  C2       -22.1010   -6.0950   15.3730 C.ar  501  T3501       0.1460
      3  C3       -21.9880   -7.7680   19.5330 C.ar  501  T3501       0.0047
      4  C4       -22.1480   -4.8470   14.7660 C.ar  501  T3501       0.0465
      5  C5       -22.2470   -6.8260   18.5380 C.ar  501  T3501       0.0647
      6  C6       -21.1170   -4.4750   13.9070 C.ar  501  T3501       0.0720
      7  C7       -22.8890   -7.2710   17.2850 C.ar  501  T3501       0.1558
      8  C8       -20.0050   -5.4120   13.6190 C.ar  501  T3501       0.2012
      9  C9       -23.2400   -8.6920   17.1590 C.ar  501  T3501       0.0647
     10  C10      -20.0070   -6.6610   14.2390 C.ar  501  T3501       0.0456
     11  C11      -22.9490   -9.5650   18.1930 C.ar  501  T3501       0.0047
     12  C12      -21.0590   -6.9970   15.0940 C.ar  501  T3501       0.0408
     13  C13      -22.1150  -10.0880   20.4930 C.3   501  T3501       0.0570
     14  C15      -23.4190  -10.8040   20.8760 C.3   501  T3501       0.1986
     15  C17      -23.3190  -11.3720   22.2590 C.2   501  T3501       0.3822
     16  I1       -21.7000   -4.8140   18.7240 I     501  T3501      -0.0393
     17  I2       -21.1040   -2.6030   13.0030 I     501  T3501      -0.0391
     18  I3       -24.1860   -9.3160   15.4160 I     501  T3501      -0.0393
     19  N1       -24.5900   -9.9460   20.8030 N.3   501  T3501      -0.1205
     20  O1       -19.0230   -5.0070   12.7670 O.3   501  T3501      -0.2861
     21  O2       -23.1180   -6.4120   16.2370 O.3   501  T3501      -0.4526
     22  O3       -24.3290  -11.3090   23.0050 O.co2 501  T3501      -0.2440
     23  O4       -22.2360  -11.9010   22.6050 O.co2 501  T3501      -0.2440
@<TRIPOS>BOND
     1    20     8    1
     2    17     6    1
     3     8     6   ar
     4     8    10   ar
     5     6     4   ar
     6    10    12   ar
     7     4     2   ar
     8    12     2   ar
     9     2    21    1
    10    18     9    1
    11    21     7    1
    12     9     7   ar
    13     9    11   ar
    14     7     5   ar
    15    11     1   ar
    16     5    16    1
    17     5     3   ar
    18     1     3   ar
    19     1    13    1
    20    13    14    1
    21    19    14    1
    22    14    15    1
    23    15    23   ar
    24    15    22   ar
