@<TRIPOS>MOLECULE
3uvv_REA_B_1.pdb
 22 22 0 0 0
SMALL
GASTEIGER

@<TRIPOS>ATOM
      1  C1       -12.7840  -22.9600  -10.4230 C.3   501  REA501      0.0227
      2  C2       -11.4790  -22.6950  -11.2120 C.3   501  REA501      0.0300
      3  C3       -11.2100  -21.1920  -11.4900 C.2   501  REA501     -0.0261
      4  C4       -12.4480  -20.2710  -11.5500 C.2   501  REA501     -0.0091
      5  C5       -13.7640  -20.9770  -11.6330 C.2   501  REA501     -0.0261
      6  C6       -13.9610  -22.2250  -11.1420 C.2   501  REA501     -0.0264
      7  C7       -15.2560  -22.8270  -11.2460 C.2   501  REA501     -0.0049
      8  C8       -15.5190  -24.0690  -11.7160 C.2   501  REA501     -0.0046
      9  C9       -16.8460  -24.5840  -11.7540 C.2   501  REA501     -0.0219
     10  C10      -17.1460  -25.8320  -12.2100 C.2   501  REA501     -0.0043
     11  C11      -16.2240  -26.7530  -12.6440 C.2   501  REA501     -0.0006
     12  C12      -16.7010  -27.9400  -13.0440 C.2   501  REA501     -0.0041
     13  C13      -15.8510  -28.9150  -13.5940 C.2   501  REA501     -0.0153
     14  C14      -16.4190  -30.1410  -13.7640 C.2   501  REA501      0.0819
     15  C15      -15.8370  -31.4300  -13.9540 C.2   501  REA501      0.3876
     16  C16      -12.9550  -24.4590  -10.0660 C.3   501  REA501      0.0047
     17  C17      -12.4690  -22.3680   -9.0590 C.3   501  REA501      0.0047
     18  C18      -14.8340  -20.1670  -12.3140 C.3   501  REA501      0.0307
     19  C19      -18.0450  -23.7750  -11.3290 C.3   501  REA501      0.0310
     20  C20      -14.3460  -28.7110  -13.5930 C.3   501  REA501      0.0312
     21  O1       -14.6590  -31.6540  -14.1750 O.co2 501  REA501     -0.2406
     22  O2       -16.6750  -32.4700  -13.9300 O.co2 501  REA501     -0.2406
@<TRIPOS>BOND
     1    21    15   ar
     2    15    22   ar
     3    15    14    1
     4    14    13    2
     5    13    20    1
     6    13    12    1
     7    12    11    2
     8    11    10    1
     9    18     5    1
    10    10     9    2
    11     9     8    1
    12     9    19    1
    13     8     7    2
    14     5     4    1
    15     5     6    2
    16     4     3    2
    17     3     2    1
    18     7     6    1
    19     2     1    1
    20     6     1    1
    21     1    16    1
    22     1    17    1
