@<TRIPOS>MOLECULE
3uvx_III_B_1.pdb
 47 46 0 0 0
SMALL
GASTEIGER

@<TRIPOS>ATOM
      1  N         25.6440   48.9420   22.8070 N.3    11  GLY11      -0.1210
      2  CA        26.7110   47.9160   22.9840 C.3    11  GLY11       0.1956
      3  C         26.2210   46.6250   23.6380 C.2    11  GLY11       0.2609
      4  O         25.0110   46.3860   23.8200 O.2    11  GLY11      -0.2717
      5  OH        30.6360   42.7750   19.3980 O.2    12  LYS12      -0.2733
      6  CH        30.4670   41.5720   19.4280 C.2    12  LYS12       0.2419
      7  CH3       31.5130   40.5810   19.0110 C.3    12  LYS12       0.0964
      8  NZ        29.3190   41.0730   19.8590 N.am   12  LYS12      -0.2054
      9  CE        28.1700   41.8700   20.2750 C.3    12  LYS12       0.1151
     10  CD        28.1340   41.7820   21.7720 C.3    12  LYS12       0.0235
     11  CG        27.1150   42.7570   22.3300 C.3    12  LYS12       0.0037
     12  CB        27.5520   43.0760   23.7530 C.3    12  LYS12       0.0259
     13  CA        26.7080   44.1380   24.4390 C.3    12  LYS12       0.1425
     14  N         26.8250   45.4340   23.7770 N.am   12  LYS12      -0.2018
     15  C         27.2800   44.1710   25.8430 C.3    12  LYS12       0.2460
     16  O         28.4770   44.4670   26.0000 O.3    12  LYS12      -0.2017
     17  N         26.6990   45.0390   26.7140 N.3    13  GLY13      -0.1779
     18  CA        27.1770   45.3650   28.1030 C.3    13  GLY13       0.1777
     19  C         27.1530   44.2120   29.0980 C.2    13  GLY13       0.2596
     20  O         27.7650   44.3080   30.1640 O.2    13  GLY13      -0.2718
     21  N         26.4290   43.1360   28.7640 N.am   14  GLY14      -0.1942
     22  CA        26.2460   41.9850   29.6480 C.3    14  GLY14       0.2014
     23  C         27.5590   41.3960   30.1310 C.2    14  GLY14       0.2639
     24  O         28.5890   41.5080   29.4580 O.2    14  GLY14      -0.2714
     25  N         27.5260   40.7820   31.3110 N.am   15  ALA15      -0.1963
     26  CA        28.7130   40.1480   31.8640 C.3    15  ALA15       0.1728
     27  C         29.0130   38.8590   31.0750 C.2    15  ALA15       0.2616
     28  O         28.0870   38.1310   30.6710 O.2    15  ALA15      -0.2715
     29  CB        28.5260   39.8570   33.3500 C.3    15  ALA15       0.0334
     30  OH        28.5820   38.3170   22.8670 O.2    16  LYS16      -0.2733
     31  CH        27.7960   38.0090   23.7530 C.2    16  LYS16       0.2419
     32  CH3       26.7760   36.9310   23.5370 C.3    16  LYS16       0.0964
     33  NZ        27.8000   38.5980   24.9610 N.am   16  LYS16      -0.2054
     34  CE        28.6810   39.6700   25.4410 C.3    16  LYS16       0.1151
     35  CD        29.9130   39.0260   26.0840 C.3    16  LYS16       0.0235
     36  CG        29.6080   38.5870   27.5190 C.3    16  LYS16       0.0041
     37  CB        30.7780   37.8740   28.1850 C.3    16  LYS16       0.0312
     38  CA        30.4470   37.3910   29.6030 C.3    16  LYS16       0.1728
     39  N         30.1740   38.5120   30.4930 N.am   16  LYS16      -0.1963
     40  C         31.5510   36.5590   30.2510 C.2    16  LYS16       0.2616
     41  O         32.0370   35.6300   29.5890 O.2    16  LYS16      -0.2715
     42  N         32.6700   37.0230   30.9020 N.am   17  ARG17      -0.1977
     43  CA        34.0160   36.4650   31.3110 C.3    17  ARG17       0.1596
     44  C         33.9200   35.2160   32.2050 C.2    17  ARG17       0.2287
     45  O         32.9480   34.9850   32.9200 O.2    17  ARG17      -0.2864
     46  CB        34.8940   37.5420   31.9820 C.3    17  ARG17       0.0297
     47  CG        35.7600   38.3400   31.0110 C.3    17  ARG17       0.0023
@<TRIPOS>BOND
     1     7     6    1
     2     5     6    2
     3     6     8   am
     4     8     9    1
     5     9    10    1
     6    10    11    1
     7    11    12    1
     8     1     2    1
     9    30    31    2
    10     2     3    1
    11    32    31    1
    12     3    14   am
    13     3     4    2
    14    12    13    1
    15    31    33   am
    16    14    13    1
    17    13    15    1
    18    33    34    1
    19    34    35    1
    20    15    16    1
    21    15    17    1
    22    35    36    1
    23    17    18    1
    24    36    37    1
    25    18    19    1
    26    37    38    1
    27    21    19   am
    28    21    22    1
    29    19    20    2
    30    24    23    2
    31    41    40    2
    32    38    40    1
    33    38    39    1
    34    22    23    1
    35    23    25   am
    36    40    42   am
    37    39    27   am
    38    28    27    2
    39    42    43    1
    40    47    46    1
    41    27    26    1
    42    25    26    1
    43    43    46    1
    44    43    44    1
    45    26    29    1
    46    44    45    2
