@<TRIPOS>MOLECULE
3uw1_R5P_A_1.pdb
 25 24 0 0 0
SMALL
GASTEIGER

@<TRIPOS>ATOM
      1  C1        45.0320   64.4550   57.9460 C.3   400  R5P400      0.0727
      2  O1        44.7540   64.4730   56.6000 O.3   400  R5P400     -0.3924
      3  C2        45.7780   63.2740   58.4910 C.3   400  R5P400      0.1065
      4  O2        45.6440   62.1700   57.7040 O.3   400  R5P400     -0.3869
      5  C3        45.5620   62.9460   59.9420 C.3   400  R5P400      0.1111
      6  O3        46.6630   62.1660   60.2950 O.3   400  R5P400     -0.3865
      7  C4        44.2570   62.2460   60.2390 C.3   400  R5P400      0.1073
      8  O4        43.2330   62.9870   59.6680 O.3   400  R5P400     -0.3868
      9  C5        44.0850   62.1350   61.7400 C.3   400  R5P400      0.0876
     10  O5        43.9700   63.3690   62.4050 O.3   400  R5P400     -0.2809
     11  P         43.5570   63.4560   63.9280 P.3   400  R5P400      0.5320
     12  O1P       44.6920   62.9730   64.7990 O.3   400  R5P400     -0.1145
     13  O2P       43.2940   64.9100   64.1650 O.3   400  R5P400     -0.1145
     14  O3P       42.3200   62.6250   64.1530 O.2   400  R5P400     -0.2224
     15  H11       45.5530   65.2560   58.1520 H     400  R5P400      0.0584
     16  H12       44.1850   64.5170   58.4250 H     400  R5P400      0.0584
     17  HO1       45.5010   64.6290   56.1460 H     400  R5P400      0.2095
     18  HC2       46.7150   63.5230   58.4230 H     400  R5P400      0.0643
     19  HO2       46.2170   62.2180   57.0280 H     400  R5P400      0.2100
     20  HC3       45.5920   63.7750   60.4520 H     400  R5P400      0.0647
     21  HO3       47.2950   62.6860   60.6390 H     400  R5P400      0.2100
     22  HC4       44.2600   61.3600   59.8480 H     400  R5P400      0.0643
     23  HO4       42.4740   62.8170   60.0920 H     400  R5P400      0.2100
     24  H51       43.2820   61.6150   61.9180 H     400  R5P400      0.0592
     25  H52       44.8440   61.6610   62.1010 H     400  R5P400      0.0592
@<TRIPOS>BOND
     1    17     2    1
     2     2     1    1
     3    19     4    1
     4     4     3    1
     5     1    15    1
     6     1    16    1
     7     1     3    1
     8    18     3    1
     9     3     5    1
    10     8    23    1
    11     8     7    1
    12    22     7    1
    13     5     7    1
    14     5     6    1
    15     5    20    1
    16     7     9    1
    17     6    21    1
    18     9    24    1
    19     9    25    1
    20     9    10    1
    21    10    11    1
    22    11    14    2
    23    11    13    1
    24    11    12    1
