@<TRIPOS>MOLECULE
3uw4_III_Z_1.pdb
 35 38 0 0 0
SMALL
GASTEIGER

@<TRIPOS>ATOM
      1  N        -13.0590   -3.6920    0.5950 N.3     1  ALA1       -0.2087
      2  CM       -14.1980   -4.3870    1.2550 C.3     1  ALA1        0.1080
      3  CA       -13.1320   -3.7330   -0.8860 C.3     1  ALA1        0.1505
      4  CB       -12.2230   -2.6830   -1.5260 C.3     1  ALA1        0.0287
      5  C        -12.7600   -5.1160   -1.3480 C.2     1  ALA1        0.2576
      6  O        -12.1920   -5.8820   -0.5940 O.2     1  ALA1       -0.2718
      7  N        -13.1140   -5.4590   -2.5960 N.am    2  CHG2       -0.1967
      8  CA       -12.9140   -6.7750   -3.2040 C.3     2  CHG2        0.1712
      9  C        -12.2310   -6.6030   -4.5200 C.2     2  CHG2        0.2458
     10  O        -12.6380   -5.7700   -5.3020 O.2     2  CHG2       -0.2730
     11  C1       -14.3000   -7.4020   -3.4990 C.3     2  CHG2        0.0289
     12  C2       -15.2200   -7.3580   -2.2530 C.3     2  CHG2        0.0022
     13  C3       -14.7780   -8.3650   -1.1700 C.3     2  CHG2        0.0001
     14  C4       -14.7020   -9.7870   -1.7400 C.3     2  CHG2        0.0000
     15  C5       -15.0270   -9.8150   -3.2350 C.3     2  CHG2        0.0001
     16  C6       -14.1570   -8.8390   -4.0310 C.3     2  CHG2        0.0022
     17  N        -11.2100   -7.4010   -4.8760 N.am    3  PRO3       -0.2716
     18  CA       -10.5270   -7.2670   -6.1480 C.3     3  PRO3        0.1536
     19  C        -11.3460   -7.7120   -7.3160 C.2     3  PRO3        0.2606
     20  O        -12.2320   -8.5530   -7.1900 O.2     3  PRO3       -0.2715
     21  CB        -9.2750   -8.1830   -6.1230 C.3     3  PRO3        0.0310
     22  CG        -9.1270   -8.6070   -4.6380 C.3     3  PRO3        0.0237
     23  CD       -10.5700   -8.4690   -4.0880 C.3     3  PRO3        0.0939
     24  N25      -11.0250   -7.1180   -8.4830 N.am    4  0DQ4       -0.1867
     25  C26      -11.5930   -7.4940   -9.6840 C.3     4  0DQ4        0.2046
     26  C27      -11.9870   -6.8140  -10.8290 C.2     4  0DQ4        0.1104
     27  N28      -12.4350   -7.6060  -11.8060 N.2     4  0DQ4       -0.1540
     28  N29      -12.4320   -8.8750  -11.6070 N.pl3   4  0DQ4       -0.0819
     29  S30      -11.8040   -9.1630  -10.0390 S.3     4  0DQ4        0.0225
     30  C31      -11.9660   -5.3400  -11.0080 C.ar    4  0DQ4        0.0177
     31  C32      -12.4480   -4.4810  -10.0140 C.ar    4  0DQ4        0.0013
     32  C33      -12.4210   -3.1150  -10.2340 C.ar    4  0DQ4        0.0000
     33  C34      -11.9270   -2.5990  -11.4310 C.ar    4  0DQ4        0.0000
     34  C35      -11.4490   -3.4450  -12.4200 C.ar    4  0DQ4        0.0000
     35  C36      -11.4780   -4.8180  -12.2140 C.ar    4  0DQ4        0.0013
@<TRIPOS>BOND
     1    34    35   ar
     2    34    33   ar
     3    35    30   ar
     4    27    28    1
     5    27    26    2
     6    28    29    1
     7    33    32   ar
     8    30    26    1
     9    30    31   ar
    10    26    25    1
    11    32    31   ar
    12    29    25    1
    13    25    24    1
    14    24    19   am
    15    19    20    2
    16    19    18    1
    17    18    21    1
    18    18    17    1
    19    21    22    1
    20    10     9    2
    21    17     9   am
    22    17    23    1
    23    22    23    1
    24     9     8    1
    25    16    11    1
    26    16    15    1
    27    11     8    1
    28    11    12    1
    29    15    14    1
    30     8     7    1
    31     7     5   am
    32    12    13    1
    33    14    13    1
    34     4     3    1
    35     5     3    1
    36     5     6    2
    37     3     1    1
    38     1     2    1
