@<TRIPOS>MOLECULE
3uw5_III_Y_1.pdb
 35 38 0 0 0
SMALL
GASTEIGER

@<TRIPOS>ATOM
      1  N         68.2450   58.9160   54.1720 N.3     1  ALA1       -0.2087
      2  CM        66.7930   58.9110   54.4440 C.3     1  ALA1        0.1080
      3  CA        68.5560   58.5690   52.7730 C.3     1  ALA1        0.1505
      4  CB        70.0190   58.8980   52.4510 C.3     1  ALA1        0.0287
      5  C         68.3150   57.0970   52.5700 C.2     1  ALA1        0.2576
      6  O         68.4740   56.3280   53.4990 O.2     1  ALA1       -0.2718
      7  N         67.9270   56.6650   51.3540 N.am    2  CHG2       -0.1967
      8  CA        67.6400   55.2600   51.0980 C.3     2  CHG2        0.1712
      9  C         68.1910   54.8360   49.7530 C.2     2  CHG2        0.2458
     10  O         68.3630   55.6580   48.8690 O.2     2  CHG2       -0.2730
     11  C1        66.0920   55.2880   51.1810 C.3     2  CHG2        0.0289
     12  C2        65.5150   54.2790   52.1850 C.3     2  CHG2        0.0022
     13  C3        64.0360   54.6100   52.4660 C.3     2  CHG2        0.0001
     14  C4        63.4320   55.5740   51.4290 C.3     2  CHG2        0.0000
     15  C5        63.8450   55.2290   49.9870 C.3     2  CHG2        0.0001
     16  C6        65.3750   55.2340   49.8170 C.3     2  CHG2        0.0022
     17  N         68.5010   53.5460   49.4790 N.am    3  PRO3       -0.2716
     18  CA        69.0070   53.0950   48.1780 C.3     3  PRO3        0.1539
     19  C         68.0010   53.4190   47.1000 C.2     3  PRO3        0.2642
     20  O         66.8110   53.3480   47.3430 O.2     3  PRO3       -0.2712
     21  CB        69.2160   51.5660   48.2660 C.3     3  PRO3        0.0310
     22  CG        69.3930   51.3460   49.7880 C.3     3  PRO3        0.0237
     23  CD        68.3880   52.3730   50.3690 C.3     3  PRO3        0.0939
     24  N25       68.4230   53.8130   45.8770 N.am    4  0DQ4       -0.1681
     25  C26       67.5420   54.1100   44.8340 C.ar    4  0DQ4        0.1413
     26  C27       67.8450   54.6430   43.5920 C.ar    4  0DQ4        0.1262
     27  N28       66.8000   54.8080   42.7980 N.ar    4  0DQ4       -0.1391
     28  N29       65.6370   54.4620   43.2030 N.ar    4  0DQ4       -0.1081
     29  S30       65.8270   53.8670   44.7750 S.2     4  0DQ4        0.0541
     30  C31       69.1970   55.0770   43.1520 C.ar    4  0DQ4        0.0213
     31  C32       69.9640   55.9000   43.9850 C.ar    4  0DQ4        0.0016
     32  C33       71.2120   56.3420   43.5770 C.ar    4  0DQ4        0.0001
     33  C34       71.7020   55.9720   42.3300 C.ar    4  0DQ4        0.0000
     34  C35       70.9420   55.1640   41.4940 C.ar    4  0DQ4        0.0001
     35  C36       69.6920   54.7180   41.8920 C.ar    4  0DQ4        0.0016
@<TRIPOS>BOND
     1    34    35   ar
     2    34    33   ar
     3    35    30   ar
     4    33    32   ar
     5    27    28   ar
     6    27    26   ar
     7    30    26    1
     8    30    31   ar
     9    28    29   ar
    10    32    31   ar
    11    26    25   ar
    12    29    25   ar
    13    25    24    2
    14    24    19    1
    15    19    20    2
    16    19    18    1
    17    18    21    1
    18    18    17    1
    19    21    22    1
    20    10     9    2
    21    17     9   am
    22    17    23    1
    23     9     8    1
    24    22    23    1
    25    16    15    1
    26    16    11    1
    27    15    14    1
    28     8    11    1
    29     8     7    1
    30    11    12    1
    31     7     5   am
    32    14    13    1
    33    12    13    1
    34     4     3    1
    35     5     3    1
    36     5     6    2
    37     3     1    1
    38     1     2    1
