@<TRIPOS>MOLECULE
3uw8_HEM_A_1.pdb
 43 50 0 0 0
SMALL
GASTEIGER

@<TRIPOS>ATOM
      1  CHA        8.5120  -12.4210   22.4250 C.2   800  HEM800      0.0000
      2  CHB        5.7960   -9.3780   23.9410 C.2   800  HEM800      0.0000
      3  CHC        5.6130   -7.6200   19.9860 C.2   800  HEM800      0.0000
      4  CHD        7.9950  -10.9480   18.4830 C.2   800  HEM800      0.0000
      5  C1A        8.0050  -11.9510   23.6250 C.2   800  HEM800      0.0000
      6  C2A        7.7830  -12.0540   25.0440 C.2   800  HEM800      0.0000
      7  C3A        6.9350  -11.1410   25.5880 C.2   800  HEM800      0.0000
      8  C4A        6.5980  -10.4000   24.3790 C.2   800  HEM800      0.0000
      9  CMA        6.6000  -10.8480   27.0120 C.3   800  HEM800      0.0000
     10  CAA        8.5400  -13.1730   25.7120 C.3   800  HEM800      0.0000
     11  CBA       10.0700  -13.1060   25.9390 C.3   800  HEM800      0.0000
     12  CGA       10.5440  -14.1400   26.7520 C.2   800  HEM800      0.0000
     13  O1A       10.1370  -14.4030   27.9510 O.co2 800  HEM800      0.0000
     14  O2A       11.4510  -14.8370   26.2580 O.co2 800  HEM800      0.0000
     15  C1B        5.3030   -8.2560   23.2890 C.ar  800  HEM800      0.0000
     16  C2B        4.3430   -7.1750   23.4040 C.ar  800  HEM800      0.0000
     17  C3B        4.3000   -6.5900   22.1690 C.ar  800  HEM800      0.0000
     18  C4B        5.2440   -7.3200   21.2960 C.ar  800  HEM800      0.0000
     19  CMB        4.1020   -6.6380   24.7950 C.3   800  HEM800      0.0000
     20  CAB        3.9000   -5.2210   21.7300 C.3   800  HEM800      0.0000
     21  CBB        2.3880   -4.8830   21.9230 C.3   800  HEM800      0.0000
     22  C1C        6.3750   -7.9460   18.8560 C.2   800  HEM800      0.0000
     23  C2C        6.5240   -7.7690   17.4410 C.2   800  HEM800      0.0000
     24  C3C        7.1150   -8.8480   16.9250 C.2   800  HEM800      0.0000
     25  C4C        7.4190   -9.8320   17.9250 C.2   800  HEM800      0.0000
     26  CMC        6.0960   -6.3520   17.0880 C.3   800  HEM800      0.0000
     27  CAC        7.9590   -9.0160   15.6590 C.3   800  HEM800      0.0000
     28  CBC        7.6400   -8.3500   14.2920 C.3   800  HEM800      0.0000
     29  C1D        8.4570  -12.1300   19.0670 C.ar  800  HEM800      0.0000
     30  C2D        8.9760  -13.4680   18.8620 C.ar  800  HEM800      0.0000
     31  C3D        9.0830  -13.9100   20.1380 C.ar  800  HEM800      0.0000
     32  C4D        8.6610  -12.9190   21.1190 C.ar  800  HEM800      0.0000
     33  CMD        9.4860  -14.0850   17.6000 C.3   800  HEM800      0.0000
     34  CAD        9.5420  -15.1700   20.8130 C.2   800  HEM800      0.0000
     35  CBD       11.1200  -15.3890   20.8820 C.2   800  HEM800      0.0000
     36  CGD       11.5660  -16.6620   21.2680 C.2   800  HEM800      0.0000
     37  O1D       12.7560  -16.5830   21.7020 O.co2 800  HEM800      0.0000
     38  O2D       10.8220  -17.6810   21.1650 O.co2 800  HEM800      0.0000
     39  NA         7.2250  -10.8780   23.2450 N.2   800  HEM800      0.0000
     40  NB         5.8460   -8.3430   22.0170 N.ar  800  HEM800      0.0000
     41  NC         6.9450   -9.2100   19.0560 N.2   800  HEM800      0.0000
     42  ND         8.2800  -11.8310   20.4040 N.ar  800  HEM800      0.0000
     43 FE          6.7310  -10.2920   21.1590 Fe    800  HEM800      0.0000
@<TRIPOS>UNITY_ATOM_ATTR
43 1
charge 3
@<TRIPOS>BOND
     1    28    27    1
     2    27    24    1
     3    24    23    2
     4    24    25    1
     5    26    23    1
     6    23    22    1
     7    33    30    1
     8    25     4    1
     9    25    41    2
    10     4    29    2
    11    22    41    1
    12    22     3    2
    13    30    29   ar
    14    30    31   ar
    15    41    43    1
    16    29    42   ar
    17     3    18    1
    18    31    34    1
    19    31    32   ar
    20    42    32   ar
    21    42    43    1
    22    34    35    2
    23    35    36    1
    24    32     1    2
    25    43    40    1
    26    43    39    1
    27    38    36   ar
    28    36    37   ar
    29    18    40   ar
    30    18    17   ar
    31    20    21    1
    32    20    17    1
    33    40    15   ar
    34    17    16   ar
    35     1     5    1
    36    39     5    2
    37    39     8    1
    38    15    16   ar
    39    15     2    1
    40    16    19    1
    41     5     6    1
    42     2     8    2
    43     8     7    1
    44     6     7    2
    45     6    10    1
    46     7     9    1
    47    10    11    1
    48    11    12    1
    49    14    12   ar
    50    12    13   ar
