@<TRIPOS>MOLECULE
3uw9_LYS_E_1.pdb
 12 11 0 0 0
SMALL
GASTEIGER

@<TRIPOS>ATOM
      1  OH        29.4780   -6.1550   35.3310 O.2    11  LYS11      -0.2733
      2  CH        30.6110   -5.6800   35.3030 C.2    11  LYS11       0.2419
      3  CH3       30.9750   -4.7490   34.1720 C.3    11  LYS11       0.0964
      4  NZ        31.5190   -5.9160   36.2820 N.am   11  LYS11      -0.2054
      5  CE        32.8670   -5.3220   36.3810 C.3    11  LYS11       0.1151
      6  CD        33.7180   -5.9900   37.5030 C.3    11  LYS11       0.0235
      7  CG        33.3040   -5.6390   38.9550 C.3    11  LYS11       0.0038
      8  CB        34.0580   -6.5250   39.9870 C.3    11  LYS11       0.0271
      9  CA        35.5240   -6.0380   40.1400 C.3    11  LYS11       0.1561
     10  N         35.7050   -5.1810   41.3280 N.3    11  LYS11      -0.1245
     11  C         36.5610   -7.2090   40.0840 C.2    11  LYS11       0.2260
     12  O         37.7590   -6.9710   39.8260 O.2    11  LYS11      -0.2867
@<TRIPOS>BOND
     1     3     2    1
     2     2     1    2
     3     2     4   am
     4     4     5    1
     5     5     6    1
     6     6     7    1
     7     7     8    1
     8    12    11    2
     9     8     9    1
    10    11     9    1
    11     9    10    1
