@<TRIPOS>MOLECULE
3uw9_III_E_1.pdb
 28 27 0 0 0
SMALL
GASTEIGER

@<TRIPOS>ATOM
      1  OH        42.2550    8.2900   46.6020 O.2     1  LYS1       -0.2733
      2  CH        41.6840    7.3630   47.1820 C.2     1  LYS1        0.2419
      3  CH3       40.5960    7.6100   48.1990 C.3     1  LYS1        0.0964
      4  NZ        42.2890    6.2120   47.0890 N.am    1  LYS1       -0.2054
      5  CE        41.9330    4.8270   47.2220 C.3     1  LYS1        0.1151
      6  CD        42.6390    4.4150   45.8930 C.3     1  LYS1        0.0235
      7  CG        42.4850    3.0150   45.2650 C.3     1  LYS1        0.0038
      8  CB        41.0710    2.5330   45.0990 C.3     1  LYS1        0.0285
      9  CA        41.0840    1.1120   44.5330 C.3     1  LYS1        0.1693
     10  N         41.1410    0.0790   45.6470 N.3     1  LYS1       -0.1231
     11  C         39.9030    0.9870   43.5520 C.2     1  LYS1        0.2593
     12  O         40.1180    0.6450   42.3920 O.2     1  LYS1       -0.2718
     13  N         38.6700    1.2570   43.9830 N.am    2  GLY2       -0.1942
     14  CA        37.5730    1.1450   43.0180 C.3     2  GLY2        0.2014
     15  C         36.3150    0.3780   43.3570 C.2     2  GLY2        0.2639
     16  O         36.0350    0.0930   44.5090 O.2     2  GLY2       -0.2714
     17  N         35.5260    0.0900   42.3200 N.am    3  LEU3       -0.1963
     18  CA        34.2150   -0.5230   42.4840 C.3     3  LEU3        0.1728
     19  C         34.3190   -1.9250   43.0870 C.2     3  LEU3        0.2616
     20  O         33.3940   -2.3650   43.7900 O.2     3  LEU3       -0.2715
     21  CB        33.4810   -0.5600   41.1480 C.3     3  LEU3        0.0311
     22  CG        32.9880    0.8310   40.7500 C.3     3  LEU3        0.0022
     23  CD1       32.4910    0.8480   39.3040 C.3     3  LEU3        0.0001
     24  CD2       31.9040    1.3190   41.7180 C.3     3  LEU3        0.0001
     25  N         35.4520   -2.5880   42.8320 N.am    4  GLY4       -0.1955
     26  CA        35.7710   -3.9010   43.4140 C.3     4  GLY4        0.1869
     27  C         35.2450   -5.0640   42.5800 C.2     4  GLY4        0.2309
     28  O         34.4280   -5.8500   43.0690 O.2     4  GLY4       -0.2863
@<TRIPOS>BOND
     1    23    22    1
     2    22    21    1
     3    22    24    1
     4    21    18    1
     5    17    18    1
     6    17    15   am
     7    12    11    2
     8    18    19    1
     9    27    28    2
    10    27    26    1
    11    25    19   am
    12    25    26    1
    13    14    15    1
    14    14    13    1
    15    19    20    2
    16    15    16    2
    17    11    13   am
    18    11     9    1
    19     9     8    1
    20     9    10    1
    21     8     7    1
    22     7     6    1
    23     6     5    1
    24     1     2    2
    25     4     2   am
    26     4     5    1
    27     2     3    1
