@<TRIPOS>MOLECULE
3uwb_BB2_A_1.pdb
 27 27 0 0 0
SMALL
GASTEIGER

@<TRIPOS>ATOM
      1  C5        11.6330   28.9840   11.8680 C.3   154  BB2154      0.0603
      2  C3        11.5350   29.2450   10.4060 C.2   154  BB2154      0.0873
      3  O4        12.1340   30.1820    9.8790 O.2   154  BB2154     -0.5395
      4  N1        10.7770   28.4330    9.6560 N.am  154  BB2154     -0.2030
      5  O2        10.5610   28.8430    8.3370 O.3   154  BB2154     -0.4026
      6  C6        10.6250   29.8690   12.6180 C.3   154  BB2154      0.0845
      7  C12       10.9560   29.9370   14.0590 C.2   154  BB2154      0.2417
      8  O13       11.2000   28.9180   14.7150 O.2   154  BB2154     -0.2733
      9  C7         9.1950   29.3670   12.4440 C.3   154  BB2154      0.0095
     10  C8         8.1520   30.1730   13.2370 C.3   154  BB2154      0.0005
     11  C9         7.5240   31.2360   12.4650 C.3   154  BB2154      0.0000
     12  C10        6.1030   31.7000   12.9090 C.3   154  BB2154      0.0000
     13  C11        6.0550   31.9890   14.3970 C.3   154  BB2154      0.0000
     14  N14       11.0070   31.2290   14.5370 N.am  154  BB2154     -0.1978
     15  C15       11.1790   31.4960   15.9710 C.3   154  BB2154      0.1711
     16  C16       12.5310   32.1870   16.1920 C.3   154  BB2154      0.0289
     17  C18       12.6840   32.7180   17.6210 C.3   154  BB2154      0.0023
     18  C17       13.6390   31.1880   15.8250 C.3   154  BB2154      0.0023
     19  C19       10.0240   32.3250   16.4210 C.2   154  BB2154      0.2455
     20  O20        9.5850   33.2080   15.7060 O.2   154  BB2154     -0.2730
     21  N21        9.5040   32.1180   17.6660 N.am  154  BB2154     -0.2772
     22  C22        8.1590   32.6950   17.9610 C.3   154  BB2154      0.1083
     23  C23        9.6500   30.7810   18.3040 C.3   154  BB2154      0.0935
     24  C24        8.5920   30.7850   19.4220 C.3   154  BB2154      0.0233
     25  C25        7.4880   31.7160   18.9330 C.3   154  BB2154      0.0243
     26  C26        8.3480   34.0670   18.6130 C.3   154  BB2154      0.2017
     27  O27        7.1500   34.9120   18.6950 O.3   154  BB2154     -0.2186
@<TRIPOS>BOND
     1     5     4    1
     2     4     2   am
     3     3     2    2
     4     2     1    1
     5     1     6    1
     6     9     6    1
     7     9    10    1
     8    11    12    1
     9    11    10    1
    10     6     7    1
    11    12    13    1
    12     7    14   am
    13     7     8    2
    14    14    15    1
    15    20    19    2
    16    18    16    1
    17    15    16    1
    18    15    19    1
    19    16    17    1
    20    19    21   am
    21    21    22    1
    22    21    23    1
    23    22    26    1
    24    22    25    1
    25    23    24    1
    26    26    27    1
    27    25    24    1
