@<TRIPOS>MOLECULE
3uwc_PMP_A_1.pdb
 16 16 0 0 0
SMALL
GASTEIGER

@<TRIPOS>ATOM
      1  N1         4.7420   24.3990    5.4600 N.ar  377  PMP377     -0.2452
      2  C2         4.4910   25.7280    5.1760 C.ar  377  PMP377      0.0978
      3  C2A        3.2950   26.4000    5.8020 C.3   377  PMP377      0.0555
      4  C3         5.3960   26.4510    4.4050 C.ar  377  PMP377      0.2063
      5  O3         5.2090   27.7970    4.1890 O.3   377  PMP377     -0.2856
      6  C4         6.4850   25.7990    3.8280 C.ar  377  PMP377      0.0369
      7  C4A        7.4200   26.5610    2.9160 C.3   377  PMP377      0.1386
      8  N4A        8.6180   26.9260    3.6390 N.3   377  PMP377     -0.1261
      9  C5         6.6670   24.4330    4.0540 C.ar  377  PMP377      0.0275
     10  C6         5.7840   23.7450    4.8790 C.ar  377  PMP377      0.0965
     11  C5A        7.7900   23.6640    3.3900 C.3   377  PMP377      0.1816
     12  O4P        9.0680   24.1450    3.7520 O.3   377  PMP377     -0.2653
     13  P         10.2900   23.8950    2.7230 P.3   377  PMP377      0.5329
     14  O1P       10.1830   24.9610    1.6800 O.2   377  PMP377     -0.2224
     15  O2P       10.1410   22.5170    2.1380 O.3   377  PMP377     -0.1145
     16  O3P       11.5980   24.0140    3.4930 O.3   377  PMP377     -0.1145
@<TRIPOS>BOND
     1    14    13    2
     2    15    13    1
     3    13    16    1
     4    13    12    1
     5     7     8    1
     6     7     6    1
     7    11    12    1
     8    11     9    1
     9     6     9   ar
    10     6     4   ar
    11     9    10   ar
    12     5     4    1
    13     4     2   ar
    14    10     1   ar
    15     2     1   ar
    16     2     3    1
