@<TRIPOS>MOLECULE
3uwe_VJJ_A_1.pdb
 16 17 0 0 0
SMALL
GASTEIGER

@<TRIPOS>ATOM
      1  OAA        0.3160    2.5260   11.5460 O.co2 701  VJJ701     -0.2406
      2  OAB        0.9090    3.4130   13.5000 O.co2 701  VJJ701     -0.2406
      3  CAC       -1.6350    9.1780   15.5340 C.ar  701  VJJ701      0.0002
      4  CAD       -1.9100    8.7510   14.2460 C.ar  701  VJJ701      0.0031
      5  CAE       -1.9300    8.3410   16.5970 C.ar  701  VJJ701      0.0031
      6  CAF       -3.6440    2.7050   12.6610 C.ar  701  VJJ701      0.0033
      7  CAG       -2.5260    7.4880   14.1680 C.ar  701  VJJ701      0.0375
      8  CAH       -2.5370    7.0830   16.5700 C.ar  701  VJJ701      0.0375
      9  CAI       -4.0010    3.7370   13.5300 C.ar  701  VJJ701      0.0375
     10  CAJ       -2.2580    2.5200   12.3330 C.ar  701  VJJ701      0.0068
     11  CAK       -1.6620    4.3620   13.8560 C.ar  701  VJJ701      0.0441
     12  OAL       -3.4210    5.4920   15.0130 O.3   701  VJJ701     -0.4535
     13  CAM        0.0020    3.1020   12.6530 C.2   701  VJJ701      0.3879
     14  CAN       -2.8040    6.6400   15.2820 C.ar  701  VJJ701      0.1453
     15  CAO       -3.0390    4.5570   14.1130 C.ar  701  VJJ701      0.1455
     16  CAP       -1.3150    3.3810   12.9360 C.ar  701  VJJ701      0.0828
@<TRIPOS>BOND
     1     1    13   ar
     2    10     6   ar
     3    10    16   ar
     4    13    16    1
     5    13     2   ar
     6     6     9   ar
     7    16    11   ar
     8     9    15   ar
     9    11    15   ar
    10    15    12    1
    11     7     4   ar
    12     7    14   ar
    13     4     3   ar
    14    12    14    1
    15    14     8   ar
    16     3     5   ar
    17     8     5   ar
