@<TRIPOS>MOLECULE
3uwi_ANH_A_1.pdb
 30 31 0 0 0
SMALL
GASTEIGER

@<TRIPOS>ATOM
      1  N12       -2.5710   17.2460   16.3330 N.am  487  ANH487     -0.1941
      2  C13       -3.7530   16.4530   16.5930 C.3   487  ANH487      0.1978
      3  C30       -3.3020   15.5940   17.7440 C.3   487  ANH487      0.0595
      4  C14       -4.8930   17.2570   17.1330 C.2   487  ANH487      0.3374
      5  O17       -6.0580   16.9380   16.9180 O.2   487  ANH487     -0.2482
      6  O15       -4.6550   18.4270   17.9450 O.3   487  ANH487     -0.4432
      7  C16       -3.4800   18.7540   18.7150 C.3   487  ANH487      0.2557
      8  C21       -2.5150   14.3610   17.3980 C.ar  487  ANH487     -0.0196
      9  C22       -1.5340   13.9830   18.3030 C.ar  487  ANH487     -0.0042
     10  C23       -0.7970   12.8240   18.0670 C.ar  487  ANH487     -0.0001
     11  C24       -1.0540   12.0700   16.9330 C.ar  487  ANH487      0.0080
     12  C25       -2.0350   12.4580   16.0320 C.ar  487  ANH487      0.0972
     13  C26       -2.7750   13.6020   16.2710 C.ar  487  ANH487      0.0038
     14  C27       -2.3010   11.6130   14.8290 C.2   487  ANH487      0.4766
     15  N28       -3.1990   11.9880   13.9270 N.pl3 487  ANH487      0.2047
     16  N29       -1.6410   10.4720   14.6420 N.pl3 487  ANH487      0.2047
     17  C11       -2.4950   18.0020   15.2530 C.2   487  ANH487      0.2616
     18  C10       -1.2130   18.7900   15.0870 C.3   487  ANH487      0.2017
     19  N9        -0.9480   19.0300   13.6710 N.3   487  ANH487     -0.0678
     20  O20       -3.4070   18.0540   14.4400 O.2   487  ANH487     -0.2717
     21  C1         4.3970   22.7940   14.3260 C.3   487  ANH487      0.0310
     22  C2         3.0230   22.2260   14.0400 C.ar  487  ANH487     -0.0218
     23  C3         2.8290   21.5120   12.8680 C.ar  487  ANH487     -0.0029
     24  C4         1.5770   20.9790   12.5670 C.ar  487  ANH487      0.0196
     25  C5         0.4900   21.1590   13.4300 C.ar  487  ANH487      0.1235
     26  C6         0.6950   21.8880   14.6140 C.ar  487  ANH487      0.0196
     27  C7         1.9580   22.4230   14.9260 C.ar  487  ANH487     -0.0029
     28  S8        -0.9430   20.5090   13.0450 S.O2  487  ANH487      0.0773
     29  O18       -1.0530   20.3680   11.6370 O.2   487  ANH487     -0.1516
     30  O19       -1.9980   21.3070   13.5970 O.2   487  ANH487     -0.1516
@<TRIPOS>BOND
     1    29    28    2
     2    24    23   ar
     3    24    25   ar
     4    23    22   ar
     5    28    25    1
     6    28    30    2
     7    28    19    1
     8    25    26   ar
     9    19    18    1
    10    15    14    2
    11    22    21    1
    12    22    27   ar
    13    20    17    2
    14    26    27   ar
    15    16    14    1
    16    14    12    1
    17    18    17    1
    18    17     1   am
    19    12    13   ar
    20    12    11   ar
    21    13     8   ar
    22     1     2    1
    23     2     4    1
    24     2     3    1
    25     5     4    2
    26    11    10   ar
    27     4     6    1
    28     8     3    1
    29     8     9   ar
    30     6     7    1
    31    10     9   ar
