@<TRIPOS>MOLECULE
3uwj_TIF_H_1.pdb
 36 38 0 0 0
SMALL
GASTEIGER

@<TRIPOS>ATOM
      1  C7        14.8430  -15.7840   21.1320 C.3   302  TIF302      0.1969
      2  S8        15.5710  -17.0590   21.9450 S.O2  302  TIF302      0.0620
      3  C4        13.8190  -16.2720   20.1310 C.ar  302  TIF302      0.0030
      4  C5        12.4850  -16.3900   20.5050 C.ar  302  TIF302     -0.0025
      5  C6        11.5400  -16.8390   19.5940 C.ar  302  TIF302     -0.0003
      6  C1        11.9190  -17.1730   18.3000 C.ar  302  TIF302     -0.0000
      7  C2        13.2500  -17.0490   17.9250 C.ar  302  TIF302     -0.0003
      8  C3        14.2020  -16.5980   18.8350 C.ar  302  TIF302     -0.0025
      9  O22       16.3970  -17.8090   21.0310 O.2   302  TIF302     -0.1558
     10  O23       14.5190  -17.8430   22.5220 O.2   302  TIF302     -0.1558
     11  N9        16.4520  -16.4460   23.1400 N.3   302  TIF302     -0.0739
     12  C10       17.7330  -15.7770   22.9870 C.3   302  TIF302      0.1736
     13  C18       18.4130  -15.5580   24.3440 C.3   302  TIF302      0.0287
     14  C19       19.7860  -14.8940   24.2060 C.3   302  TIF302      0.0019
     15  C20       20.2240  -14.1590   25.4710 C.3   302  TIF302      0.0001
     16  C21       20.8460  -15.9030   23.7720 C.3   302  TIF302      0.0001
     17  C11       17.5680  -14.4340   22.3120 C.2   302  TIF302      0.2474
     18  O17       16.6090  -13.7170   22.5970 O.2   302  TIF302     -0.2730
     19  N12       18.4640  -14.0300   21.4120 N.am  302  TIF302     -0.2492
     20  C13       18.2920  -12.7350   20.7490 C.3   302  TIF302      0.1619
     21  C24       16.9600  -12.6890   20.0500 C.2   302  TIF302      0.2604
     22  O33       16.5660  -13.6460   19.3920 O.2   302  TIF302     -0.2715
     23  C14       19.4120  -12.6330   19.7220 C.3   302  TIF302      0.0570
     24  C15       20.3300  -13.8160   19.9600 C.2   302  TIF302     -0.0077
     25  C16       19.6520  -14.7510   20.9490 C.2   302  TIF302      0.0634
     26  N25       16.2230  -11.5800   20.1850 N.am  302  TIF302     -0.1991
     27  C26       14.9060  -11.3920   19.5820 C.3   302  TIF302      0.1415
     28  C27       13.8690  -11.4260   20.6820 C.ar  302  TIF302     -0.0006
     29  C32       13.6630  -10.3140   21.4910 C.ar  302  TIF302     -0.0023
     30  C31       12.7160  -10.3590   22.5040 C.ar  302  TIF302      0.0077
     31  C30       11.9540  -11.4950   22.7290 C.ar  302  TIF302      0.0975
     32  C34       10.9260  -11.5070   23.8190 C.2   302  TIF302      0.4766
     33  N35       10.6640  -10.4300   24.4480 N.pl3 302  TIF302      0.2047
     34  N36       10.2610  -12.6240   24.1270 N.pl3 302  TIF302      0.2047
     35  C29       12.1570  -12.6090   21.9130 C.ar  302  TIF302      0.0077
     36  C28       13.1070  -12.5690   20.8980 C.ar  302  TIF302     -0.0023
@<TRIPOS>BOND
     1     7     6   ar
     2     7     8   ar
     3     6     5   ar
     4     8     3   ar
     5    22    21    2
     6    27    26    1
     7    27    28    1
     8     5     4   ar
     9    23    24    1
    10    23    20    1
    11    24    25    2
    12    21    26   am
    13    21    20    1
    14     3     4   ar
    15     3     1    1
    16    28    36   ar
    17    28    29   ar
    18    20    19    1
    19    36    35   ar
    20    25    19    1
    21     9     2    2
    22     1     2    1
    23    19    17   am
    24    29    30   ar
    25    35    31   ar
    26     2    10    2
    27     2    11    1
    28    17    18    2
    29    17    12    1
    30    30    31   ar
    31    31    32    1
    32    12    11    1
    33    12    13    1
    34    16    14    1
    35    32    34    2
    36    32    33    1
    37    14    13    1
    38    14    15    1
