@<TRIPOS>MOLECULE
3uwk_0DF_A_1.pdb
 17 19 0 0 0
SMALL
GASTEIGER

@<TRIPOS>ATOM
      1  O1        16.5520    2.6110   -9.5450 O.2   800  0DF800     -0.1919
      2  C3        17.2900    3.2170   -8.6710 C.1   800  0DF800      0.2818
      3  N1        18.6020    3.2700   -8.7580 N.am  800  0DF800     -0.1939
      4  C7        19.4170    2.6980   -9.8430 C.3   800  0DF800      0.1324
      5  C2        19.0010    3.9400   -7.6670 C.2   800  0DF800      0.1379
      6  C6        20.2620    4.3710   -7.2320 C.2   800  0DF800      0.0285
      7  C5        20.2830    5.0910   -6.0460 C.2   800  0DF800      0.0219
      8  C4        19.1060    5.4100   -5.3900 C.2   800  0DF800      0.1106
      9  N3        17.9150    5.0540   -5.8480 N.2   800  0DF800     -0.1805
     10  C1        17.8410    4.3210   -6.9810 C.1   800  0DF800      0.1162
     11  N2        16.7840    3.8150   -7.5970 N.2   800  0DF800     -0.2646
     12  C8        21.5330    5.6310   -5.4530 C.ar  800  0DF800      0.0016
     13  C13       22.4470    6.2830   -6.2990 C.ar  800  0DF800      0.0000
     14  C12       23.6130    6.8280   -5.7650 C.ar  800  0DF800      0.0000
     15  C11       23.8310    6.7530   -4.3850 C.ar  800  0DF800      0.0000
     16  C10       22.9150    6.1470   -3.5350 C.ar  800  0DF800      0.0000
     17  C9        21.7460    5.5840   -4.0660 C.ar  800  0DF800      0.0000
@<TRIPOS>BOND
     1     4     3    1
     2     1     2    2
     3     3     2   am
     4     3     5    1
     5     2    11    2
     6     5     6    2
     7     5    10    1
     8    11    10    2
     9     6     7    1
    10    10     9    2
    11    13    14   ar
    12    13    12   ar
    13     7    12    1
    14     7     8    2
    15     9     8    1
    16    14    15   ar
    17    12    17   ar
    18    15    16   ar
    19    17    16   ar
