@<TRIPOS>MOLECULE
3uwl_FOZ_B_1.pdb
 34 36 0 0 0
SMALL
GASTEIGER

@<TRIPOS>ATOM
      1  C         51.3140  -17.4710   26.6290 C.2   316  FOZ316      0.2652
      2  N         51.6600  -17.4060   25.3430 N.am  316  FOZ316     -0.1918
      3  O         51.8750  -16.7650   27.4480 O.2   316  FOZ316     -0.2684
      4  N1        45.4100  -17.8730   31.9970 N.2   316  FOZ316     -0.2723
      5  O1        52.8830  -15.0680   22.8810 O.co2 316  FOZ316     -0.2437
      6  C2        45.2120  -16.8120   31.1920 C.1   316  FOZ316      0.2603
      7  O2        51.5120  -16.7110   22.7690 O.co2 316  FOZ316     -0.2437
      8  N3        44.8970  -16.9290   29.8710 N.2   316  FOZ316     -0.2512
      9  O3        43.7070  -21.8460   28.0480 O.2   316  FOZ316     -0.2649
     10  C4        44.7510  -18.1420   29.2730 C.1   316  FOZ316      0.2256
     11  O4        44.4580  -18.2730   28.0510 O.2   316  FOZ316     -0.2106
     12  N5        44.8840  -20.6340   29.5410 N.am  316  FOZ316     -0.2448
     13  C6        45.6680  -21.6510   30.2810 C.3   316  FOZ316      0.1243
     14  C7        45.4660  -21.5660   31.8000 C.3   316  FOZ316      0.1586
     15  N8        45.4890  -20.2040   32.3350 N.2   316  FOZ316     -0.2090
     16  C9        47.1690  -21.4350   29.9490 C.3   316  FOZ316      0.1340
     17  CA        52.6280  -16.4260   24.8270 C.3   316  FOZ316      0.1986
     18  CB        54.0860  -16.8590   24.9330 C.3   316  FOZ316      0.0451
     19  CD        55.7090  -18.7150   24.5840 C.2   316  FOZ316      0.3649
     20  CG        54.2850  -18.2550   24.3430 C.3   316  FOZ316      0.1164
     21  CT        52.3420  -16.0540   23.3920 C.2   316  FOZ316      0.3842
     22  N10       47.4250  -21.1540   28.5280 N.pl3 316  FOZ316     -0.2358
     23  C11       50.2490  -18.4380   27.1150 C.ar  316  FOZ316      0.0551
     24  C12       49.4330  -19.1510   26.2200 C.ar  316  FOZ316      0.0059
     25  C13       48.4750  -20.0620   26.6930 C.ar  316  FOZ316      0.0162
     26  C14       48.3560  -20.2760   28.0740 C.ar  316  FOZ316      0.0654
     27  C15       49.1820  -19.5750   28.9750 C.ar  316  FOZ316      0.0162
     28  C16       50.1250  -18.6670   28.5000 C.ar  316  FOZ316      0.0059
     29  C4A       44.9270  -19.3470   30.1210 C.3   316  FOZ316      0.2939
     30  C8A       45.2770  -19.1310   31.5440 C.1   316  FOZ316      0.1088
     31  NA2       45.3440  -15.5780   31.7110 N.pl3 316  FOZ316     -0.0221
     32  OE1       55.9310  -19.3600   25.6330 O.co2 316  FOZ316     -0.2457
     33  OE2       56.6000  -18.4560   23.7390 O.co2 316  FOZ316     -0.2457
     34  CP1       43.6550  -21.0310   28.9640 C.2   316  FOZ316      0.3045
@<TRIPOS>BOND
     1     7    21   ar
     2     5    21   ar
     3    21    17    1
     4    33    19   ar
     5    20    19    1
     6    20    18    1
     7    19    32   ar
     8    17    18    1
     9    17     2    1
    10     2     1   am
    11    24    25   ar
    12    24    23   ar
    13     1    23    1
    14     1     3    2
    15    25    26   ar
    16    23    28   ar
    17     9    34    2
    18    11    10    2
    19    26    22    1
    20    26    27   ar
    21    28    27   ar
    22    22    16    1
    23    34    12   am
    24    10     8    2
    25    10    29    1
    26    12    29    1
    27    12    13    1
    28     8     6    2
    29    16    13    1
    30    29    30    1
    31    13    14    1
    32     6    31    1
    33     6     4    2
    34    30     4    2
    35    30    15    2
    36    14    15    1
