@<TRIPOS>MOLECULE
3uwm_0K2_A_1.pdb
 14 13 0 0 0
SMALL
GASTEIGER

@<TRIPOS>ATOM
      1  O20      -27.3520    1.6200  -16.6320 O.3   402  0K2402     -0.1143
      2  P17      -26.2070    0.7290  -16.9690 P.3   402  0K2402      0.5373
      3  O18      -25.8630    1.0310  -18.5210 O.2   402  0K2402     -0.2221
      4  O19      -25.0670    0.7930  -16.0860 O.3   402  0K2402     -0.1143
      5  O16      -27.0280   -0.6490  -16.9440 O.3   402  0K2402     -0.2261
      6  P13      -26.3410   -2.1140  -16.7010 P.3   402  0K2402      0.2233
      7  O15      -24.9080   -2.3170  -17.0710 O.3   402  0K2402     -0.4370
      8  O14      -27.3790   -3.0850  -17.3910 O.2   402  0K2402     -0.5169
      9  O29      -26.4010   -2.2880  -15.1130 O.3   402  0K2402     -0.3089
     10  C28      -27.6080   -2.5950  -14.4070 C.3   402  0K2402      0.1751
     11  C27      -28.7610   -1.5410  -14.3900 C.2   402  0K2402      0.0041
     12  C30      -28.4730   -0.1370  -13.8500 C.2   402  0K2402      0.0070
     13  C13      -29.3750    0.9300  -13.9530 C.3   402  0K2402      0.2081
     14  O33      -29.7360    1.2920  -15.1780 O.3   402  0K2402     -0.2152
@<TRIPOS>BOND
     1     3     2    2
     2     8     6    2
     3     7     6    1
     4     2     5    1
     5     2     1    1
     6     2     4    1
     7     5     6    1
     8     6     9    1
     9    14    13    1
    10     9    10    1
    11    10    11    1
    12    11    12    2
    13    13    12    1
