@<TRIPOS>MOLECULE
3uwm_0JX_A_1.pdb
 14 13 0 0 0
SMALL
GASTEIGER

@<TRIPOS>ATOM
      1  O20      -27.3580    1.6540  -16.6200 O.3   403  0JX403     -0.1143
      2  P17      -26.2170    0.7270  -16.9670 P.3   403  0JX403      0.5373
      3  O19      -25.0720    0.7870  -16.0830 O.3   403  0JX403     -0.1143
      4  O18      -25.8940    1.0460  -18.5190 O.2   403  0JX403     -0.2221
      5  O16      -27.0270   -0.6600  -16.9520 O.3   403  0JX403     -0.2261
      6  P13      -26.3430   -2.1200  -16.7040 P.3   403  0JX403      0.2233
      7  O15      -24.9120   -2.3080  -17.0810 O.3   403  0JX403     -0.4370
      8  O14      -27.3840   -3.0870  -17.3900 O.2   403  0JX403     -0.5169
      9  O29      -26.4070   -2.2980  -15.1240 O.3   403  0JX403     -0.3089
     10  C28      -27.6140   -2.5750  -14.4070 C.3   403  0JX403      0.1751
     11  C27      -28.7970   -1.5670  -14.4820 C.2   403  0JX403      0.0041
     12  C30      -28.5410   -0.1220  -14.0670 C.2   403  0JX403      0.0070
     13  C13      -29.4100    0.9790  -14.2360 C.3   403  0JX403      0.2081
     14  O33      -29.6440    1.4010  -12.9220 O.3   403  0JX403     -0.2152
@<TRIPOS>BOND
     1     4     2    2
     2     8     6    2
     3     7     6    1
     4     2     5    1
     5     2     1    1
     6     2     3    1
     7     5     6    1
     8     6     9    1
     9     9    10    1
    10    11    10    1
    11    11    12    2
    12    13    12    1
    13    13    14    1
