@<TRIPOS>MOLECULE
3uwn_UWN_A_1.pdb
 28 30 0 0 0
SMALL
GASTEIGER

@<TRIPOS>ATOM
      1  N3        12.9900    3.0210  -33.8330 N.pl3 601  UWN601     -0.2169
      2  N4         7.2540    2.7000  -35.6470 N.am  601  UWN601     -0.1998
      3  N2        13.1570    0.9440  -31.2490 N.am  601  UWN601     -0.2760
      4  N1        14.2960   -3.0790  -30.4930 N.3   601  UWN601     -0.2738
      5  OAA        9.0740    2.1700  -36.8520 O.2   601  UWN601     -0.2684
      6  OAB       11.7220    2.3540  -30.2210 O.2   601  UWN601     -0.2699
      7  CAE       14.1140    4.9990  -30.9400 C.3   601  UWN601      0.0318
      8  CAF       15.1500    3.3590  -32.9420 C.3   601  UWN601      0.0489
      9  CAG       13.2550    4.4270  -31.8820 C.2   601  UWN601     -0.0137
     10  CAH        9.0410    1.6520  -33.4340 C.ar  601  UWN601      0.0048
     11  CAI        9.9240    1.5270  -32.3540 C.ar  601  UWN601      0.0060
     12  CAJ       10.7960    2.6890  -34.7240 C.ar  601  UWN601      0.0212
     13  CAM       15.2980   -5.2430  -30.8050 C.3   601  UWN601      0.0188
     14  CAN       15.0830   -4.9650  -29.3330 C.3   601  UWN601      0.0188
     15  CAQ       14.1160   -0.7400  -29.6220 C.3   601  UWN601      0.0375
     16  CAR       13.5060   -1.3130  -32.0460 C.3   601  UWN601      0.0375
     17  CAU       14.9260   -3.9490  -31.5060 C.3   601  UWN601      0.0721
     18  CAV       14.9950   -3.4680  -29.2550 C.3   601  UWN601      0.0721
     19  CAX        6.4770    3.0160  -34.4020 C.3   601  UWN601      0.1388
     20  CAY       13.9560    0.7650  -30.0010 C.3   601  UWN601      0.0951
     21  CAZ       13.6150    0.1540  -32.4190 C.3   601  UWN601      0.0951
     22  CBB        8.5860    2.3800  -35.7470 C.2   601  UWN601      0.2649
     23  CBC       12.0600    1.7720  -31.2520 C.2   601  UWN601      0.2503
     24  CBD       13.7660    3.5900  -32.8840 C.2   601  UWN601      0.0443
     25  CBE        9.4530    2.2480  -34.6300 C.ar  601  UWN601      0.0563
     26  CBF       11.6910    2.5820  -33.6420 C.ar  601  UWN601      0.0746
     27  CBG       11.2600    1.9600  -32.4210 C.ar  601  UWN601      0.0688
     28  CBI       14.4390   -1.6440  -30.8430 C.3   601  UWN601      0.0609
@<TRIPOS>BOND
     1     5    22    2
     2    22     2   am
     3    22    25    1
     4     2    19    1
     5    12    25   ar
     6    12    26   ar
     7    25    10   ar
     8     1    26    1
     9     1    24    1
    10    26    27   ar
    11    10    11   ar
    12     8    24    1
    13    24     9    2
    14    27    11   ar
    15    27    23    1
    16    21    16    1
    17    21     3    1
    18    16    28    1
    19     9     7    1
    20    17    13    1
    21    17     4    1
    22    23     3   am
    23    23     6    2
    24     3    20    1
    25    28     4    1
    26    28    15    1
    27    13    14    1
    28     4    18    1
    29    20    15    1
    30    14    18    1
