@<TRIPOS>MOLECULE
3uwo_0DJ_A_1.pdb
 20 22 0 0 0
SMALL
GASTEIGER

@<TRIPOS>ATOM
      1  C1        12.0670   -2.3290   33.9800 C.2   800  0DJ800      0.1106
      2  C2        10.9470   -3.0460   34.3070 C.2   800  0DJ800      0.0219
      3  C3         9.6940   -2.5070   33.9740 C.2   800  0DJ800      0.0285
      4  C4         9.6560   -1.2920   33.3250 C.2   800  0DJ800      0.1379
      5  C5        10.8420   -0.6340   33.0460 C.1   800  0DJ800      0.1162
      6  N6        12.0020   -1.1730   33.3660 N.2   800  0DJ800     -0.1805
      7  N7         8.6860   -0.5320   32.8940 N.am  800  0DJ800     -0.1939
      8  C8         9.2600    0.5000   32.3380 C.1   800  0DJ800      0.2818
      9  N9        10.5670    0.4820   32.4260 N.2   800  0DJ800     -0.2646
     10  C10        7.2820   -0.8510   32.9690 C.3   800  0DJ800      0.1324
     11  O11        8.6340    1.4300   31.7770 O.2   800  0DJ800     -0.1919
     12  C12       11.0900   -4.3680   34.9840 C.ar  800  0DJ800      0.0017
     13  C13       10.2910   -5.4360   34.5870 C.ar  800  0DJ800      0.0001
     14  C14       10.4100   -6.6720   35.1940 C.ar  800  0DJ800      0.0001
     15  C15       11.3490   -6.8370   36.1880 C.ar  800  0DJ800      0.0046
     16  C16       12.1600   -5.7970   36.5740 C.ar  800  0DJ800      0.0567
     17  C17       12.0380   -4.5670   35.9630 C.ar  800  0DJ800      0.0047
     18  C18       13.1620   -6.0130   37.6950 C.2   800  0DJ800      0.2842
     19  O19       13.5720   -5.0990   38.3330 O.2   800  0DJ800     -0.2667
     20  N20       13.5260   -7.2330   37.9890 N.am  800  0DJ800     -0.0837
@<TRIPOS>BOND
     1    11     8    2
     2     8     9    2
     3     8     7   am
     4     9     5    2
     5     7    10    1
     6     7     4    1
     7     5     4    1
     8     5     6    2
     9     4     3    2
    10     6     1    1
    11     3     2    1
    12     1     2    2
    13     2    12    1
    14    13    12   ar
    15    13    14   ar
    16    12    17   ar
    17    14    15   ar
    18    17    16   ar
    19    15    16   ar
    20    16    18    1
    21    18    20   am
    22    18    19    2
