@<TRIPOS>MOLECULE
3uwp_5ID_A_1.pdb
 20 22 0 0 0
SMALL
GASTEIGER

@<TRIPOS>ATOM
      1  O5'       20.4400   64.8620   -5.7630 O.3   421  5ID421     -0.2176
      2  C5'       20.8530   65.0380   -7.0920 C.3   421  5ID421      0.2143
      3  C4'       20.8370   63.6760   -7.7240 C.3   421  5ID421      0.1851
      4  O4'       19.4510   63.3510   -8.0130 O.3   421  5ID421     -0.3132
      5  C1'       19.5040   62.5930   -9.2590 C.3   421  5ID421      0.3212
      6  N9        18.1260   62.6680   -9.7510 N.pl3 421  5ID421     -0.1464
      7  C8        17.5260   63.8090  -10.1010 C.2   421  5ID421      0.1800
      8  C7        16.2810   63.5670  -10.4620 C.2   421  5ID421      0.0715
      9  C5        16.0410   62.1850  -10.3430 C.3   421  5ID421      0.2499
     10  C6        14.9800   61.2910  -10.5470 C.2   421  5ID421      0.4069
     11  N1        15.1720   59.9830  -10.2930 N.2   421  5ID421     -0.0027
     12  C2        16.3500   59.5210   -9.8500 C.3   421  5ID421      0.5248
     13  N3        17.3860   60.3370   -9.6350 N.2   421  5ID421     -0.0106
     14  C4        17.2570   61.6560   -9.8800 C.2   421  5ID421      0.3220
     15  N6        13.7810   61.6850  -10.9960 N.pl3 421  5ID421      0.2117
     16  C2'       20.4040   63.4640  -10.0780 C.3   421  5ID421      0.2573
     17  O2'       20.8380   62.7390  -11.2260 O.3   421  5ID421     -0.2130
     18  C3'       21.5630   63.6850   -9.0740 C.3   421  5ID421      0.2186
     19  O3'       22.4510   62.5620   -9.0910 O.3   421  5ID421     -0.2174
     20  IAE       15.0690   65.2180  -11.0740 I     421  5ID421     -0.0424
@<TRIPOS>BOND
     1    17    16    1
     2    20     8    1
     3    15    10    1
     4    10     9    1
     5    10    11    2
     6     8     9    1
     7     8     7    2
     8     9    14    1
     9    11    12    1
    10     7     6    1
    11    16     5    1
    12    16    18    1
    13    14     6    1
    14    14    13    2
    15    12    13    1
    16     6     5    1
    17     5     4    1
    18    19    18    1
    19    18     3    1
    20     4     3    1
    21     3     2    1
    22     2     1    1
