@<TRIPOS>MOLECULE
3uwq_U5P_A_1.pdb
 21 22 0 0 0
SMALL
GASTEIGER

@<TRIPOS>ATOM
      1  N1       -17.4330   23.3750  -19.0020 N.am  232  U5P232     -0.1766
      2  C2       -18.3300   22.4080  -19.5080 C.1   232  U5P232      0.2845
      3  N3       -19.2220   22.7450  -20.4620 N.2   232  U5P232     -0.2452
      4  C4       -19.2760   24.0130  -20.9270 C.1   232  U5P232      0.2182
      5  C5       -18.4110   24.9890  -20.4330 C.2   232  U5P232      0.1242
      6  C6       -17.4920   24.6440  -19.4480 C.2   232  U5P232      0.0929
      7  O2       -18.2950   21.2350  -19.0830 O.2   232  U5P232     -0.1918
      8  O4       -20.1110   24.3110  -21.8030 O.2   232  U5P232     -0.2085
      9  C1'      -16.5030   22.9850  -17.9350 C.3   232  U5P232      0.2401
     10  C2'      -15.0180   23.2190  -18.1660 C.3   232  U5P232      0.2319
     11  O2'      -14.3630   22.1120  -18.7790 O.3   232  U5P232     -0.2157
     12  C3'      -14.5230   23.4660  -16.7510 C.3   232  U5P232      0.2158
     13  C4'      -15.6820   24.1880  -16.0920 C.3   232  U5P232      0.1801
     14  O3'      -14.2610   22.2360  -16.0520 O.3   232  U5P232     -0.2175
     15  O4'      -16.8520   23.7990  -16.8150 O.3   232  U5P232     -0.3320
     16  C5'      -15.5140   25.7030  -16.1240 C.3   232  U5P232      0.1859
     17  O5'      -15.1610   26.1460  -17.4370 O.3   232  U5P232     -0.2675
     18  P        -14.4730   27.5780  -17.6870 P.3   232  U5P232      0.5327
     19  O1P      -13.0150   27.4170  -17.3040 O.3   232  U5P232     -0.1145
     20  O2P      -14.6730   27.8520  -19.1610 O.2   232  U5P232     -0.2224
     21  O3P      -15.2610   28.5300  -16.8150 O.3   232  U5P232     -0.1145
@<TRIPOS>BOND
     1     8     4    2
     2     4     3    2
     3     4     5    1
     4     3     2    2
     5     5     6    2
     6     2     7    2
     7     2     1   am
     8     6     1    1
     9    20    18    2
    10     1     9    1
    11    11    10    1
    12    10     9    1
    13    10    12    1
    14     9    15    1
    15    18    17    1
    16    18    19    1
    17    18    21    1
    18    17    16    1
    19    15    13    1
    20    12    13    1
    21    12    14    1
    22    16    13    1
