@<TRIPOS>MOLECULE
3uwr_NAD_A_1.pdb
 44 48 0 0 0
SMALL
GASTEIGER

@<TRIPOS>ATOM
      1  PA         7.7900   14.8820  175.8940 P.3   287  NAD287      0.2189
      2  O1A        7.3520   16.1960  175.2750 O.2   287  NAD287     -0.5170
      3  O2A        6.9760   14.2510  177.0060 O.3   287  NAD287     -0.4371
      4  O5B        9.2940   15.0820  176.4370 O.3   287  NAD287     -0.3112
      5  C5B       10.1980   15.9310  175.7230 C.3   287  NAD287      0.1813
      6  C4B       10.9590   16.8120  176.6940 C.3   287  NAD287      0.1821
      7  O4B       12.0220   17.4630  175.9880 O.3   287  NAD287     -0.3135
      8  C3B       10.0550   17.8980  177.2660 C.3   287  NAD287      0.2184
      9  O3B       10.1910   17.9460  178.6930 O.3   287  NAD287     -0.2174
     10  C2B       10.6120   19.1690  176.6780 C.3   287  NAD287      0.2570
     11  O2B       10.5000   20.2730  177.5810 O.3   287  NAD287     -0.2130
     12  C1B       12.0680   18.8190  176.4120 C.3   287  NAD287      0.3186
     13  N9A       12.5570   19.7620  175.3890 N.pl3 287  NAD287     -0.1439
     14  C8A       11.9740   19.9870  174.1890 C.3   287  NAD287      0.3377
     15  N7A       12.6530   20.9460  173.4990 N.2   287  NAD287     -0.2095
     16  C5A       13.6780   21.3560  174.2740 C.2   287  NAD287      0.2526
     17  C6A       14.7670   22.3450  174.1570 C.2   287  NAD287      0.4393
     18  N6A       14.8900   23.1030  173.0390 N.pl3 287  NAD287      0.2180
     19  N1A       15.6270   22.4610  175.1980 N.2   287  NAD287      0.0021
     20  C2A       15.5030   21.7100  176.3090 C.3   287  NAD287      0.5254
     21  N3A       14.5280   20.8010  176.4950 N.2   287  NAD287     -0.0055
     22  C4A       13.6020   20.5830  175.5270 C.2   287  NAD287      0.3518
     23  O3         7.9490   13.8430  174.6630 O.3   287  NAD287     -0.2703
     24  PN         8.7940   12.4710  174.7140 P.3   287  NAD287      0.2189
     25  O1N        7.9580   11.3660  174.1070 O.2   287  NAD287     -0.5170
     26  O2N        9.3960   12.3010  176.0980 O.3   287  NAD287     -0.4371
     27  O5D        9.9670   12.8460  173.6720 O.3   287  NAD287     -0.3112
     28  C5D       11.3100   12.3940  173.8470 C.3   287  NAD287      0.1813
     29  C4D       11.8970   12.0180  172.4820 C.3   287  NAD287      0.1799
     30  O4D       11.1480   10.9210  171.9250 O.3   287  NAD287     -0.3327
     31  C3D       11.8390   13.1700  171.4930 C.3   287  NAD287      0.2158
     32  O3D       13.1260   13.2890  170.8550 O.3   287  NAD287     -0.2175
     33  C2D       10.7760   12.7550  170.4930 C.3   287  NAD287      0.2309
     34  O2D       11.0640   13.1950  169.1580 O.3   287  NAD287     -0.2158
     35  C1D       10.7860   11.2420  170.5730 C.3   287  NAD287      0.2263
     36  N1N        9.4760   10.6940  170.2160 N.pl3 287  NAD287     -0.2787
     37  C2N        9.2890   10.2240  168.9770 C.3   287  NAD287      0.1244
     38  C3N        8.0660    9.7030  168.5770 C.2   287  NAD287      0.0544
     39  C7N        7.9100    9.2100  167.1710 C.2   287  NAD287      0.2818
     40  O7N        8.6140    9.7310  166.3130 O.2   287  NAD287     -0.2670
     41  N7N        7.0260    8.2460  166.9020 N.am  287  NAD287     -0.0839
     42  C4N        7.0170    9.6550  169.4830 C.2   287  NAD287      0.0033
     43  C5N        7.2390   10.1480  170.7660 C.2   287  NAD287      0.0157
     44  C6N        8.4830   10.6680  171.1140 C.2   287  NAD287      0.0633
@<TRIPOS>BOND
     1    40    39    2
     2    41    39   am
     3    39    38    1
     4    38    37    1
     5    38    42    2
     6    37    36    1
     7    34    33    1
     8    42    43    1
     9    36    35    1
    10    36    44    1
    11    33    35    1
    12    33    31    1
    13    35    30    1
    14    43    44    2
    15    32    31    1
    16    31    29    1
    17    30    29    1
    18    29    28    1
    19    18    17    1
    20    15    14    1
    21    15    16    2
    22    27    28    1
    23    27    24    1
    24    25    24    2
    25    17    16    1
    26    17    19    2
    27    14    13    1
    28    16    22    1
    29    23    24    1
    30    23     1    1
    31    24    26    1
    32    19    20    1
    33     2     1    2
    34    13    22    1
    35    13    12    1
    36    22    21    2
    37     5     4    1
    38     5     6    1
    39     1     4    1
    40     1     3    1
    41     7    12    1
    42     7     6    1
    43    20    21    1
    44    12    10    1
    45    10     8    1
    46    10    11    1
    47     6     8    1
    48     8     9    1
