@<TRIPOS>MOLECULE
3ux0_0DV_A_1.pdb
 34 37 0 0 0
SMALL
GASTEIGER

@<TRIPOS>ATOM
      1  CAQ       26.8490  -18.4510    0.7040 C.3   238  0DV238      0.0043
      2  CAP       26.0880  -18.3320   -0.6440 C.3   238  0DV238      0.0178
      3  CAR       26.7310  -17.1870   -1.4570 C.3   238  0DV238      0.0043
      4  CAN       24.5500  -18.1460   -0.4430 C.2   238  0DV238     -0.0498
      5  CAF       23.5800  -18.9990   -0.9040 C.2   238  0DV238     -0.0198
      6  CAM       24.0280  -17.0540    0.2980 C.3   238  0DV238      0.0221
      7  CAL       22.5610  -17.0100   -0.1190 C.3   238  0DV238      0.0121
      8  CAE       22.2960  -18.4870   -0.4350 C.3   238  0DV238      0.0351
      9  CAO       21.1260  -18.5290   -1.4760 C.3   238  0DV238      0.0085
     10  CAD       21.8400  -19.0350    0.8000 C.2   238  0DV238     -0.0314
     11  CAC       22.2490  -19.9920    1.6700 C.2   238  0DV238     -0.0462
     12  CAK       21.6090  -20.3020    2.9090 C.3   238  0DV238      0.0510
     13  CAV       20.1480  -20.7500    2.6770 C.3   238  0DV238      0.1860
     14  OBH       19.2740  -20.4050    3.7770 O.3   238  0DV238     -0.2201
     15  CAJ       22.3940  -21.4140    3.6210 C.3   238  0DV238      0.0070
     16  CAI       23.6950  -21.5320    2.8690 C.3   238  0DV238      0.0045
     17  CAB       23.4060  -20.8290    1.4940 C.3   238  0DV238      0.0206
     18  CAA       23.2960  -21.9190    0.3470 C.3   238  0DV238      0.0370
     19  CAS       21.8380  -22.3100   -0.1030 C.3   238  0DV238      0.0030
     20  CAH       24.1450  -21.5160   -0.8650 C.3   238  0DV238      0.1831
     21  OAU       24.2000  -22.6490   -1.7670 O.3   238  0DV238     -0.2202
     22  CAG       23.6470  -20.2440   -1.6740 C.3   238  0DV238      0.1660
     23  O1        24.5160  -20.1190   -2.8300 O.3   238  0DV238     -0.3242
     24  C1        23.8490  -20.1970   -4.1560 C.3   238  0DV238      0.2698
     25  O5        23.0640  -18.9830   -4.4500 O.3   238  0DV238     -0.3256
     26  C5        23.7790  -17.7330   -4.7460 C.3   238  0DV238      0.1835
     27  C6        23.1800  -17.1500   -6.0350 C.3   238  0DV238      0.2142
     28  O6        21.8940  -16.6280   -5.7120 O.3   238  0DV238     -0.2176
     29  C4        25.3000  -17.9450   -4.8810 C.3   238  0DV238      0.2144
     30  O4        25.9810  -16.6830   -5.2430 O.3   238  0DV238     -0.2176
     31  C3        25.5570  -19.1400   -5.8590 C.3   238  0DV238      0.2198
     32  O3        26.9470  -19.3110   -6.1560 O.3   238  0DV238     -0.2174
     33  C2        24.8670  -20.4860   -5.3320 C.3   238  0DV238      0.2406
     34  O2        25.8220  -21.5670   -5.0180 O.3   238  0DV238     -0.2149
@<TRIPOS>BOND
     1    32    31    1
     2    27    28    1
     3    27    26    1
     4    31    33    1
     5    31    29    1
     6    33    34    1
     7    33    24    1
     8    30    29    1
     9    29    26    1
    10    26    25    1
    11    25    24    1
    12    24    23    1
    13    23    22    1
    14    21    20    1
    15    22     5    1
    16    22    20    1
    17     9     8    1
    18     3     2    1
    19     5     4    2
    20     5     8    1
    21    20    18    1
    22     2     4    1
    23     2     1    1
    24     4     6    1
    25     8     7    1
    26     8    10    1
    27     7     6    1
    28    19    18    1
    29    18    17    1
    30    10    11    2
    31    17    11    1
    32    17    16    1
    33    11    12    1
    34    13    12    1
    35    13    14    1
    36    16    15    1
    37    12    15    1
