@<TRIPOS>MOLECULE
3ux8_ADP_A_1.pdb
 27 29 0 0 0
SMALL
GASTEIGER

@<TRIPOS>ATOM
      1  PB        40.2060   48.6590   24.2690 P.3   1001  ADP1001     0.5373
      2  O1B       39.4320   47.7360   25.1900 O.3   1001  ADP1001    -0.1143
      3  O2B       41.0300   47.8980   23.2590 O.2   1001  ADP1001    -0.2221
      4  O3B       40.9590   49.7730   24.9710 O.3   1001  ADP1001    -0.1143
      5  PA        38.9810   50.9810   23.1350 P.3   1001  ADP1001     0.2231
      6  O1A       40.2410   51.5260   22.5390 O.2   1001  ADP1001    -0.5169
      7  O2A       38.4300   51.5990   24.4060 O.3   1001  ADP1001    -0.4370
      8  O3A       39.0590   49.3850   23.4030 O.3   1001  ADP1001    -0.2261
      9  O5'       37.9120   51.0780   21.9440 O.3   1001  ADP1001    -0.3111
     10  C5'       36.5520   50.7020   22.1000 C.3   1001  ADP1001     0.1813
     11  C4'       35.8440   51.0020   20.7790 C.3   1001  ADP1001     0.1821
     12  O4'       35.7750   52.4230   20.5740 O.3   1001  ADP1001    -0.3135
     13  C3'       36.5900   50.4060   19.5990 C.3   1001  ADP1001     0.2184
     14  O3'       35.6500   49.7480   18.7450 O.3   1001  ADP1001    -0.2174
     15  C2'       37.2040   51.5980   18.8870 C.3   1001  ADP1001     0.2570
     16  O2'       37.2290   51.4220   17.4620 O.3   1001  ADP1001    -0.2130
     17  C1'       36.3550   52.7910   19.3250 C.3   1001  ADP1001     0.3186
     18  N9        37.1960   54.0080   19.4810 N.pl3 1001  ADP1001    -0.1439
     19  C8        38.1670   54.2170   20.4100 C.3   1001  ADP1001     0.3377
     20  N7        38.7430   55.4430   20.2430 N.2   1001  ADP1001    -0.2095
     21  C5        38.1330   56.0310   19.1910 C.2   1001  ADP1001     0.2526
     22  C6        38.2400   57.3180   18.4690 C.2   1001  ADP1001     0.4393
     23  N6        39.1390   58.2420   18.8540 N.pl3 1001  ADP1001     0.2180
     24  N1        37.4120   57.5440   17.4210 N.2   1001  ADP1001     0.0021
     25  C2        36.5040   56.6270   17.0170 C.3   1001  ADP1001     0.5254
     26  N3        36.3500   55.4290   17.6170 N.2   1001  ADP1001    -0.0055
     27  C4        37.1190   55.0800   18.6880 C.2   1001  ADP1001     0.3518
@<TRIPOS>BOND
     1    25    24    1
     2    25    26    1
     3    24    22    2
     4    16    15    1
     5    26    27    2
     6    22    23    1
     7    22    21    1
     8    27    21    1
     9    27    18    1
    10    14    13    1
    11    15    17    1
    12    15    13    1
    13    21    20    2
    14    17    18    1
    15    17    12    1
    16    18    19    1
    17    13    11    1
    18    20    19    1
    19    12    11    1
    20    11    10    1
    21     9    10    1
    22     9     5    1
    23     6     5    2
    24     5     8    1
    25     5     7    1
    26     3     1    2
    27     8     1    1
    28     1     4    1
    29     1     2    1
