@<TRIPOS>MOLECULE
3uxd_0CU_A_1.pdb
 11 12 0 0 0
SMALL
GASTEIGER

@<TRIPOS>ATOM
      1  CAK        8.5550   -0.9930    9.0210 C.ar  291  0CU291      0.1344
      2  NAG        9.5340   -1.4190    8.2540 N.ar  291  0CU291     -0.1262
      3  NAE       10.6120   -1.0900    8.7570 N.ar  291  0CU291     -0.0420
      4  NAF       10.4700   -0.4670    9.8150 N.ar  291  0CU291     -0.1270
      5  CAJ        9.1830   -0.3480   10.0640 C.ar  291  0CU291      0.1255
      6  CAD        8.4560    0.2500   11.0660 C.ar  291  0CU291      0.0340
      7  CAH        7.0940    0.1330   10.9720 C.ar  291  0CU291      0.0602
      8 CLA         6.1480    0.8410   12.1700 Cl    291  0CU291     -0.0822
      9  CAC        6.4240   -0.4970    9.9360 C.ar  291  0CU291      0.0245
     10  CAI        7.1750   -1.0790    8.9420 C.ar  291  0CU291      0.0794
     11 CLB         6.3910   -1.8970    7.6300 Cl    291  0CU291     -0.0805
@<TRIPOS>BOND
     1    11    10    1
     2     2     3   ar
     3     2     1   ar
     4     3     4   ar
     5    10     1   ar
     6    10     9   ar
     7     1     5   ar
     8     4     5   ar
     9     9     7   ar
    10     5     6   ar
    11     7     6   ar
    12     7     8    1
