@<TRIPOS>MOLECULE
3uxe_465_A_1.pdb
 21 23 0 0 0
SMALL
GASTEIGER

@<TRIPOS>ATOM
      1  C1        -4.1450   -3.7720  -15.3050 C.2   303  465303      0.0563
      2  C2        -4.1130   -5.2810  -15.3720 C.3   303  465303      0.1173
      3  C3        -3.2660   -6.0430  -16.1590 C.2   303  465303      0.1329
      4  C4        -2.3020   -5.3050  -16.9220 C.2   303  465303      0.1001
      5  C5        -2.2410   -3.8680  -16.7820 C.3   303  465303      0.1612
      6  C6        -3.1370   -2.9720  -16.0460 C.2   303  465303      0.0975
      7  C7        -5.1830   -5.8970  -14.6270 C.2   303  465303      0.0461
      8  C8        -5.3120   -7.2660  -14.5950 C.2   303  465303      0.0378
      9  C9        -4.3820   -7.9490  -15.4050 C.2   303  465303      0.1872
     10  N10       -3.3320   -7.3650  -16.1200 N.2   303  465303     -0.3996
     11  N11       -5.1880   -3.4560  -14.4740 N.am  303  465303     -0.2556
     12  C12       -5.7370   -4.6440  -14.0800 C.2   303  465303      0.2494
     13  O13       -6.7660   -4.6470  -13.3410 O.2   303  465303     -0.2699
     14  C14       -5.6610   -2.1060  -14.0350 C.3   303  465303      0.1201
     15  N15       -2.9280   -1.5780  -16.0490 N.pl3 303  465303     -0.1301
     16 CL1        -0.9940   -3.2360  -17.7690 Cl    303  465303     -0.1021
     17  N17       -1.3660   -5.9040  -17.6740 N.2   303  465303     -0.2687
     18  C18       -1.2640   -7.3010  -17.7770 C.3   303  465303      0.1514
     19  C19       -4.3780   -9.4240  -15.4460 C.2   303  465303      0.3138
     20  O20       -5.2270  -10.0610  -14.7410 O.2   303  465303     -0.2638
     21  N21       -3.4540  -10.0080  -16.1900 N.am  303  465303     -0.0814
@<TRIPOS>BOND
     1    18    17    1
     2    16     5    1
     3    17     4    2
     4     4     5    1
     5     4     3    1
     6     5     6    1
     7    21    19   am
     8     3    10    2
     9     3     2    1
    10    10     9    2
    11    15     6    1
    12     6     1    2
    13    19     9    1
    14    19    20    2
    15     9     8    1
    16     2     1    1
    17     2     7    1
    18     1    11    1
    19     7     8    2
    20     7    12    1
    21    11    12   am
    22    11    14    1
    23    12    13    2
