@<TRIPOS>MOLECULE
3uxh_UXH_A_1.pdb
 20 22 0 0 0
SMALL
GASTEIGER

@<TRIPOS>ATOM
      1  N1        -3.3250   -7.4110  -16.2410 N.2   303  UXH303     -0.3998
      2 CL1        -0.8870   -3.1420  -17.8490 Cl    303  UXH303     -0.0793
      3  C2        -3.2070   -6.1120  -16.3290 C.ar  303  UXH303      0.1497
      4  C3        -4.0810   -5.2640  -15.5800 C.ar  303  UXH303      0.0468
      5  C4        -5.0960   -5.7900  -14.8390 C.2   303  UXH303      0.0427
      6  C5        -5.2880   -7.1470  -14.7720 C.3   303  UXH303      0.0949
      7  C6        -4.3540   -7.9340  -15.5210 C.2   303  UXH303      0.1698
      8  C7        -2.1210   -5.4220  -17.0600 C.ar  303  UXH303      0.1304
      9  C8        -2.1340   -3.9640  -16.9520 C.ar  303  UXH303      0.0948
     10  C9        -3.0700   -3.0920  -16.2030 C.ar  303  UXH303      0.1147
     11  C10       -4.1180   -3.8660  -15.5190 C.ar  303  UXH303      0.0741
     12  N11       -1.1830   -6.0880  -17.8220 N.pl3 303  UXH303     -0.1244
     13  N13       -2.9300   -1.6880  -16.1780 N.pl3 303  UXH303     -0.1258
     14  C14       -4.3140   -9.3800  -15.6080 C.2   303  UXH303      0.3100
     15  N15       -5.2210  -10.0050  -14.8460 N.am  303  UXH303     -0.0817
     16  O16       -3.4580  -10.0090  -16.2660 O.2   303  UXH303     -0.2642
     17  C17       -5.7120   -4.6070  -14.2570 C.2   303  UXH303      0.2493
     18  N18       -5.1120   -3.4720  -14.6720 N.am  303  UXH303     -0.2523
     19  O19       -6.7580   -4.5920  -13.4470 O.2   303  UXH303     -0.2699
     20  C20       -5.4730   -2.0660  -14.3520 C.3   303  UXH303      0.1204
@<TRIPOS>BOND
     1     2     9    1
     2    12     8    1
     3     8     9   ar
     4     8     3   ar
     5     9    10   ar
     6     3     1    2
     7     3     4   ar
     8    16    14    2
     9     1     7    2
    10    10    13    1
    11    10    11   ar
    12    14     7    1
    13    14    15   am
    14     4    11   ar
    15     4     5    2
    16     7     6    1
    17    11    18    1
    18     5     6    1
    19     5    17    1
    20    18    20    1
    21    18    17   am
    22    17    19    2
