@<TRIPOS>MOLECULE
3uxj_NAP_A_1.pdb
 39 42 0 0 0
SMALL
GASTEIGER

@<TRIPOS>ATOM
      1  PA       -28.5590  -17.3950    4.3370 P.3   291  NAP291      0.2189
      2  O1A      -29.4060  -16.6000    5.2670 O.3   291  NAP291     -0.4371
      3  O2A      -29.0570  -18.9370    4.3330 O.2   291  NAP291     -0.5170
      4  O5B      -26.9980  -17.2310    4.7250 O.3   291  NAP291     -0.3112
      5  C5B      -26.6130  -16.7010    5.9950 C.3   291  NAP291      0.1813
      6  C4B      -25.1270  -16.9530    6.1980 C.3   291  NAP291      0.1820
      7  O4B      -24.9230  -18.3710    6.0040 O.3   291  NAP291     -0.3136
      8  C3B      -24.2770  -16.1940    5.1670 C.3   291  NAP291      0.2157
      9  O3B      -23.0750  -15.6650    5.7330 O.3   291  NAP291     -0.2175
     10  C2B      -23.7980  -17.2520    4.2220 C.3   291  NAP291      0.2314
     11  O2B      -22.4900  -17.0460    3.6490 O.3   291  NAP291     -0.2630
     12  C1B      -23.7810  -18.4840    5.1580 C.3   291  NAP291      0.3158
     13  N9A      -23.9380  -19.7260    4.3690 N.pl3 291  NAP291     -0.1439
     14  C8A      -24.9590  -19.9880    3.5320 C.3   291  NAP291      0.3377
     15  N7A      -24.7610  -21.2070    2.9750 N.2   291  NAP291     -0.2095
     16  C5A      -23.5500  -21.6780    3.4350 C.2   291  NAP291      0.2526
     17  C6A      -22.7970  -22.8240    3.2240 C.2   291  NAP291      0.4393
     18  N6A      -23.2480  -23.7710    2.3660 N.pl3 291  NAP291      0.2180
     19  N1A      -21.6190  -22.9540    3.8750 N.2   291  NAP291      0.0021
     20  C2A      -21.1330  -22.0680    4.7370 C.3   291  NAP291      0.5254
     21  N3A      -21.9050  -20.9550    4.9750 N.2   291  NAP291     -0.0055
     22  C4A      -23.0680  -20.7550    4.3370 C.2   291  NAP291      0.3518
     23  O3       -28.6100  -16.6640    2.8920 O.3   291  NAP291     -0.2703
     24  PN       -27.3290  -16.3450    1.9500 P.3   291  NAP291      0.2189
     25  O1N      -26.5510  -17.6290    1.9330 O.3   291  NAP291     -0.4371
     26  O2N      -27.8080  -15.8750    0.5950 O.2   291  NAP291     -0.5170
     27  O5D      -26.3820  -15.1790    2.6300 O.3   291  NAP291     -0.3112
     28  C5D      -26.6400  -13.8070    3.0760 C.3   291  NAP291      0.1812
     29  C4D      -26.0470  -12.7300    2.1260 C.3   291  NAP291      0.1780
     30  O4D      -25.4250  -11.4530    2.5270 O.3   291  NAP291     -0.3482
     31  C3D      -24.8850  -13.2420    1.3360 C.3   291  NAP291      0.2140
     32  O3D      -25.1090  -14.3570    0.4870 O.3   291  NAP291     -0.2176
     33  C2D      -24.7030  -12.0160    0.4590 C.3   291  NAP291      0.2140
     34  O2D      -25.6470  -12.1010   -0.6040 O.3   291  NAP291     -0.2176
     35  C1D      -25.0020  -10.8060    1.2700 C.3   291  NAP291      0.1777
     36  P2B      -22.0050  -16.1170    2.3600 P.3   291  NAP291      0.5328
     37  O1X      -23.2270  -15.9080    1.5130 O.2   291  NAP291     -0.2224
     38  O2X      -20.6960  -16.5670    1.5330 O.3   291  NAP291     -0.1145
     39  O3X      -21.4780  -14.8040    3.0880 O.3   291  NAP291     -0.1145
@<TRIPOS>BOND
     1    34    33    1
     2    33    35    1
     3    33    31    1
     4    32    31    1
     5    26    24    2
     6    35    30    1
     7    31    29    1
     8    37    36    2
     9    38    36    1
    10    25    24    1
    11    24    27    1
    12    24    23    1
    13    29    30    1
    14    29    28    1
    15    36    39    1
    16    36    11    1
    17    18    17    1
    18    27    28    1
    19    23     1    1
    20    15    16    2
    21    15    14    1
    22    17    16    1
    23    17    19    2
    24    16    22    1
    25    14    13    1
    26    11    10    1
    27    19    20    1
    28    10    12    1
    29    10     8    1
    30     3     1    2
    31     1     4    1
    32     1     2    1
    33    22    13    1
    34    22    21    2
    35    13    12    1
    36     4     5    1
    37    20    21    1
    38    12     7    1
    39     8     9    1
    40     8     6    1
    41     5     6    1
    42     7     6    1
