@<TRIPOS>MOLECULE
3uxj_PRF_A_1.pdb
 13 14 0 0 0
SMALL
GASTEIGER

@<TRIPOS>ATOM
      1  N1       -19.4730  -29.1900    0.7320 N.2   1194  PRF1194    -0.2525
      2  C2       -19.8520  -29.3890    1.9790 C.1   1194  PRF1194     0.2602
      3  N3       -20.9490  -28.8760    2.5220 N.2   1194  PRF1194    -0.2733
      4  C4       -21.6900  -28.0840    1.7100 C.1   1194  PRF1194     0.0973
      5  C5       -21.3550  -27.7810    0.4410 C.3   1194  PRF1194     0.2372
      6  C6       -20.1840  -28.3740   -0.0720 C.1   1194  PRF1194     0.2101
      7  O6       -19.7640  -28.1720   -1.2780 O.2   1194  PRF1194    -0.2120
      8  C7       -22.4320  -26.9320   -0.0400 C.2   1194  PRF1194     0.0258
      9  C10      -22.5660  -26.3130   -1.3120 C.3   1194  PRF1194     0.1351
     10  N11      -21.5170  -26.3510   -2.2320 N.3   1194  PRF1194    -0.1264
     11  C8       -23.3420  -26.7780    1.0130 C.2   1194  PRF1194     0.1053
     12  N9       -22.9020  -27.4660    2.0580 N.2   1194  PRF1194    -0.1847
     13  N2       -19.0390  -30.1740    2.7950 N.pl3 1194  PRF1194    -0.0221
@<TRIPOS>BOND
     1    10     9    1
     2     9     8    1
     3     7     6    2
     4     6     5    1
     5     6     1    2
     6     8     5    1
     7     8    11    2
     8     5     4    1
     9     1     2    2
    10    11    12    1
    11     4    12    2
    12     4     3    2
    13     2     3    2
    14     2    13    1
