@<TRIPOS>MOLECULE
3uxk_BHO_A_1.pdb
 10 10 0 0 0
SMALL
GASTEIGER

@<TRIPOS>ATOM
      1  C1        51.7760  -52.3830   17.6340 C.ar  361  BHO361      0.0227
      2  C2        50.4590  -52.3880   18.1100 C.ar  361  BHO361      0.0019
      3  C3        49.7080  -51.2100   18.0950 C.ar  361  BHO361      0.0001
      4  C4        50.2470  -50.0300   17.6140 C.ar  361  BHO361      0.0000
      5  C5        51.5530  -50.0240   17.1410 C.ar  361  BHO361      0.0001
      6  C6        52.3080  -51.1920   17.1520 C.ar  361  BHO361      0.0019
      7  C         52.5800  -53.6610   17.6540 C.2   361  BHO361      0.1101
      8  O1        53.7590  -53.7570   17.3640 O.2   361  BHO361     -0.5359
      9  N         51.7400  -54.6900   18.0570 N.am  361  BHO361     -0.1984
     10  O2        51.8740  -56.0120   18.2600 O.co2 361  BHO361     -0.4024
@<TRIPOS>UNITY_ATOM_ATTR
10 1
charge -1
@<TRIPOS>BOND
     1     5     6   ar
     2     5     4   ar
     3     6     1   ar
     4     8     7    2
     5     4     3   ar
     6     1     7    1
     7     1     2   ar
     8     7     9   am
     9     9    10    1
    10     3     2   ar
