@<TRIPOS>MOLECULE
3uxl_CFI_A_1.pdb
 10 10 0 0 0
SMALL
GASTEIGER

@<TRIPOS>ATOM
      1  O01      -18.0860  -22.2670   17.8200 O.2   361  CFI361     -0.1243
      2  N02      -19.1870  -22.7410   17.5930 N.2   361  CFI361      0.0476
      3  N03      -20.2360  -21.9250   17.3340 N.4   361  CFI361     -0.2929
      4  O04      -19.9720  -20.6580   17.2680 O.co2 361  CFI361     -0.7369
      5  C05      -21.5850  -22.4620   17.1600 C.ar  361  CFI361      0.0676
      6  C06      -22.6380  -21.6890   16.6780 C.ar  361  CFI361      0.0179
      7  C07      -23.9250  -22.2330   16.5460 C.ar  361  CFI361      0.0015
      8  C08      -24.1990  -23.5500   16.8940 C.ar  361  CFI361      0.0001
      9  C09      -23.1560  -24.3240   17.3730 C.ar  361  CFI361      0.0015
     10  C10      -21.8770  -23.7830   17.4990 C.ar  361  CFI361      0.0179
@<TRIPOS>UNITY_ATOM_ATTR
4 1
charge -1
@<TRIPOS>BOND
     1     7     6   ar
     2     7     8   ar
     3     6     5   ar
     4     8     9   ar
     5     5     3    1
     6     5    10   ar
     7     4     3    1
     8     3     2    1
     9     9    10   ar
    10     2     1    2
