@<TRIPOS>MOLECULE
3uxm_0DN_A_1.pdb
 17 18 0 0 0
SMALL
GASTEIGER

@<TRIPOS>ATOM
      1  O4         7.3710    2.2970   16.4310 O.2   800  0DN800     -0.1918
      2  C6         6.7330    1.3690   16.9880 C.1   800  0DN800      0.2844
      3  N2         5.9540    0.5230   16.2800 N.2   800  0DN800     -0.2455
      4  C7         5.3060   -0.5000   16.8920 C.1   800  0DN800      0.2134
      5  O3         4.5900   -1.2910   16.2430 O.2   800  0DN800     -0.2088
      6  C8         5.4230   -0.6690   18.3660 C.2   800  0DN800      0.0891
      7  C10        4.7370   -1.7810   19.1170 C.3   800  0DN800      0.0462
      8  C9         6.2230    0.2190   19.0510 C.2   800  0DN800      0.0877
      9  N1         6.8420    1.2320   18.3980 N.am  800  0DN800     -0.1794
     10  C4         7.7090    2.1650   19.1190 C.3   800  0DN800      0.2090
     11  C3         7.0890    3.0570   20.2140 C.3   800  0DN800      0.0874
     12  C2         8.2150    3.1800   21.2330 C.3   800  0DN800      0.1860
     13  O2         8.9960    4.3460   20.9050 O.3   800  0DN800     -0.2203
     14  O1         8.7000    1.3810   19.7470 O.3   800  0DN800     -0.3336
     15  C1         9.0880    1.9450   20.9910 C.3   800  0DN800      0.1826
     16  C5         9.0310    0.8580   22.0660 C.3   800  0DN800      0.2252
     17  F1         7.7270    0.5670   22.3690 F     800  0DN800     -0.2315
@<TRIPOS>BOND
     1     5     4    2
     2     3     4    2
     3     3     2    2
     4     1     2    2
     5     4     6    1
     6     2     9   am
     7     6     8    2
     8     6     7    1
     9     9     8    1
    10     9    10    1
    11    10    14    1
    12    10    11    1
    13    14    15    1
    14    11    12    1
    15    13    12    1
    16    15    12    1
    17    15    16    1
    18    16    17    1
