@<TRIPOS>MOLECULE
3uxp_D3T_A_1.pdb
 28 29 0 0 0
SMALL
GASTEIGER

@<TRIPOS>ATOM
      1  PA         1.4790   -5.4060  -25.0800 P.3   336  D3T336      0.2189
      2  O1A        1.3770   -4.1890  -25.9740 O.2   336  D3T336     -0.5170
      3  O2A        0.5670   -5.3420  -23.8840 O.3   336  D3T336     -0.4371
      4  O5'        2.9350   -5.6790  -24.4850 O.3   336  D3T336     -0.3113
      5  C5'        4.0020   -4.7530  -24.5210 C.3   336  D3T336      0.1785
      6  C4'        5.1310   -5.5730  -23.9310 C.3   336  D3T336      0.1472
      7  O4'        5.0820   -5.4950  -22.5170 O.3   336  D3T336     -0.3366
      8  C1'        5.5430   -6.6930  -21.9120 C.3   336  D3T336      0.2063
      9  N1         4.5650   -6.9920  -20.8890 N.am  336  D3T336     -0.1795
     10  C6         3.3020   -6.6330  -21.1110 C.2   336  D3T336      0.0877
     11  C2         4.9540   -7.6650  -19.7150 C.1   336  D3T336      0.2844
     12  O2         6.1640   -7.9950  -19.5890 O.2   336  D3T336     -0.1918
     13  N3         4.0450   -7.9400  -18.7600 N.2   336  D3T336     -0.2455
     14  C4         2.7560   -7.5990  -18.9080 C.1   336  D3T336      0.2134
     15  O4         1.8950   -7.8790  -18.0330 O.2   336  D3T336     -0.2088
     16  C5         2.3440   -6.9050  -20.1530 C.2   336  D3T336      0.0891
     17  C5M        0.9150   -6.5040  -20.3840 C.3   336  D3T336      0.0462
     18  C2'        5.4530   -7.7590  -22.9730 C.3   336  D3T336      0.0545
     19  C3'        4.9030   -7.0420  -24.1940 C.3   336  D3T336      0.0366
     20  O3A        1.3520   -6.7740  -25.9250 O.3   336  D3T336     -0.2700
     21  PB         1.2920   -6.7300  -27.5330 P.3   336  D3T336      0.2277
     22  O1B        1.6480   -5.3880  -28.1690 O.2   336  D3T336     -0.5168
     23  O2B        2.1910   -7.8310  -28.0040 O.3   336  D3T336     -0.4368
     24  O3B       -0.2460   -7.1590  -27.7830 O.3   336  D3T336     -0.2258
     25  PG        -1.2670   -6.2440  -28.6200 P.3   336  D3T336      0.5373
     26  O1G       -0.8920   -6.2910  -30.0850 O.2   336  D3T336     -0.2221
     27  O2G       -2.6540   -6.8000  -28.4120 O.3   336  D3T336     -0.1143
     28  O3G       -1.2340   -4.8210  -28.1180 O.3   336  D3T336     -0.1143
@<TRIPOS>BOND
     1    26    25    2
     2    25    27    1
     3    25    28    1
     4    25    24    1
     5    22    21    2
     6    23    21    1
     7    24    21    1
     8    21    20    1
     9     2     1    2
    10    20     1    1
    11     1     4    1
    12     1     3    1
    13     5     4    1
    14     5     6    1
    15    19     6    1
    16    19    18    1
    17     6     7    1
    18    18     8    1
    19     7     8    1
    20     8     9    1
    21    10     9    1
    22    10    16    2
    23     9    11   am
    24    17    16    1
    25    16    14    1
    26    11    12    2
    27    11    13    2
    28    14    13    2
    29    14    15    2
