@<TRIPOS>MOLECULE
3uxv_NAP_B_1.pdb
 40 43 0 0 0
SMALL
GASTEIGER

@<TRIPOS>ATOM
      1  PA        29.5530   42.8020   -2.1800 P.3   301  NAP301      0.4173
      2  PA        30.3190   41.9010   -1.7610 P.3   301  NAP301      0.2173
      3  O1A       29.5860   42.4020   -3.6060 O.2   301  NAP301     -0.2483
      4  O2A       30.8050   43.7710   -1.8500 O.3   301  NAP301     -0.1345
      5  O5B       29.3960   41.5680   -1.1370 O.3   301  NAP301     -0.3245
      6  C5B       30.1190   40.3350   -1.1000 C.3   301  NAP301      0.1794
      7  C4B       29.8650   39.5900    0.2470 C.3   301  NAP301      0.1820
      8  O4B       30.3560   40.2460    1.4350 O.3   301  NAP301     -0.3136
      9  C3B       28.3750   39.3450    0.4760 C.3   301  NAP301      0.2157
     10  O3B       28.1090   38.1680    1.2510 O.3   301  NAP301     -0.2175
     11  C2B       28.0000   40.5010    1.3610 C.3   301  NAP301      0.2314
     12  O2B       26.9750   40.0900    2.2350 O.3   301  NAP301     -0.2630
     13  C1B       29.2080   40.6790    2.2320 C.3   301  NAP301      0.3158
     14  N9A       29.3780   42.0770    2.7210 N.pl3 301  NAP301     -0.1439
     15  C8A       29.5630   43.1990    1.9930 C.3   301  NAP301      0.3377
     16  N7A       29.6820   44.2540    2.8430 N.2   301  NAP301     -0.2095
     17  C5A       29.5810   43.7780    4.1080 C.2   301  NAP301      0.2526
     18  C6A       29.6300   44.3810    5.3590 C.2   301  NAP301      0.4393
     19  N6A       29.8210   45.7300    5.4210 N.pl3 301  NAP301      0.2180
     20  N1A       29.4870   43.6180    6.4620 N.2   301  NAP301      0.0021
     21  C2A       29.3360   42.2670    6.3840 C.3   301  NAP301      0.5254
     22  N3A       29.2910   41.6820    5.1770 N.2   301  NAP301     -0.0055
     23  C4A       29.3920   42.4100    4.0300 C.2   301  NAP301      0.3518
     24  O3        28.1900   43.5530   -1.7850 O.3   301  NAP301     -0.2443
     25  PN        26.7740   43.2380   -2.4840 P.3   301  NAP301      0.2212
     26  O1N       25.7100   43.6850   -1.4930 O.3   301  NAP301     -0.4371
     27  O2N       26.8200   43.8210   -3.8840 O.2   301  NAP301     -0.5170
     28  O5D       26.6320   41.6200   -2.5800 O.3   301  NAP301     -0.3111
     29  C5D       25.3690   41.0080   -2.2490 C.3   301  NAP301      0.1812
     30  C4D       25.2680   39.5940   -2.8080 C.3   301  NAP301      0.1780
     31  O4D       23.9620   39.3040   -3.3300 O.3   301  NAP301     -0.3482
     32  C3D       26.1770   39.3100   -3.9880 C.3   301  NAP301      0.2140
     33  O3D       27.4740   38.9090   -3.5340 O.3   301  NAP301     -0.2176
     34  C2D       25.4200   38.2360   -4.7780 C.3   301  NAP301      0.2140
     35  O2D       26.0500   36.9520   -4.8050 O.3   301  NAP301     -0.2176
     36  C1D       24.0670   38.1180   -4.0950 C.3   301  NAP301      0.1777
     37  P2B       25.4760   40.2720    1.7280 P.3   301  NAP301      0.5328
     38  O1X       25.3820   39.0930    0.8190 O.2   301  NAP301     -0.2224
     39  O2X       24.3950   40.0490    2.9060 O.3   301  NAP301     -0.1145
     40  O3X       25.1370   41.6670    1.0220 O.3   301  NAP301     -0.1145
@<TRIPOS>BOND
     1    35    34    1
     2    34    36    1
     3    34    32    1
     4    36    31    1
     5    32    33    1
     6    32    30    1
     7    27    25    2
     8     3     1    2
     9    31    30    1
    10    30    29    1
    11    28    25    1
    12    28    29    1
    13    25    24    1
    14    25    26    1
    15     1     4    1
    16     1    24    1
    17     1     2    1
    18     2     5    1
    19     5     6    1
    20     6     7    1
    21     7     9    1
    22     7     8    1
    23     9    10    1
    24     9    11    1
    25    38    37    2
    26    40    37    1
    27    11    13    1
    28    11    12    1
    29     8    13    1
    30    37    12    1
    31    37    39    1
    32    15    14    1
    33    15    16    1
    34    13    14    1
    35    14    23    1
    36    16    17    2
    37    23    17    1
    38    23    22    2
    39    17    18    1
    40    22    21    1
    41    18    19    1
    42    18    20    2
    43    21    20    1
