@<TRIPOS>MOLECULE
3uxy_NAD_C_1.pdb
 44 48 0 0 0
SMALL
GASTEIGER

@<TRIPOS>ATOM
      1  PA       -16.0350   46.3500   61.5000 P.3   245  NAD245      0.2189
      2  O1A      -16.5630   47.5930   62.4630 O.3   245  NAD245     -0.4371
      3  O2A      -17.1020   45.4410   61.1160 O.2   245  NAD245     -0.5170
      4  O5B      -15.3680   46.8970   60.0590 O.3   245  NAD245     -0.3112
      5  C5B      -14.8900   45.9770   59.0840 C.3   245  NAD245      0.1813
      6  C4B      -15.5000   46.1260   57.6910 C.3   245  NAD245      0.1821
      7  O4B      -15.4240   45.0080   56.7520 O.3   245  NAD245     -0.3135
      8  C3B      -17.0410   46.5520   57.6260 C.3   245  NAD245      0.2184
      9  O3B      -17.4260   47.8760   57.4640 O.3   245  NAD245     -0.2174
     10  C2B      -17.6540   45.5650   56.6280 C.3   245  NAD245      0.2570
     11  O2B      -18.8720   45.9290   56.0170 O.3   245  NAD245     -0.2130
     12  C1B      -16.4450   45.1820   55.8270 C.3   245  NAD245      0.3186
     13  N9A      -16.8630   43.9730   55.1320 N.pl3 245  NAD245     -0.1439
     14  C8A      -17.2990   42.8260   55.6380 C.3   245  NAD245      0.3377
     15  N7A      -17.7630   42.0190   54.5580 N.2   245  NAD245     -0.2095
     16  C5A      -17.5910   42.7490   53.3840 C.2   245  NAD245      0.2526
     17  C6A      -17.8670   42.4570   52.0610 C.2   245  NAD245      0.4393
     18  N6A      -18.4850   41.1850   51.7300 N.pl3 245  NAD245      0.2180
     19  N1A      -17.5990   43.3670   51.1110 N.2   245  NAD245      0.0021
     20  C2A      -17.0660   44.5700   51.4360 C.3   245  NAD245      0.5254
     21  N3A      -16.7840   44.8720   52.7460 N.2   245  NAD245     -0.0055
     22  C4A      -17.0560   43.9450   53.7000 C.2   245  NAD245      0.3518
     23  O3       -14.8830   45.5120   62.3710 O.3   245  NAD245     -0.2703
     24  PN       -13.3320   46.1120   62.3910 P.3   245  NAD245      0.2189
     25  O1N      -12.5500   45.5740   63.7390 O.3   245  NAD245     -0.4371
     26  O2N      -13.3680   47.7720   62.3060 O.2   245  NAD245     -0.5170
     27  O5D      -12.5860   45.5180   61.0190 O.3   245  NAD245     -0.3112
     28  C5D      -11.3390   46.0450   60.5980 C.3   245  NAD245      0.1813
     29  C4D      -10.2680   44.9640   60.4610 C.3   245  NAD245      0.1796
     30  O4D       -9.5940   44.6270   61.6740 O.3   245  NAD245     -0.3354
     31  C3D      -10.7200   43.5690   59.8910 C.3   245  NAD245      0.2155
     32  O3D       -9.9160   42.9650   58.9130 O.3   245  NAD245     -0.2176
     33  C2D      -10.9750   42.7760   61.2160 C.3   245  NAD245      0.2271
     34  O2D      -11.2300   41.3880   61.1480 O.3   245  NAD245     -0.2161
     35  C1D       -9.7100   43.2600   61.8860 C.3   245  NAD245      0.2098
     36  N1N       -9.6290   42.9530   63.3090 N.3   245  NAD245     -0.2439
     37  C2N      -10.4470   43.6090   64.3020 C.3   245  NAD245      0.0882
     38  C3N      -10.3930   42.9160   65.7450 C.3   245  NAD245      0.1175
     39  C7N      -11.1030   43.5910   66.9170 C.2   245  NAD245      0.2657
     40  O7N      -10.7850   43.2870   68.0240 O.2   245  NAD245     -0.2713
     41  N7N      -12.3870   44.2220   66.6880 N.am  245  NAD245     -0.0875
     42  C4N       -9.0760   42.2910   66.0360 C.2   245  NAD245     -0.0191
     43  C5N       -8.0520   42.1660   65.0550 C.2   245  NAD245     -0.0128
     44  C6N       -8.2510   42.5190   63.6540 C.3   245  NAD245      0.1004
@<TRIPOS>BOND
     1    19    20    1
     2    19    17    2
     3    20    21    1
     4    18    17    1
     5    17    16    1
     6    21    22    2
     7    16    22    1
     8    16    15    2
     9    22    13    1
    10    15    14    1
    11    13    14    1
    12    13    12    1
    13    12    10    1
    14    12     7    1
    15    11    10    1
    16    10     8    1
    17     7     6    1
    18     9     8    1
    19     8     6    1
    20     6     5    1
    21    32    31    1
    22     5     4    1
    23    31    29    1
    24    31    33    1
    25     4     1    1
    26    29    28    1
    27    29    30    1
    28    28    27    1
    29    27    24    1
    30     3     1    2
    31    34    33    1
    32    33    35    1
    33     1    23    1
    34     1     2    1
    35    30    35    1
    36    35    36    1
    37    26    24    2
    38    23    24    1
    39    24    25    1
    40    36    44    1
    41    36    37    1
    42    44    43    1
    43    37    38    1
    44    43    42    2
    45    38    42    1
    46    38    39    1
    47    41    39   am
    48    39    40    2
