@<TRIPOS>MOLECULE
3uy4_PAU_A_1.pdb
 15 14 0 0 0
SMALL
GASTEIGER

@<TRIPOS>ATOM
      1  O2        11.2470   85.6370   11.8020 O.3   302  PAU302     -0.2203
      2  C1        10.9410   84.5840   13.9570 C.3   302  PAU302      0.0674
      3  C2        10.4780   85.6890   13.0100 C.3   302  PAU302      0.1849
      4  C3        10.1250   84.7500   15.2390 C.3   302  PAU302      0.0057
      5  C4        10.6850   83.2180   13.3290 C.3   302  PAU302      0.0057
      6  C5        12.4370   84.7840   14.1930 C.3   302  PAU302      0.2313
      7  O5'       12.6110   86.1200   14.6580 O.3   302  PAU302     -0.2131
      8  C6        13.1130   83.8180   15.1540 C.2   302  PAU302      0.2719
      9  O6'       12.4950   83.1470   15.9630 O.2   302  PAU302     -0.2706
     10  N         14.4450   83.7290   15.0840 N.am  302  PAU302     -0.2027
     11  C8        15.2460   83.6880   16.2980 C.3   302  PAU302      0.1270
     12  C9        16.6920   83.2420   16.0970 C.3   302  PAU302      0.1374
     13  C         17.4710   84.1910   15.2070 C.2   302  PAU302      0.3667
     14  OXT       18.7740   84.3520   15.4050 O.co2 302  PAU302     -0.2456
     15  O         16.9350   84.7970   14.2860 O.co2 302  PAU302     -0.2456
@<TRIPOS>BOND
     1     1     3    1
     2     3     2    1
     3     5     2    1
     4     2     6    1
     5     2     4    1
     6     6     7    1
     7     6     8    1
     8    15    13   ar
     9    10     8   am
    10    10    11    1
    11     8     9    2
    12    13    14   ar
    13    13    12    1
    14    12    11    1
