@<TRIPOS>MOLECULE
3uy4_AMP_A_1.pdb
 23 25 0 0 0
SMALL
GASTEIGER

@<TRIPOS>ATOM
      1  P         13.5690   79.7230   15.0080 P.3   301  AMP301      0.5327
      2  O1P       13.2600   81.0020   14.2760 O.3   301  AMP301     -0.1145
      3  O2P       14.9820   79.4930   15.4650 O.3   301  AMP301     -0.1145
      4  O3P       13.1100   78.5730   14.1620 O.2   301  AMP301     -0.2224
      5  O5'       12.5880   79.5770   16.2520 O.3   301  AMP301     -0.2675
      6  C5'       11.1790   79.7090   16.1040 C.3   301  AMP301      0.1860
      7  C4'       10.4970   79.7120   17.4480 C.3   301  AMP301      0.1823
      8  O4'       10.8730   78.4960   18.1590 O.3   301  AMP301     -0.3135
      9  C3'       10.8920   80.8760   18.3630 C.3   301  AMP301      0.2184
     10  O3'        9.7810   81.2440   19.1740 O.3   301  AMP301     -0.2174
     11  C2'       11.9740   80.2480   19.2350 C.3   301  AMP301      0.2570
     12  O2'       12.1940   80.8880   20.4770 O.3   301  AMP301     -0.2130
     13  C1'       11.4320   78.8410   19.4110 C.3   301  AMP301      0.3186
     14  N9        12.4620   77.8700   19.7600 N.pl3 301  AMP301     -0.1439
     15  C8        13.6160   77.6450   19.1000 C.3   301  AMP301      0.3377
     16  N7        14.3770   76.7330   19.7580 N.2   301  AMP301     -0.2095
     17  C5        13.7090   76.3940   20.8750 C.2   301  AMP301      0.2526
     18  C6        13.9490   75.4910   22.0150 C.2   301  AMP301      0.4393
     19  N6        15.0840   74.7580   22.0690 N.pl3 301  AMP301      0.2180
     20  N1        12.9980   75.4230   22.9790 N.2   301  AMP301      0.0021
     21  C2        11.8710   76.1570   22.9220 C.3   301  AMP301      0.5254
     22  N3        11.5900   77.0080   21.9130 N.2   301  AMP301     -0.0055
     23  C4        12.4600   77.1590   20.8860 C.2   301  AMP301      0.3518
@<TRIPOS>BOND
     1     4     1    2
     2     2     1    1
     3     1     3    1
     4     1     5    1
     5     6     5    1
     6     6     7    1
     7     7     8    1
     8     7     9    1
     9     8    13    1
    10     9    10    1
    11     9    11    1
    12    15    16    1
    13    15    14    1
    14    11    13    1
    15    11    12    1
    16    13    14    1
    17    16    17    2
    18    14    23    1
    19    17    23    1
    20    17    18    1
    21    23    22    2
    22    22    21    1
    23    18    19    1
    24    18    20    2
    25    21    20    1
