@<TRIPOS>MOLECULE
3uyj_AKG_A_1.pdb
 14 13 0 0 0
SMALL
GASTEIGER

@<TRIPOS>ATOM
      1  C1       -23.0310   21.7150   -2.9410 C.2   601  AKG601      0.4212
      2  O1       -22.2080   21.8260   -3.9000 O.co2 601  AKG601     -0.2373
      3  O2       -22.7050   21.0970   -1.8860 O.co2 601  AKG601     -0.2373
      4  C2       -24.3890   22.3160   -3.0790 C.2   601  AKG601      0.2439
      5  O5       -24.6140   23.0090   -4.0730 O.2   601  AKG601     -0.2850
      6  C3       -25.4450   22.0610   -2.0380 C.3   601  AKG601      0.0274
      7  C4       -26.5850   23.0380   -2.1100 C.3   601  AKG601      0.0564
      8  C5       -27.6100   22.7510   -1.0450 C.2   601  AKG601      0.3564
      9  O3       -27.4180   21.8190   -0.2200 O.co2 601  AKG601     -0.2464
     10  O4       -28.6780   23.4290   -0.9470 O.co2 601  AKG601     -0.2464
     11  H31      -25.0430   22.1000   -1.1540 H     601  AKG601      0.0353
     12  H32      -25.8040   21.1670   -2.1700 H     601  AKG601      0.0353
     13  H41      -27.0090   22.9780   -2.9830 H     601  AKG601      0.0383
     14  H42      -26.2470   23.9410   -1.9900 H     601  AKG601      0.0383
@<TRIPOS>BOND
     1     5     4    2
     2     2     1   ar
     3     4     1    1
     4     4     6    1
     5    13     7    1
     6     1     3   ar
     7    12     6    1
     8     7     6    1
     9     7    14    1
    10     7     8    1
    11     6    11    1
    12     8    10   ar
    13     8     9   ar
