@<TRIPOS>MOLECULE
3uyk_BGC_B_1.pdb
 12 12 0 0 0
SMALL
GASTEIGER

@<TRIPOS>ATOM
      1  C2         8.4610   72.2830  -29.4290 C.3   388  BGC388      0.2434
      2  C3         8.3920   73.1030  -30.7230 C.3   388  BGC388      0.2199
      3  C4         9.5410   74.1520  -30.6220 C.3   388  BGC388      0.2144
      4  C5        10.9040   73.4880  -30.3720 C.3   388  BGC388      0.1836
      5  C6        12.0240   74.5420  -30.1980 C.3   388  BGC388      0.2142
      6  C1         9.8490   71.6880  -29.1230 C.3   388  BGC388      0.3024
      7  O1         9.9190   71.1200  -27.8530 O.3   388  BGC388     -0.1869
      8  O2         7.4850   71.2220  -29.4780 O.3   388  BGC388     -0.2148
      9  O3         7.1740   73.7900  -30.7170 O.3   388  BGC388     -0.2174
     10  O4         9.5770   74.9200  -31.8240 O.3   388  BGC388     -0.2176
     11  O5        10.9740   72.6460  -29.2050 O.3   388  BGC388     -0.3236
     12  O6        12.1480   74.8840  -28.8220 O.3   388  BGC388     -0.2176
@<TRIPOS>BOND
     1    10     3    1
     2     2     9    1
     3     2     3    1
     4     2     1    1
     5     3     4    1
     6     4     5    1
     7     4    11    1
     8     5    12    1
     9     8     1    1
    10     1     6    1
    11    11     6    1
    12     6     7    1
