@<TRIPOS>MOLECULE
3uyk_0CX_B_1.pdb
 29 32 0 0 0
SMALL
GASTEIGER

@<TRIPOS>ATOM
      1  O4        -2.7140   61.5170  -20.5700 O.2   387  0CX387     -0.2960
      2  C15       -2.1200   60.5650  -20.0540 C.2   387  0CX387      0.1523
      3  C16       -2.7260   59.2190  -20.1940 C.3   387  0CX387      0.0879
      4  C24       -2.3430   58.6300  -21.5610 C.3   387  0CX387      0.0104
      5  C17       -4.2430   59.3360  -20.0870 C.3   387  0CX387      0.1588
      6  O5        -4.6270   57.9820  -20.1480 O.3   387  0CX387     -0.2227
      7  C18       -4.8230   59.9800  -18.8280 C.3   387  0CX387      0.0334
      8  C19       -5.0680   58.9900  -17.7110 C.3   387  0CX387      0.0063
      9  C20       -5.0280   59.6420  -16.3370 C.3   387  0CX387      0.0437
     10  C21       -3.5990   59.9190  -15.9190 C.3   387  0CX387      0.1688
     11  C22       -3.5400   59.8960  -14.3880 C.3   387  0CX387      0.0436
     12  C23       -2.3340   60.5630  -13.7640 C.3   387  0CX387      0.0038
     13  O1        -3.2750   61.1700  -16.5760 O.3   387  0CX387     -0.4523
     14  C14       -0.8570   60.6340  -19.3200 C.3   387  0CX387      0.0585
     15  C13        0.1030   59.6410  -19.2030 C.3   387  0CX387      0.0077
     16  C12        1.3860   60.1880  -18.5650 C.3   387  0CX387      0.0049
     17  C11        2.5270   60.3440  -19.5630 C.3   387  0CX387      0.0069
     18  C10        3.2950   59.0850  -19.9860 C.3   387  0CX387      0.0332
     19  C9         4.7270   59.6590  -20.3290 C.3   387  0CX387      0.1524
     20  C8         4.7840   61.1400  -19.9120 C.3   387  0CX387      0.0372
     21  O2         5.8010   58.9410  -19.6950 O.3   387  0CX387     -0.2231
     22  C7         3.6130   61.2380  -18.9500 C.3   387  0CX387      0.0243
     23  C6         3.1200   62.6380  -18.6580 C.2   387  0CX387     -0.0310
     24  C5         1.8730   62.7510  -18.2020 C.2   387  0CX387     -0.0310
     25  C4         0.9480   61.5580  -18.0040 C.3   387  0CX387      0.0227
     26  C3        -0.4000   61.8730  -18.6730 C.3   387  0CX387      0.0220
     27  C2        -1.4340   62.4330  -17.7220 C.3   387  0CX387      0.1103
     28  C1        -1.9070   61.2990  -16.8540 C.2   387  0CX387      0.3169
     29  O3        -1.1780   60.4790  -16.3560 O.2   387  0CX387     -0.2501
@<TRIPOS>BOND
     1     4     3    1
     2     1     2    2
     3    19    18    1
     4    19    20    1
     5    19    21    1
     6     3     5    1
     7     3     2    1
     8     6     5    1
     9     5     7    1
    10     2    14    1
    11    18    17    1
    12    20    22    1
    13    17    22    1
    14    17    16    1
    15    14    15    1
    16    14    26    1
    17    15    16    1
    18    22    23    1
    19     7     8    1
    20    26    25    1
    21    26    27    1
    22    23    24    2
    23    16    25    1
    24    24    25    1
    25    27    28    1
    26     8     9    1
    27    28    13    1
    28    28    29    2
    29    13    10    1
    30     9    10    1
    31    10    11    1
    32    11    12    1
