@<TRIPOS>MOLECULE
3uyl_GLC_B_1.pdb
 12 12 0 0 0
SMALL
GASTEIGER

@<TRIPOS>ATOM
      1  C1         9.7960   72.4850  -28.6210 C.3   402  GLC402      0.3024
      2  C2         8.4800   72.5590  -29.4310 C.3   402  GLC402      0.2434
      3  C3         8.6400   73.2970  -30.7460 C.3   402  GLC402      0.2199
      4  C4         9.7310   74.3280  -30.5800 C.3   402  GLC402      0.2144
      5  C5        11.0670   73.6570  -30.3740 C.3   402  GLC402      0.1836
      6  C6        12.1530   74.7320  -30.2090 C.3   402  GLC402      0.2142
      7  O1         9.9780   71.2640  -28.0250 O.3   402  GLC402     -0.1869
      8  O2         7.7030   71.3900  -29.5760 O.3   402  GLC402     -0.2148
      9  O3         7.5170   74.1030  -30.7420 O.3   402  GLC402     -0.2174
     10  O4         9.8070   75.1240  -31.7470 O.3   402  GLC402     -0.2176
     11  O5        11.0540   72.8410  -29.2150 O.3   402  GLC402     -0.3236
     12  O6        13.2170   74.2820  -29.3960 O.3   402  GLC402     -0.2176
@<TRIPOS>BOND
     1    10     4    1
     2     3     9    1
     3     3     4    1
     4     3     2    1
     5     4     5    1
     6     5     6    1
     7     5    11    1
     8     6    12    1
     9     8     2    1
    10     2     1    1
    11    11     1    1
    12     1     7    1
