@<TRIPOS>MOLECULE
3uyl_TYD_A_1.pdb
 25 26 0 0 0
SMALL
GASTEIGER

@<TRIPOS>ATOM
      1  PA        16.2990   40.7950   12.8030 P.3   401  TYD401      0.2231
      2  O1A       17.7120   41.3060   12.7950 O.2   401  TYD401     -0.5169
      3  O2A       15.3270   41.3040   13.8750 O.3   401  TYD401     -0.4370
      4  O3A       16.4710   39.1660   12.9550 O.3   401  TYD401     -0.2261
      5  PB        15.4720   37.9900   12.4260 P.3   401  TYD401      0.5373
      6  O1B       15.2140   38.1950   10.9370 O.2   401  TYD401     -0.2221
      7  O2B       16.0300   36.5930   12.6100 O.3   401  TYD401     -0.1143
      8  O3B       14.4090   38.3370   13.4740 O.3   401  TYD401     -0.1143
      9  O5'       15.7520   41.0910   11.2750 O.3   401  TYD401     -0.3111
     10  C5'       14.3710   41.1010   10.7970 C.3   401  TYD401      0.1812
     11  C4'       14.1610   42.3090    9.8630 C.3   401  TYD401      0.1773
     12  O4'       12.8410   42.2160    9.3070 O.3   401  TYD401     -0.3339
     13  C3'       14.2200   43.6440   10.6360 C.3   401  TYD401      0.1857
     14  O3'       14.6660   44.7500    9.8640 O.3   401  TYD401     -0.2203
     15  C2'       12.7790   43.9960   10.8730 C.3   401  TYD401      0.0874
     16  C1'       12.1050   43.3760    9.6580 C.3   401  TYD401      0.2090
     17  N1        10.7160   42.9680    9.7600 N.am  401  TYD401     -0.1794
     18  C2         9.7030   43.9550    9.6420 C.1   401  TYD401      0.2844
     19  O2        10.0140   45.1480    9.5200 O.2   401  TYD401     -0.1918
     20  N3         8.4100   43.6250    9.6950 N.2   401  TYD401     -0.2455
     21  C4         8.0800   42.3210    9.8350 C.1   401  TYD401      0.2134
     22  O4         6.8990   42.0150    9.8790 O.2   401  TYD401     -0.2088
     23  C5         9.1190   41.2540    9.9480 C.2   401  TYD401      0.0891
     24  C5M        8.7390   39.8080   10.0960 C.3   401  TYD401      0.0462
     25  C6        10.4310   41.6470    9.9020 C.2   401  TYD401      0.0877
@<TRIPOS>BOND
     1    12    16    1
     2    12    11    1
     3    19    18    2
     4    18    20    2
     5    18    17   am
     6    16    17    1
     7    16    15    1
     8    20    21    2
     9    17    25    1
    10    21    22    2
    11    21    23    1
    12    11    13    1
    13    11    10    1
    14    14    13    1
    15    25    23    2
    16    23    24    1
    17    13    15    1
    18    10     9    1
    19     6     5    2
    20     9     1    1
    21     5     7    1
    22     5     4    1
    23     5     8    1
    24     2     1    2
    25     1     4    1
    26     1     3    1
