@<TRIPOS>MOLECULE
3uyt_0CK_A_1.pdb
 25 28 0 0 0
SMALL
GASTEIGER

@<TRIPOS>ATOM
      1  C7        -6.0560   -6.8120   -9.9610 C.3   295  0CK295      0.1530
      2  N2        -4.7910   -7.1240   -9.4640 N.3   295  0CK295     -0.2441
      3  C8        -5.0410   -7.9290   -8.3800 C.3   295  0CK295      0.2011
      4  N3        -6.3360   -8.2120   -8.0910 N.2   295  0CK295     -0.2549
      5  C9        -7.0400   -7.5440   -9.0660 C.2   295  0CK295      0.0767
      6  C10       -7.5410   -5.0780  -11.2610 C.2   295  0CK295      0.0518
      7  C11       -7.7290   -4.2020  -12.3680 C.2   295  0CK295      0.1142
      8  N4        -6.7500   -4.0970  -13.3500 N.2   295  0CK295     -0.1673
      9  C12       -5.5830   -4.8570  -13.2390 C.1   295  0CK295      0.1861
     10  N5        -5.3460   -5.7240  -12.1900 N.2   295  0CK295     -0.3379
     11  C13       -6.3210   -5.8720  -11.1480 C.2   295  0CK295      0.1435
     12  N1        -4.6280   -4.7400  -14.1980 N.pl3 295  0CK295     -0.0345
     13  C14       -2.3300   -6.5350   -8.9560 C.3   295  0CK295      0.0160
     14  C15       -3.4480   -6.8300   -9.9550 C.3   295  0CK295      0.0599
     15  C16       -2.9370   -7.7460  -11.0690 C.3   295  0CK295      0.0160
     16  C17       -1.6330   -7.2740  -11.7200 C.3   295  0CK295      0.0014
     17  C18       -0.5360   -6.9390  -10.6840 C.3   295  0CK295      0.0001
     18  C19       -1.0580   -5.9990   -9.5960 C.3   295  0CK295      0.0014
     19  C1       -10.5810   -8.1440  -10.6860 C.ar  295  0CK295      0.0297
     20  C2       -11.4370   -7.9640   -9.5210 C.ar  295  0CK295      0.1401
     21  C3       -10.8930   -7.6460   -8.1930 C.ar  295  0CK295      0.0297
     22  C4        -9.4400   -7.4950   -8.0200 C.ar  295  0CK295      0.0035
     23  C5        -8.5500   -7.6660   -9.1740 C.ar  295  0CK295      0.0151
     24  C6        -9.1400   -7.9900  -10.4910 C.ar  295  0CK295      0.0035
     25  F1       -12.7910   -8.0780   -9.6980 F     295  0CK295     -0.2042
@<TRIPOS>BOND
     1    12     9    1
     2     8     9    2
     3     8     7    1
     4     9    10    2
     5     7     6    2
     6    10    11    2
     7    16    15    1
     8    16    17    1
     9     6    11    1
    10    11     1    1
    11    15    14    1
    12    19    24   ar
    13    19    20   ar
    14    17    18    1
    15    24    23   ar
    16     1     2    1
    17     1     5    1
    18    14     2    1
    19    14    13    1
    20    25    20    1
    21    18    13    1
    22    20    21   ar
    23     2     3    1
    24    23     5    1
    25    23    22   ar
    26     5     4    2
    27     3     4    1
    28    21    22   ar
