@<TRIPOS>MOLECULE
3uyy_PLP_A_1.pdb
 15 15 0 0 0
SMALL
GASTEIGER

@<TRIPOS>ATOM
      1  N1        14.8630   39.5860  -12.0180 N.ar  371  PLP371     -0.2452
      2  C2        13.9940   40.2910  -11.2130 C.ar  371  PLP371      0.0978
      3  C2A       14.5700   41.3740  -10.2900 C.3   371  PLP371      0.0555
      4  C3        12.6150   39.9800  -11.2760 C.ar  371  PLP371      0.2049
      5  O3        11.7530   40.6640  -10.4930 O.3   371  PLP371     -0.2857
      6  C4        12.1380   38.9400  -12.1630 C.ar  371  PLP371      0.0182
      7  C4A       10.5830   38.6360  -12.1810 C.3   371  PLP371      0.0342
      8  C5        13.1280   38.2310  -12.9840 C.ar  371  PLP371      0.0261
      9  C6        14.4600   38.5750  -12.8910 C.ar  371  PLP371      0.0965
     10  C5A       12.8360   37.1210  -13.9420 C.3   371  PLP371      0.1815
     11  O4P       12.5920   35.8870  -13.3280 O.3   371  PLP371     -0.2653
     12  P         11.4750   34.8970  -13.8940 P.3   371  PLP371      0.5329
     13  O1P       10.1240   35.5150  -13.8750 O.3   371  PLP371     -0.1145
     14  O2P       11.5930   33.7190  -12.8720 O.3   371  PLP371     -0.1145
     15  O3P       11.9780   34.3570  -15.2050 O.2   371  PLP371     -0.2224
@<TRIPOS>BOND
     1    15    12    2
     2    10    11    1
     3    10     8    1
     4    12    13    1
     5    12    11    1
     6    12    14    1
     7     8     9   ar
     8     8     6   ar
     9     9     1   ar
    10     7     6    1
    11     6     4   ar
    12     1     2   ar
    13     4     2   ar
    14     4     5    1
    15     2     3    1
