@<TRIPOS>MOLECULE
3uz5_0CU_A_1.pdb
 11 12 0 0 0
SMALL
GASTEIGER

@<TRIPOS>ATOM
      1  CAK       21.1480    0.2970    7.1730 C.ar  291  0CU291      0.1344
      2  NAG       20.2750   -0.6720    6.8550 N.ar  291  0CU291     -0.1262
      3  NAE       19.8650   -0.4370    5.6970 N.ar  291  0CU291     -0.0420
      4  NAF       20.3720    0.6020    5.1920 N.ar  291  0CU291     -0.1270
      5  CAJ       21.2000    1.1480    6.0710 C.ar  291  0CU291      0.1255
      6  CAD       21.9950    2.2760    6.0660 C.ar  291  0CU291      0.0340
      7  CAH       22.7460    2.5020    7.2050 C.ar  291  0CU291      0.0602
      8 CLA        23.7340    3.8940    7.2520 Cl    291  0CU291     -0.0822
      9  CAC       22.7260    1.6610    8.3150 C.ar  291  0CU291      0.0245
     10  CAI       21.8920    0.5550    8.3170 C.ar  291  0CU291      0.0794
     11 CLB        21.8180   -0.5640    9.6560 Cl    291  0CU291     -0.0805
@<TRIPOS>BOND
     1     4     3   ar
     2     4     5   ar
     3     3     2   ar
     4     6     5   ar
     5     6     7   ar
     6     5     1   ar
     7     2     1   ar
     8     1    10   ar
     9     7     8    1
    10     7     9   ar
    11     9    10   ar
    12    10    11    1
