@<TRIPOS>MOLECULE
3uza_T4G_A_1.pdb
 21 23 0 0 0
SMALL
GASTEIGER

@<TRIPOS>ATOM
      1  N2        50.3560   24.0150   31.1080 N.2   330  T4G330     -0.0649
      2  N1        49.2100   23.5740   31.7030 N.2   330  T4G330     -0.1348
      3  C6        47.9190   23.6790   31.1470 C.2   330  T4G330      0.1305
      4  C5        47.7660   24.2870   29.8490 C.2   330  T4G330      0.1631
      5  N4        48.9630   24.7270   29.2700 N.2   330  T4G330     -0.3325
      6  C3        50.1990   24.5950   29.8740 C.1   330  T4G330      0.2050
      7  N5        44.7950   21.9180   33.5160 N.2   330  T4G330     -0.4145
      8  C10       45.9570   21.2710   33.2720 C.2   330  T4G330      0.1083
      9  C11       46.9960   21.8210   32.5030 C.2   330  T4G330      0.0253
     10  C7        46.8330   23.1120   31.9590 C.2   330  T4G330      0.0087
     11  C8        45.6210   23.7910   32.2040 C.3   330  T4G330      0.0824
     12  C9        44.6390   23.1510   32.9890 C.2   330  T4G330      0.0911
     13  C17       44.0520   24.9480   27.6990 C.ar  330  T4G330      0.0000
     14  C18       44.3230   23.6880   28.2610 C.ar  330  T4G330      0.0001
     15  C19       45.5200   23.4530   28.9610 C.ar  330  T4G330      0.0026
     16  C14       46.4830   24.4790   29.1200 C.ar  330  T4G330      0.0321
     17  C15       46.1940   25.7440   28.5460 C.ar  330  T4G330      0.0026
     18  C16       44.9950   25.9830   27.8440 C.ar  330  T4G330      0.0001
     19  N3        51.2870   25.0420   29.2410 N.pl3 330  T4G330     -0.0333
     20  C13       43.3270   23.8340   33.2850 C.3   330  T4G330      0.0618
     21  C12       46.1210   19.8900   33.8680 C.3   330  T4G330      0.0664
@<TRIPOS>BOND
     1    13    18   ar
     2    13    14   ar
     3    18    17   ar
     4    14    15   ar
     5    17    16   ar
     6    15    16   ar
     7    16     4    1
     8    19     6    1
     9     5     4    2
    10     5     6    2
    11     4     3    1
    12     6     1    2
    13     1     2    1
    14     3     2    2
    15     3    10    1
    16    10    11    1
    17    10     9    2
    18    11    12    1
    19     9     8    1
    20    12    20    1
    21    12     7    2
    22     8     7    2
    23     8    21    1
