@<TRIPOS>MOLECULE
3uzb_PLP_A_1.pdb
 15 15 0 0 0
SMALL
GASTEIGER

@<TRIPOS>ATOM
      1  N1       -25.9910  -31.8520   16.7700 N.ar  371  PLP371     -0.2452
      2  C2       -24.9210  -32.6610   17.1030 C.ar  371  PLP371      0.0978
      3  C2A      -24.9700  -33.4310   18.4200 C.3   371  PLP371      0.0555
      4  C3       -23.8330  -32.7350   16.2100 C.ar  371  PLP371      0.2049
      5  O3       -22.7800  -33.5180   16.5110 O.3   371  PLP371     -0.2857
      6  C4       -23.8560  -31.9760   14.9940 C.ar  371  PLP371      0.0182
      7  C4A      -22.6570  -32.0730   14.0580 C.3   371  PLP371      0.0342
      8  C5       -25.0010  -31.1470   14.6980 C.ar  371  PLP371      0.0261
      9  C6       -26.0550  -31.0990   15.5940 C.ar  371  PLP371      0.0965
     10  C5A      -25.1360  -30.3120   13.4650 C.3   371  PLP371      0.1815
     11  O4P      -24.2750  -29.2300   13.4150 O.3   371  PLP371     -0.2653
     12  P        -23.4640  -28.8600   12.1130 P.3   371  PLP371      0.5329
     13  O1P      -22.5580  -29.9190   11.7110 O.3   371  PLP371     -0.1145
     14  O2P      -22.6860  -27.6170   12.5910 O.3   371  PLP371     -0.1145
     15  O3P      -24.4330  -28.3770   11.1060 O.2   371  PLP371     -0.2224
@<TRIPOS>BOND
     1    15    12    2
     2    13    12    1
     3    12    14    1
     4    12    11    1
     5    11    10    1
     6    10     8    1
     7     7     6    1
     8     8     6   ar
     9     8     9   ar
    10     6     4   ar
    11     9     1   ar
    12     4     5    1
    13     4     2   ar
    14     1     2   ar
    15     2     3    1
