@<TRIPOS>MOLECULE
3uzc_T4E_A_1.pdb
 21 23 0 0 0
SMALL
GASTEIGER

@<TRIPOS>ATOM
      1  N2        23.6840    6.6660   32.0800 N.2   330  T4E330     -0.0649
      2  N1        23.1050    7.7810   32.5480 N.2   330  T4E330     -0.1345
      3  C6        23.1670    8.9370   31.8280 C.2   330  T4E330      0.1340
      4  C5        23.8520    8.9450   30.5710 C.2   330  T4E330      0.1634
      5  N4        24.4320    7.7990   30.1230 N.2   330  T4E330     -0.3325
      6  C3        24.3080    6.7380   30.9080 C.1   330  T4E330      0.2050
      7  C10       21.1140   12.2590   33.6870 C.ar  330  T4E330      0.2061
      8  C11       20.4300   11.0610   33.4070 C.ar  330  T4E330      0.0430
      9  C12       21.1100    9.9870   32.8030 C.ar  330  T4E330      0.0050
     10  C7        22.4800   10.0830   32.4660 C.ar  330  T4E330      0.0230
     11  C8        23.1550   11.2920   32.7500 C.ar  330  T4E330      0.0163
     12  C9        22.4840   12.3760   33.3560 C.ar  330  T4E330      0.0965
     13  C16       24.3620   12.3440   27.9270 C.ar  330  T4E330      0.0000
     14  C17       23.1740   12.2040   28.6630 C.ar  330  T4E330      0.0001
     15  C18       23.0040   11.1020   29.5210 C.ar  330  T4E330      0.0026
     16  C13       24.0110   10.1160   29.6680 C.ar  330  T4E330      0.0321
     17  C14       25.2000   10.2810   28.9140 C.ar  330  T4E330      0.0026
     18  C15       25.3800   11.3810   28.0530 C.ar  330  T4E330      0.0001
     19  N3        24.8830    5.5990   30.4620 N.pl3 330  T4E330     -0.0333
     20 CL1        23.3520   13.8360   33.6830 Cl    330  T4E330     -0.0789
     21  O1        20.4430   13.2930   34.2730 O.3   330  T4E330     -0.2857
@<TRIPOS>BOND
     1    13    18   ar
     2    13    14   ar
     3    18    17   ar
     4    14    15   ar
     5    17    16   ar
     6    15    16   ar
     7    16     4    1
     8     5     4    2
     9     5     6    2
    10    19     6    1
    11     4     3    1
    12     6     1    2
    13     3    10    1
    14     3     2    2
    15     1     2    1
    16    10    11   ar
    17    10     9   ar
    18    11    12   ar
    19     9     8   ar
    20    12    20    1
    21    12     7   ar
    22     8     7   ar
    23     7    21    1
