@<TRIPOS>MOLECULE
3uzo_GLU_A_1.pdb
 10 9 0 0 0
SMALL
GASTEIGER

@<TRIPOS>ATOM
      1  N         35.5060   36.9220    8.9730 N.3   600  GLU600     -0.1208
      2  CA        36.3820   38.0930    8.7000 C.3   600  GLU600      0.1949
      3  C         35.6660   39.3770    9.0500 C.2   600  GLU600      0.3819
      4  O         36.3550   40.3970    9.2400 O.co2 600  GLU600     -0.2441
      5  CB        36.7760   38.1310    7.2270 C.3   600  GLU600      0.0424
      6  CG        37.9370   37.2320    6.8780 C.3   600  GLU600      0.1161
      7  CD        38.4390   37.4630    5.4740 C.2   600  GLU600      0.3649
      8  OE1       38.5250   38.6420    5.0640 O.co2 600  GLU600     -0.2457
      9  OE2       38.7500   36.4660    4.7870 O.co2 600  GLU600     -0.2457
     10  OXT       34.4230   39.3370    9.1170 O.co2 600  GLU600     -0.2441
@<TRIPOS>BOND
     1     9     7   ar
     2     8     7   ar
     3     7     6    1
     4     6     5    1
     5     5     2    1
     6     2     1    1
     7     2     3    1
     8     3    10   ar
     9     3     4   ar
