@<TRIPOS>MOLECULE
3uzo_PLP_A_1.pdb
 15 15 0 0 0
SMALL
GASTEIGER

@<TRIPOS>ATOM
      1  N1        42.5810   34.3230   10.5700 N.ar  371  PLP371     -0.2452
      2  C2        41.4710   34.9550   11.1360 C.ar  371  PLP371      0.0978
      3  C2A       41.6170   35.5660   12.5320 C.3   371  PLP371      0.0555
      4  C3        40.2490   34.9900   10.3720 C.ar  371  PLP371      0.2049
      5  O3        39.1590   35.5910   10.8790 O.3   371  PLP371     -0.2857
      6  C4        40.1940   34.3760    9.0590 C.ar  371  PLP371      0.0182
      7  C4A       38.8190   34.4280    8.2720 C.3   371  PLP371      0.0342
      8  C5        41.4120   33.7330    8.5300 C.ar  371  PLP371      0.0261
      9  C6        42.5780   33.7200    9.2950 C.ar  371  PLP371      0.0965
     10  C5A       41.5130   33.0720    7.2100 C.3   371  PLP371      0.1815
     11  O4P       40.7110   31.9280    7.0870 O.3   371  PLP371     -0.2653
     12  P         39.9340   31.6240    5.7350 P.3   371  PLP371      0.5329
     13  O1P       38.9650   32.7020    5.3830 O.3   371  PLP371     -0.1145
     14  O2P       39.2430   30.2770    6.0590 O.3   371  PLP371     -0.1145
     15  O3P       41.0010   31.3300    4.7200 O.2   371  PLP371     -0.2224
@<TRIPOS>BOND
     1    15    12    2
     2    13    12    1
     3    12    14    1
     4    12    11    1
     5    11    10    1
     6    10     8    1
     7     7     6    1
     8     8     6   ar
     9     8     9   ar
    10     6     4   ar
    11     9     1   ar
    12     4     5    1
    13     4     2   ar
    14     1     2   ar
    15     2     3    1
