@<TRIPOS>MOLECULE
3uzp_0CK_A_1.pdb
 25 28 0 0 0
SMALL
GASTEIGER

@<TRIPOS>ATOM
      1  C7         4.2350    2.7510   18.7610 C.3   295  0CK295      0.1530
      2  N2         3.6650    3.8490   19.3530 N.3   295  0CK295     -0.2441
      3  C8         4.4660    4.1520   20.4120 C.3   295  0CK295      0.2011
      4  N3         5.5410    3.3780   20.6080 N.2   295  0CK295     -0.2549
      5  C9         5.4780    2.4730   19.5950 C.2   295  0CK295      0.0767
      6  C10        3.8380    0.5620   17.3830 C.2   295  0CK295      0.0518
      7  C11        3.2220   -0.1050   16.2870 C.2   295  0CK295      0.1142
      8  N4         2.4410    0.5960   15.4070 N.2   295  0CK295     -0.1673
      9  C12        2.2390    1.9590   15.5630 C.1   295  0CK295      0.1861
     10  N5         2.8200    2.6520   16.6030 N.2   295  0CK295     -0.3379
     11  C13        3.6460    1.9910   17.5690 C.2   295  0CK295      0.1435
     12  N1         1.3910    2.6110   14.6780 N.pl3 295  0CK295     -0.0345
     13  C14        1.6820    5.1370   20.1410 C.3   295  0CK295      0.0160
     14  C15        2.4880    4.5850   18.9700 C.3   295  0CK295      0.0599
     15  C16        2.8850    5.6790   17.9820 C.3   295  0CK295      0.0160
     16  C17        1.7040    6.5010   17.5040 C.3   295  0CK295      0.0014
     17  C18        0.8640    7.0540   18.6800 C.3   295  0CK295      0.0001
     18  C19        0.4980    5.9860   19.7310 C.3   295  0CK295      0.0014
     19  C1         8.1890    0.4310   17.6950 C.ar  295  0CK295      0.0297
     20  C2         8.6690   -0.4200   18.7430 C.ar  295  0CK295      0.1401
     21  C3         8.1340   -0.3660   20.1180 C.ar  295  0CK295      0.0297
     22  C4         7.0790    0.5840   20.4270 C.ar  295  0CK295      0.0035
     23  C5         6.5790    1.4530   19.3820 C.ar  295  0CK295      0.0151
     24  C6         7.1410    1.3710   18.0190 C.ar  295  0CK295      0.0035
     25  F1         9.6400   -1.2630   18.3980 F     295  0CK295     -0.2042
@<TRIPOS>BOND
     1    12     9    1
     2     8     9    2
     3     8     7    1
     4     9    10    2
     5     7     6    2
     6    10    11    2
     7     6    11    1
     8    16    15    1
     9    16    17    1
    10    11     1    1
    11    19    24   ar
    12    19    20   ar
    13    15    14    1
    14    24    23   ar
    15    25    20    1
    16    17    18    1
    17    20    21   ar
    18     1     2    1
    19     1     5    1
    20    14     2    1
    21    14    13    1
    22     2     3    1
    23    23     5    1
    24    23    22   ar
    25     5     4    2
    26    18    13    1
    27    21    22   ar
    28     3     4    1
