@<TRIPOS>MOLECULE
3uzw_NAP_A_1.pdb
 48 52 0 0 0
SMALL
GASTEIGER

@<TRIPOS>ATOM
      1  PA         6.6600  -15.3760    4.5380 P.3   401  NAP401      0.2189
      2  O1A        7.2850  -14.8500    5.7730 O.3   401  NAP401     -0.4371
      3  O2A        5.5150  -14.3930    3.9820 O.2   401  NAP401     -0.5170
      4  O5B        5.9820  -16.7850    4.9270 O.3   401  NAP401     -0.3112
      5  C5B        5.6230  -17.5240    3.7590 C.3   401  NAP401      0.1813
      6  C4B        5.3940  -18.9670    4.2400 C.3   401  NAP401      0.1820
      7  O4B        4.5090  -18.9690    5.3760 O.3   401  NAP401     -0.3136
      8  C3B        4.7380  -19.8460    3.1690 C.3   401  NAP401      0.2157
      9  O3B        5.3250  -21.1470    3.2680 O.3   401  NAP401     -0.2175
     10  C2B        3.2480  -19.8960    3.5950 C.3   401  NAP401      0.2314
     11  O2B        2.7390  -21.1630    3.1950 O.3   401  NAP401     -0.2630
     12  C1B        3.3860  -19.8380    5.1400 C.3   401  NAP401      0.3158
     13  N9A        2.2730  -19.1830    5.8220 N.pl3 401  NAP401     -0.1439
     14  C8A        1.6090  -18.0620    5.4000 C.3   401  NAP401      0.3377
     15  N7A        0.7430  -17.6940    6.2960 N.2   401  NAP401     -0.2095
     16  C5A        0.8160  -18.5440    7.3620 C.2   401  NAP401      0.2526
     17  C6A        0.1500  -18.6570    8.5930 C.2   401  NAP401      0.4393
     18  N6A       -0.8310  -17.7550    8.9490 N.pl3 401  NAP401      0.2180
     19  N1A        0.4840  -19.6470    9.4200 N.2   401  NAP401      0.0021
     20  C2A        1.4270  -20.5120    9.1030 C.3   401  NAP401      0.5254
     21  N3A        2.0740  -20.4530    7.9560 N.2   401  NAP401     -0.0055
     22  C4A        1.8020  -19.5040    7.0670 C.2   401  NAP401      0.3518
     23  O3         7.8190  -15.7650    3.4610 O.3   401  NAP401     -0.2703
     24  PN         8.0720  -14.9330    2.0880 P.3   401  NAP401      0.2189
     25  O1N        9.5190  -15.2790    1.6860 O.3   401  NAP401     -0.4371
     26  O2N        7.1330  -15.4630    0.9810 O.2   401  NAP401     -0.5170
     27  O5D        7.9880  -13.3250    2.2460 O.3   401  NAP401     -0.3112
     28  C5D        6.7160  -12.8090    1.8270 C.3   401  NAP401      0.1813
     29  C4D        6.8540  -11.9910    0.5320 C.3   401  NAP401      0.1799
     30  O4D        7.8980  -10.9650    0.6120 O.3   401  NAP401     -0.3327
     31  C3D        7.3010  -12.8850   -0.6430 C.3   401  NAP401      0.2158
     32  O3D        6.2450  -13.7150   -1.1430 O.3   401  NAP401     -0.2175
     33  C2D        7.7140  -11.7790   -1.6380 C.3   401  NAP401      0.2309
     34  O2D        6.5640  -11.1160   -2.1950 O.3   401  NAP401     -0.2158
     35  C1D        8.4910  -10.8210   -0.7040 C.3   401  NAP401      0.2263
     36  N1N        9.9340  -11.1270   -0.6730 N.pl3 401  NAP401     -0.2787
     37  C2N       10.7910  -10.2350   -1.1330 C.3   401  NAP401      0.1244
     38  C3N       12.1690  -10.4480   -1.0850 C.2   401  NAP401      0.0544
     39  C7N       13.1120   -9.4130   -1.5760 C.2   401  NAP401      0.2818
     40  O7N       14.2990   -9.6810   -1.7090 O.2   401  NAP401     -0.2670
     41  N7N       12.6650   -8.1510   -1.7630 N.am  401  NAP401     -0.0839
     42  C4N       12.6490  -11.6450   -0.5360 C.2   401  NAP401      0.0033
     43  C5N       11.7120  -12.5610   -0.0630 C.2   401  NAP401      0.0157
     44  C6N       10.3590  -12.2580   -0.1380 C.2   401  NAP401      0.0633
     45  P2B        1.3150  -21.0720    2.4570 P.3   401  NAP401      0.5328
     46  O1X        1.4050  -20.3380    1.1730 O.2   401  NAP401     -0.2224
     47  O2X        0.9220  -22.5920    2.1300 O.3   401  NAP401     -0.1145
     48  O3X        0.2190  -20.4350    3.4420 O.3   401  NAP401     -0.1145
@<TRIPOS>BOND
     1    34    33    1
     2    41    39   am
     3    40    39    2
     4    33    35    1
     5    33    31    1
     6    39    38    1
     7    32    31    1
     8    37    38    1
     9    37    36    1
    10    38    42    2
    11    35    36    1
    12    35    30    1
    13    36    44    1
    14    31    29    1
    15    42    43    1
    16    44    43    2
    17    29    30    1
    18    29    28    1
    19    26    24    2
    20    46    45    2
    21    25    24    1
    22    28    27    1
    23    24    27    1
    24    24    23    1
    25    47    45    1
    26    45    11    1
    27    45    48    1
    28     8     9    1
    29     8    10    1
    30     8     6    1
    31    11    10    1
    32    23     1    1
    33    10    12    1
    34     5     6    1
    35     5     4    1
    36     3     1    2
    37     6     7    1
    38     1     4    1
    39     1     2    1
    40    12     7    1
    41    12    13    1
    42    14    13    1
    43    14    15    1
    44    13    22    1
    45    15    16    2
    46    22    16    1
    47    22    21    2
    48    16    17    1
    49    21    20    1
    50    17    18    1
    51    17    19    2
    52    20    19    1
