@<TRIPOS>MOLECULE
3uzx_AOM_A_1.pdb
 21 24 0 0 0
SMALL
GASTEIGER

@<TRIPOS>ATOM
      1  C1        12.9390  -15.6140   -3.6150 C.3   501  AOM501      0.0026
      2  C10       14.2010  -15.5580   -4.4770 C.3   501  AOM501      0.0002
      3  C11       14.2070  -18.1160   -4.7890 C.3   501  AOM501      0.0001
      4  C12       15.0340  -19.4400   -4.7920 C.3   501  AOM501      0.0024
      5  C13       16.3600  -19.2610   -5.5130 C.3   501  AOM501      0.0282
      6  C14       17.1090  -18.1270   -4.7800 C.3   501  AOM501      0.0024
      7  C15       18.5970  -18.2950   -5.1730 C.3   501  AOM501      0.0027
      8  C16       18.7290  -19.8000   -5.5800 C.3   501  AOM501      0.0329
      9  C17       17.3560  -20.4170   -5.3370 C.3   501  AOM501      0.1519
     10  C18       16.1510  -18.9880   -7.0080 C.3   501  AOM501      0.0025
     11  C19       13.8110  -15.3370   -5.9520 C.3   501  AOM501      0.0000
     12  C2        12.1080  -14.3140   -3.7330 C.3   501  AOM501      0.0329
     13  C3        12.9210  -13.0550   -3.4520 C.3   501  AOM501      0.1520
     14  C4        14.3010  -13.0470   -4.0880 C.3   501  AOM501      0.0329
     15  C5        15.0410  -14.3750   -3.9220 C.3   501  AOM501      0.0025
     16  C6        16.4380  -14.3030   -4.5220 C.3   501  AOM501      0.0001
     17  C7        17.1920  -15.6210   -4.3710 C.3   501  AOM501      0.0000
     18  C8        16.4020  -16.7890   -4.9700 C.3   501  AOM501      0.0001
     19  C9        15.0040  -16.8770   -4.3100 C.3   501  AOM501      0.0000
     20  O3        12.1700  -11.9050   -3.9000 O.3   501  AOM501     -0.2232
     21  O17       17.1670  -21.5390   -6.2120 O.3   501  AOM501     -0.2232
@<TRIPOS>BOND
     1    10     5    1
     2    21     9    1
     3    11     2    1
     4     8     9    1
     5     8     7    1
     6     5     9    1
     7     5     4    1
     8     5     6    1
     9     7     6    1
    10    18     6    1
    11    18    17    1
    12    18    19    1
    13     4     3    1
    14     3    19    1
    15    16    17    1
    16    16    15    1
    17     2    19    1
    18     2    15    1
    19     2     1    1
    20    14    15    1
    21    14    13    1
    22    20    13    1
    23    12     1    1
    24    12    13    1
