@<TRIPOS>MOLECULE
3uzx_NAP_A_1.pdb
 48 52 0 0 0
SMALL
GASTEIGER

@<TRIPOS>ATOM
      1  PA         6.6760  -15.5820    4.4720 P.3   401  NAP401      0.2189
      2  O1A        7.2880  -14.9610    5.6610 O.3   401  NAP401     -0.4371
      3  O2A        5.4950  -14.6210    3.9570 O.2   401  NAP401     -0.5170
      4  O5B        6.0940  -17.0300    4.8700 O.3   401  NAP401     -0.3112
      5  C5B        5.5850  -17.7150    3.7250 C.3   401  NAP401      0.1813
      6  C4B        5.3550  -19.1620    4.1690 C.3   401  NAP401      0.1820
      7  O4B        4.4930  -19.1540    5.3160 O.3   401  NAP401     -0.3136
      8  C3B        4.6610  -20.0060    3.0920 C.3   401  NAP401      0.2157
      9  O3B        5.1720  -21.3360    3.1880 O.3   401  NAP401     -0.2175
     10  C2B        3.1670  -19.9920    3.4980 C.3   401  NAP401      0.2314
     11  O2B        2.6140  -21.2380    3.0880 O.3   401  NAP401     -0.2630
     12  C1B        3.3140  -19.9420    5.0390 C.3   401  NAP401      0.3158
     13  N9A        2.2180  -19.2740    5.7350 N.pl3 401  NAP401     -0.1439
     14  C8A        1.5580  -18.1400    5.3540 C.3   401  NAP401      0.3377
     15  N7A        0.6980  -17.8000    6.2710 N.2   401  NAP401     -0.2095
     16  C5A        0.7820  -18.6810    7.3100 C.2   401  NAP401      0.2526
     17  C6A        0.1270  -18.8170    8.5390 C.2   401  NAP401      0.4393
     18  N6A       -0.8440  -17.9110    8.9250 N.pl3 401  NAP401      0.2180
     19  N1A        0.4770  -19.8340    9.3290 N.2   401  NAP401      0.0021
     20  C2A        1.4080  -20.7000    8.9700 C.3   401  NAP401      0.5254
     21  N3A        2.0510  -20.6130    7.8230 N.2   401  NAP401     -0.0055
     22  C4A        1.7610  -19.6300    6.9740 C.2   401  NAP401      0.3518
     23  O3         7.8560  -15.8810    3.3930 O.3   401  NAP401     -0.2703
     24  PN         8.0520  -15.0710    1.9900 P.3   401  NAP401      0.2189
     25  O1N        9.4930  -15.4280    1.5670 O.3   401  NAP401     -0.4371
     26  O2N        7.1060  -15.6220    0.9090 O.2   401  NAP401     -0.5170
     27  O5D        7.9710  -13.4610    2.1030 O.3   401  NAP401     -0.3112
     28  C5D        6.6940  -12.9620    1.6910 C.3   401  NAP401      0.1813
     29  C4D        6.8320  -12.1630    0.3920 C.3   401  NAP401      0.1799
     30  O4D        7.8970  -11.1850    0.5050 O.3   401  NAP401     -0.3327
     31  C3D        7.3000  -13.0690   -0.7570 C.3   401  NAP401      0.2158
     32  O3D        6.2350  -13.8780   -1.2580 O.3   401  NAP401     -0.2175
     33  C2D        7.7240  -11.9710   -1.7500 C.3   401  NAP401      0.2309
     34  O2D        6.5690  -11.3110   -2.2650 O.3   401  NAP401     -0.2158
     35  C1D        8.4740  -11.0000   -0.8180 C.3   401  NAP401      0.2263
     36  N1N        9.9190  -11.2650   -0.7650 N.pl3 401  NAP401     -0.2787
     37  C2N       10.7600  -10.3710   -1.2420 C.3   401  NAP401      0.1244
     38  C3N       12.1390  -10.5680   -1.1520 C.2   401  NAP401      0.0544
     39  C7N       13.0630   -9.5450   -1.6820 C.2   401  NAP401      0.2818
     40  O7N       14.2350   -9.8130   -1.9010 O.2   401  NAP401     -0.2670
     41  N7N       12.5850   -8.3040   -1.9000 N.am  401  NAP401     -0.0839
     42  C4N       12.6230  -11.7290   -0.5470 C.2   401  NAP401      0.0033
     43  C5N       11.7030  -12.6400   -0.0590 C.2   401  NAP401      0.0157
     44  C6N       10.3500  -12.3680   -0.1820 C.2   401  NAP401      0.0633
     45  P2B        1.1610  -21.1490    2.3900 P.3   401  NAP401      0.5328
     46  O1X        1.2110  -20.3660    1.1280 O.2   401  NAP401     -0.2224
     47  O2X        0.7980  -22.6800    2.0580 O.3   401  NAP401     -0.1145
     48  O3X        0.1080  -20.5070    3.4100 O.3   401  NAP401     -0.1145
@<TRIPOS>BOND
     1    34    33    1
     2    40    39    2
     3    41    39   am
     4    33    35    1
     5    33    31    1
     6    39    38    1
     7    32    31    1
     8    37    38    1
     9    37    36    1
    10    38    42    2
    11    35    36    1
    12    35    30    1
    13    36    44    1
    14    31    29    1
    15    42    43    1
    16    44    43    2
    17    29    30    1
    18    29    28    1
    19    26    24    2
    20    46    45    2
    21    25    24    1
    22    28    27    1
    23    24    27    1
    24    24    23    1
    25    47    45    1
    26    45    11    1
    27    45    48    1
    28    11    10    1
    29     8     9    1
    30     8    10    1
    31     8     6    1
    32    23     1    1
    33    10    12    1
    34     5     6    1
    35     5     4    1
    36     3     1    2
    37     6     7    1
    38     1     4    1
    39     1     2    1
    40    12     7    1
    41    12    13    1
    42    14    13    1
    43    14    15    1
    44    13    22    1
    45    15    16    2
    46    22    16    1
    47    22    21    2
    48    16    17    1
    49    21    20    1
    50    17    18    1
    51    17    19    2
    52    20    19    1
