@<TRIPOS>MOLECULE
3uzx_AOX_B_1.pdb
 21 24 0 0 0
SMALL
GASTEIGER

@<TRIPOS>ATOM
      1  C1         4.6740   20.7460  -31.4620 C.3   501  AOX501      0.0026
      2  C2         3.7340   21.1690  -30.3400 C.3   501  AOX501      0.0329
      3  C3         2.2860   21.2200  -30.7750 C.3   501  AOX501      0.1520
      4  C4         1.8200   20.0730  -31.6300 C.3   501  AOX501      0.0329
      5  C5         2.8430   19.7060  -32.7100 C.3   501  AOX501      0.0025
      6  C6         2.3250   18.5870  -33.6060 C.3   501  AOX501      0.0001
      7  C7         3.3570   18.2160  -34.6650 C.3   501  AOX501      0.0000
      8  C8         4.6850   17.8370  -34.0390 C.3   501  AOX501      0.0004
      9  C9         5.2080   19.0300  -33.2020 C.3   501  AOX501      0.0000
     10  C10        4.2160   19.4190  -32.0660 C.3   501  AOX501      0.0002
     11  C11        6.6450   18.8150  -32.6700 C.3   501  AOX501      0.0004
     12  C12        7.6260   18.4590  -33.7940 C.3   501  AOX501      0.0069
     13  C13        7.1130   17.2030  -34.5170 C.3   501  AOX501      0.0515
     14  C14        5.7340   17.5250  -35.0960 C.3   501  AOX501      0.0070
     15  C15        5.4860   16.3940  -36.1140 C.3   501  AOX501      0.0082
     16  C16        6.8850   16.2440  -36.7670 C.3   501  AOX501      0.0645
     17  C17        7.8590   16.8260  -35.7900 C.2   501  AOX501      0.1498
     18  C18        7.1670   15.9480  -33.6270 C.3   501  AOX501      0.0073
     19  C19        4.1700   18.3440  -30.9570 C.3   501  AOX501      0.0000
     20  O3         1.4620   21.2530  -29.6260 O.3   501  AOX501     -0.2232
     21  O17        9.0240   17.0640  -36.0110 O.2   501  AOX501     -0.2961
@<TRIPOS>BOND
     1    16    15    1
     2    16    17    1
     3    15    14    1
     4    21    17    2
     5    17    13    1
     6    14    13    1
     7    14     8    1
     8     7     8    1
     9     7     6    1
    10    13    12    1
    11    13    18    1
    12     8     9    1
    13    12    11    1
    14     6     5    1
    15     9    11    1
    16     9    10    1
    17     5    10    1
    18     5     4    1
    19    10     1    1
    20    10    19    1
    21     4     3    1
    22     1     2    1
    23     3     2    1
    24     3    20    1
