@<TRIPOS>MOLECULE
3uzy_BDT_A_1.pdb
 21 24 0 0 0
SMALL
GASTEIGER

@<TRIPOS>ATOM
      1  C1        16.2310  -14.8070   -4.6900 C.3   501  BDT501      0.0078
      2  C2        15.6640  -14.2140   -5.9720 C.3   501  BDT501      0.0645
      3  C3        14.1640  -14.3280   -6.0160 C.2   501  BDT501      0.1506
      4  O3        13.4540  -13.4150   -6.3810 O.2   501  BDT501     -0.2961
      5  C4        13.5650  -15.6340   -5.5960 C.3   501  BDT501      0.0645
      6  C5        14.2350  -16.2940   -4.3780 C.3   501  BDT501      0.0073
      7  C6        13.6920  -17.7180   -4.2240 C.3   501  BDT501      0.0004
      8  C7        14.2280  -18.6410   -5.3100 C.3   501  BDT501      0.0000
      9  C8        15.7560  -18.6610   -5.3240 C.3   501  BDT501      0.0001
     10  C9        16.3220  -17.2320   -5.5080 C.3   501  BDT501      0.0000
     11  C10       15.7890  -16.2560   -4.4210 C.3   501  BDT501      0.0008
     12  C11       17.8560  -17.2160   -5.6220 C.3   501  BDT501      0.0001
     13  C12       18.3730  -18.2060   -6.6800 C.3   501  BDT501      0.0024
     14  C13       17.8430  -19.6130   -6.4250 C.3   501  BDT501      0.0282
     15  C14       16.3070  -19.5590   -6.4190 C.3   501  BDT501      0.0024
     16  C15       15.8760  -21.0330   -6.4880 C.3   501  BDT501      0.0027
     17  C16       17.0070  -21.7000   -7.3020 C.3   501  BDT501      0.0329
     18  C17       18.0610  -20.6070   -7.5740 C.3   501  BDT501      0.1519
     19  O17       19.3950  -21.1140   -7.6160 O.3   501  BDT501     -0.2232
     20  C18       18.4430  -20.1980   -5.1320 C.3   501  BDT501      0.0025
     21  C19       16.3510  -16.6330   -3.0320 C.3   501  BDT501      0.0000
@<TRIPOS>BOND
     1    19    18    1
     2    18    17    1
     3    18    14    1
     4    17    16    1
     5    13    14    1
     6    13    12    1
     7    16    15    1
     8    14    15    1
     9    14    20    1
    10    15     9    1
    11     4     3    2
    12     3     2    1
    13     3     5    1
    14     2     1    1
    15    12    10    1
    16     5     6    1
    17    10     9    1
    18    10    11    1
    19     9     8    1
    20     8     7    1
    21     1    11    1
    22    11     6    1
    23    11    21    1
    24     6     7    1
