@<TRIPOS>MOLECULE
3uzy_NAP_A_1.pdb
 48 52 0 0 0
SMALL
GASTEIGER

@<TRIPOS>ATOM
      1  PA         6.5620  -15.8240    4.0630 P.3   401  NAP401      0.2189
      2  O1A        7.1350  -15.2500    5.2990 O.3   401  NAP401     -0.4371
      3  O2A        5.4350  -14.8300    3.5300 O.2   401  NAP401     -0.5170
      4  O5B        5.9230  -17.2430    4.4720 O.3   401  NAP401     -0.3112
      5  C5B        5.5340  -18.0110    3.3370 C.3   401  NAP401      0.1813
      6  C4B        5.2250  -19.4310    3.8370 C.3   401  NAP401      0.1820
      7  O4B        4.3770  -19.3860    5.0010 O.3   401  NAP401     -0.3136
      8  C3B        4.5050  -20.2640    2.7710 C.3   401  NAP401      0.2157
      9  O3B        5.0300  -21.5990    2.7890 O.3   401  NAP401     -0.2175
     10  C2B        3.0150  -20.2680    3.2090 C.3   401  NAP401      0.2314
     11  O2B        2.4350  -21.5110    2.8070 O.3   401  NAP401     -0.2630
     12  C1B        3.1960  -20.2020    4.7440 C.3   401  NAP401      0.3158
     13  N9A        2.0980  -19.5220    5.4140 N.pl3 401  NAP401     -0.1439
     14  C8A        1.4760  -18.3600    5.0370 C.3   401  NAP401      0.3377
     15  N7A        0.6270  -17.9890    5.9530 N.2   401  NAP401     -0.2095
     16  C5A        0.6650  -18.8970    6.9770 C.2   401  NAP401      0.2526
     17  C6A        0.0000  -19.0410    8.2100 C.2   401  NAP401      0.4393
     18  N6A       -0.9450  -18.1240    8.6110 N.pl3 401  NAP401      0.2180
     19  N1A        0.3150  -20.0780    8.9870 N.2   401  NAP401      0.0021
     20  C2A        1.2270  -20.9560    8.6080 C.3   401  NAP401      0.5254
     21  N3A        1.8770  -20.8800    7.4640 N.2   401  NAP401     -0.0055
     22  C4A        1.6210  -19.8730    6.6350 C.2   401  NAP401      0.3518
     23  O3         7.7000  -16.2030    2.9970 O.3   401  NAP401     -0.2703
     24  PN         7.9550  -15.3510    1.6430 P.3   401  NAP401      0.2189
     25  O1N        9.4140  -15.7060    1.3230 O.3   401  NAP401     -0.4371
     26  O2N        7.0450  -15.8650    0.5020 O.2   401  NAP401     -0.5170
     27  O5D        7.8800  -13.7550    1.8700 O.3   401  NAP401     -0.3112
     28  C5D        6.6170  -13.2300    1.4330 C.3   401  NAP401      0.1813
     29  C4D        6.7780  -12.4170    0.1420 C.3   401  NAP401      0.1799
     30  O4D        7.8420  -11.4390    0.2770 O.3   401  NAP401     -0.3327
     31  C3D        7.2410  -13.2740   -1.0400 C.3   401  NAP401      0.2158
     32  O3D        6.1730  -14.0580   -1.5710 O.3   401  NAP401     -0.2175
     33  C2D        7.6870  -12.1600   -2.0080 C.3   401  NAP401      0.2309
     34  O2D        6.5440  -11.4640   -2.5380 O.3   401  NAP401     -0.2158
     35  C1D        8.4380  -11.2270   -1.0320 C.3   401  NAP401      0.2263
     36  N1N        9.8850  -11.5190   -1.0320 N.pl3 401  NAP401     -0.2787
     37  C2N       10.7170  -10.5930   -1.4690 C.3   401  NAP401      0.1244
     38  C3N       12.0930  -10.8360   -1.5070 C.2   401  NAP401      0.0544
     39  C7N       13.0210   -9.7860   -1.9790 C.2   401  NAP401      0.2818
     40  O7N       14.1990  -10.0630   -2.1640 O.2   401  NAP401     -0.2670
     41  N7N       12.5840   -8.5060   -2.0430 N.am  401  NAP401     -0.0839
     42  C4N       12.5810  -12.0760   -1.0710 C.2   401  NAP401      0.0033
     43  C5N       11.6680  -13.0190   -0.6110 C.2   401  NAP401      0.0157
     44  C6N       10.3170  -12.6950   -0.6080 C.2   401  NAP401      0.0633
     45  P2B        1.0070  -21.3900    2.0470 P.3   401  NAP401      0.5328
     46  O1X        1.0820  -20.5840    0.7940 O.2   401  NAP401     -0.2224
     47  O2X        0.6140  -22.9030    1.6560 O.3   401  NAP401     -0.1145
     48  O3X       -0.0470  -20.7520    3.0820 O.3   401  NAP401     -0.1145
@<TRIPOS>BOND
     1    34    33    1
     2    40    39    2
     3    41    39   am
     4    33    31    1
     5    33    35    1
     6    39    38    1
     7    32    31    1
     8    38    37    1
     9    38    42    2
    10    37    36    1
    11    42    43    1
    12    31    29    1
    13    35    36    1
    14    35    30    1
    15    36    44    1
    16    43    44    2
    17    29    30    1
    18    29    28    1
    19    26    24    2
    20    46    45    2
    21    25    24    1
    22    28    27    1
    23    24    27    1
    24    24    23    1
    25    47    45    1
    26    45    11    1
    27    45    48    1
    28     8     9    1
    29     8    10    1
    30     8     6    1
    31    11    10    1
    32    23     1    1
    33    10    12    1
    34     5     6    1
    35     5     4    1
    36     3     1    2
    37     6     7    1
    38     1     4    1
    39     1     2    1
    40    12     7    1
    41    12    13    1
    42    14    13    1
    43    14    15    1
    44    13    22    1
    45    15    16    2
    46    22    16    1
    47    22    21    2
    48    16    17    1
    49    21    20    1
    50    17    18    1
    51    17    19    2
    52    20    19    1
