@<TRIPOS>MOLECULE
3uzz_TES_A_1.pdb
 21 24 0 0 0
SMALL
GASTEIGER

@<TRIPOS>ATOM
      1  C1        15.5290  -14.0070   -5.2730 C.3   501  TES501      0.0118
      2  C2        14.7230  -12.8520   -4.6880 C.3   501  TES501      0.0694
      3  C3        13.2390  -13.1880   -4.6260 C.2   501  TES501      0.1725
      4  O3        12.3880  -12.3390   -4.8090 O.2   501  TES501     -0.2914
      5  C4        12.8550  -14.5560   -4.2700 C.2   501  TES501      0.0289
      6  C5        13.7460  -15.5350   -4.2880 C.2   501  TES501     -0.0420
      7  C6        13.2710  -16.9220   -3.8800 C.3   501  TES501      0.0221
      8  C7        13.7420  -17.9270   -4.9330 C.3   501  TES501      0.0044
      9  C8        15.2610  -17.8330   -5.0450 C.3   501  TES501      0.0007
     10  C9        15.6440  -16.4580   -5.6180 C.3   501  TES501      0.0035
     11  C10       15.1670  -15.3530   -4.6740 C.3   501  TES501      0.0157
     12  C11       17.1540  -16.3260   -5.7830 C.3   501  TES501      0.0004
     13  C12       17.7500  -17.4820   -6.6080 C.3   501  TES501      0.0025
     14  C13       17.3430  -18.8130   -6.0000 C.3   501  TES501      0.0282
     15  C14       15.7890  -18.8900   -6.0270 C.3   501  TES501      0.0025
     16  C15       15.5290  -20.3600   -5.6630 C.3   501  TES501      0.0027
     17  C16       16.6450  -21.1200   -6.4380 C.3   501  TES501      0.0329
     18  C17       17.7430  -20.0630   -6.7800 C.3   501  TES501      0.1519
     19  O17       19.0440  -20.5280   -6.4030 O.3   501  TES501     -0.2232
     20  C18       17.8760  -18.8940   -4.5670 C.3   501  TES501      0.0025
     21  C19       15.9680  -15.4790   -3.3790 C.3   501  TES501      0.0041
@<TRIPOS>BOND
     1    18    17    1
     2    18    19    1
     3    18    14    1
     4    13    14    1
     5    13    12    1
     6    17    16    1
     7    15    14    1
     8    15    16    1
     9    15     9    1
    10    14    20    1
    11    12    10    1
    12    10     9    1
    13    10    11    1
    14     1     2    1
    15     1    11    1
    16     9     8    1
    17     8     7    1
    18     4     3    2
    19     2     3    1
    20    11     6    1
    21    11    21    1
    22     3     5    1
    23     6     5    2
    24     6     7    1
