@<TRIPOS>MOLECULE
3uzz_ASD_B_1.pdb
 21 24 0 0 0
SMALL
GASTEIGER

@<TRIPOS>ATOM
      1  C1         2.2930   18.9240  -32.8870 C.3   501  ASD501      0.0118
      2  C10        3.5460   19.6320  -33.4310 C.3   501  ASD501      0.0157
      3  C11        3.8920   17.8200  -35.2190 C.3   501  ASD501      0.0007
      4  C12        4.7460   16.6600  -35.7430 C.3   501  ASD501      0.0069
      5  C13        6.1580   17.1400  -36.0010 C.3   501  ASD501      0.0515
      6  C14        6.7400   17.7880  -34.7430 C.3   501  ASD501      0.0070
      7  C15        8.2270   17.9280  -35.0470 C.3   501  ASD501      0.0082
      8  C16        8.5390   16.6240  -35.8140 C.3   501  ASD501      0.0645
      9  C17        7.2090   16.0940  -36.2970 C.2   501  ASD501      0.1498
     10  C18        6.1960   18.0580  -37.2320 C.3   501  ASD501      0.0073
     11  C19        3.1380   20.6590  -34.5080 C.3   501  ASD501      0.0041
     12  C2         1.4420   19.7850  -31.9520 C.3   501  ASD501      0.0694
     13  C3         2.2270   20.5440  -30.9140 C.2   501  ASD501      0.1725
     14  C4         3.6260   20.7800  -31.2050 C.2   501  ASD501      0.0289
     15  C5         4.2490   20.3870  -32.3100 C.2   501  ASD501     -0.0420
     16  C6         5.6690   20.7930  -32.5600 C.3   501  ASD501      0.0221
     17  C7         6.5290   19.6180  -33.0130 C.3   501  ASD501      0.0044
     18  C8         5.9480   18.9910  -34.2690 C.3   501  ASD501      0.0010
     19  C9         4.4980   18.5290  -33.9980 C.3   501  ASD501      0.0035
     20  O1         1.6840   21.1000  -29.9590 O.2   501  ASD501     -0.2914
     21  O2         7.0270   15.0270  -36.8480 O.2   501  ASD501     -0.2961
@<TRIPOS>BOND
     1    10     5    1
     2    21     9    2
     3     9     5    1
     4     9     8    1
     5     5     4    1
     6     5     6    1
     7     8     7    1
     8     4     3    1
     9     3    19    1
    10     7     6    1
    11     6    18    1
    12    11     2    1
    13    18    19    1
    14    18    17    1
    15    19     2    1
    16     2     1    1
    17     2    15    1
    18    17    16    1
    19     1    12    1
    20    16    15    1
    21    15    14    2
    22    12    13    1
    23    14    13    1
    24    13    20    2
