@<TRIPOS>MOLECULE
3uzz_NAP_A_1.pdb
 48 52 0 0 0
SMALL
GASTEIGER

@<TRIPOS>ATOM
      1  PA         6.5050  -15.7220    4.0740 P.3   401  NAP401      0.2189
      2  O1A        7.1760  -15.1750    5.2720 O.3   401  NAP401     -0.4371
      3  O2A        5.3960  -14.6680    3.6010 O.2   401  NAP401     -0.5170
      4  O5B        5.8110  -17.0960    4.5250 O.3   401  NAP401     -0.3112
      5  C5B        5.3960  -17.8490    3.3890 C.3   401  NAP401      0.1813
      6  C4B        5.2070  -19.3040    3.8330 C.3   401  NAP401      0.1820
      7  O4B        4.3820  -19.3820    5.0060 O.3   401  NAP401     -0.3136
      8  C3B        4.5110  -20.1060    2.7350 C.3   401  NAP401      0.2157
      9  O3B        5.0580  -21.4290    2.7430 O.3   401  NAP401     -0.2175
     10  C2B        3.0200  -20.1420    3.1690 C.3   401  NAP401      0.2314
     11  O2B        2.4880  -21.3830    2.7060 O.3   401  NAP401     -0.2630
     12  C1B        3.1870  -20.1400    4.7080 C.3   401  NAP401      0.3158
     13  N9A        2.1100  -19.4430    5.4030 N.pl3 401  NAP401     -0.1439
     14  C8A        1.4700  -18.2990    5.0140 C.3   401  NAP401      0.3377
     15  N7A        0.6340  -17.9270    5.9370 N.2   401  NAP401     -0.2095
     16  C5A        0.7040  -18.8050    6.9780 C.2   401  NAP401      0.2526
     17  C6A        0.0630  -18.9310    8.2190 C.2   401  NAP401      0.4393
     18  N6A       -0.8840  -18.0260    8.6310 N.pl3 401  NAP401      0.2180
     19  N1A        0.3990  -19.9460    9.0070 N.2   401  NAP401      0.0021
     20  C2A        1.3130  -20.8250    8.6390 C.3   401  NAP401      0.5254
     21  N3A        1.9410  -20.7620    7.4850 N.2   401  NAP401     -0.0055
     22  C4A        1.6630  -19.7720    6.6410 C.2   401  NAP401      0.3518
     23  O3         7.6300  -16.1260    2.9830 O.3   401  NAP401     -0.2703
     24  PN         7.9670  -15.2280    1.6750 P.3   401  NAP401      0.2189
     25  O1N        9.4110  -15.6050    1.2790 O.3   401  NAP401     -0.4371
     26  O2N        7.0600  -15.6930    0.5250 O.2   401  NAP401     -0.5170
     27  O5D        7.9160  -13.6380    1.9410 O.3   401  NAP401     -0.3112
     28  C5D        6.6650  -13.1140    1.4660 C.3   401  NAP401      0.1813
     29  C4D        6.8170  -12.3290    0.1540 C.3   401  NAP401      0.1799
     30  O4D        7.8740  -11.3440    0.2450 O.3   401  NAP401     -0.3327
     31  C3D        7.2570  -13.2230   -1.0220 C.3   401  NAP401      0.2158
     32  O3D        6.1760  -14.0180   -1.5310 O.3   401  NAP401     -0.2175
     33  C2D        7.6790  -12.1200   -2.0070 C.3   401  NAP401      0.2309
     34  O2D        6.5180  -11.4360   -2.4890 O.3   401  NAP401     -0.2158
     35  C1D        8.4450  -11.1570   -1.0810 C.3   401  NAP401      0.2263
     36  N1N        9.8960  -11.4270   -1.0900 N.pl3 401  NAP401     -0.2787
     37  C2N       10.7310  -10.4820   -1.4860 C.3   401  NAP401      0.1244
     38  C3N       12.1090  -10.6970   -1.4880 C.2   401  NAP401      0.0544
     39  C7N       13.0540   -9.6420   -1.9140 C.2   401  NAP401      0.2818
     40  O7N       14.2200   -9.9410   -2.1150 O.2   401  NAP401     -0.2670
     41  N7N       12.6550   -8.3480   -1.9740 N.am  401  NAP401     -0.0839
     42  C4N       12.6060  -11.9350   -1.0610 C.2   401  NAP401      0.0033
     43  C5N       11.6930  -12.8950   -0.6480 C.2   401  NAP401      0.0157
     44  C6N       10.3390  -12.5970   -0.6740 C.2   401  NAP401      0.0633
     45  P2B        1.0350  -21.2850    2.0150 P.3   401  NAP401      0.5328
     46  O1X        1.0830  -20.4800    0.7660 O.2   401  NAP401     -0.2224
     47  O2X        0.6040  -22.8000    1.6850 O.3   401  NAP401     -0.1145
     48  O3X        0.0270  -20.6430    3.0780 O.3   401  NAP401     -0.1145
@<TRIPOS>BOND
     1    34    33    1
     2    40    39    2
     3    33    35    1
     4    33    31    1
     5    41    39   am
     6    39    38    1
     7    32    31    1
     8    38    37    1
     9    38    42    2
    10    37    36    1
    11    36    35    1
    12    36    44    1
    13    35    30    1
    14    42    43    1
    15    31    29    1
    16    44    43    2
    17    29    30    1
    18    29    28    1
    19    26    24    2
    20    46    45    2
    21    25    24    1
    22    28    27    1
    23    24    27    1
    24    24    23    1
    25    47    45    1
    26    45    11    1
    27    45    48    1
    28    11    10    1
    29     8     9    1
    30     8    10    1
    31     8     6    1
    32    23     1    1
    33    10    12    1
    34     5     6    1
    35     5     4    1
    36     3     1    2
    37     6     7    1
    38     1     4    1
    39     1     2    1
    40    12     7    1
    41    12    13    1
    42    14    13    1
    43    14    15    1
    44    13    22    1
    45    15    16    2
    46    22    16    1
    47    22    21    2
    48    16    17    1
    49    21    20    1
    50    17    18    1
    51    17    19    2
    52    20    19    1
