@<TRIPOS>MOLECULE
3v00_GDP_A_1.pdb
 28 30 0 0 0
SMALL
GASTEIGER

@<TRIPOS>ATOM
      1  PB         4.4160   49.2690  -28.7710 P.3   401  GDP401      0.5373
      2  O1B        5.3660   50.3630  -29.0930 O.3   401  GDP401     -0.1143
      3  O2B        3.4080   48.9400  -29.8060 O.2   401  GDP401     -0.2221
      4  O3B        3.8020   49.4220  -27.4370 O.3   401  GDP401     -0.1143
      5  O3A        5.3150   47.9410  -28.5880 O.3   401  GDP401     -0.2261
      6  PA         5.3880   46.6260  -29.5370 P.3   401  GDP401      0.2231
      7  O1A        5.9170   46.9800  -30.8810 O.2   401  GDP401     -0.5169
      8  O2A        4.1110   45.8760  -29.4310 O.3   401  GDP401     -0.4370
      9  O5'        6.4950   45.7870  -28.7030 O.3   401  GDP401     -0.3111
     10  C5'        7.8850   46.1350  -28.7120 C.3   401  GDP401      0.1813
     11  C4'        8.7390   44.8980  -29.0240 C.3   401  GDP401      0.1799
     12  O4'        8.6690   43.9950  -27.9090 O.3   401  GDP401     -0.3326
     13  C3'        8.3220   44.0790  -30.2440 C.3   401  GDP401      0.2158
     14  O3'        9.4970   43.6350  -30.9380 O.3   401  GDP401     -0.2175
     15  C2'        7.5630   42.8890  -29.6610 C.3   401  GDP401      0.2310
     16  O2'        7.6470   41.7090  -30.4900 O.3   401  GDP401     -0.2158
     17  C1'        8.2670   42.6760  -28.3270 C.3   401  GDP401      0.2293
     18  N9         7.3750   42.1450  -27.2710 N.pl3 401  GDP401     -0.2354
     19  C8         6.1900   42.6330  -26.9450 C.3   401  GDP401      0.2246
     20  N7         5.7280   41.9630  -25.8920 N.2   401  GDP401     -0.2322
     21  C5         6.6290   41.0640  -25.5450 C.2   401  GDP401      0.2182
     22  C6         6.6400   40.1580  -24.5720 C.1   401  GDP401      0.2372
     23  O6         5.7600   39.9510  -23.7520 O.2   401  GDP401     -0.2069
     24  N1         7.7700   39.3630  -24.4880 N.2   401  GDP401     -0.2485
     25  C2         8.8270   39.5070  -25.3810 C.1   401  GDP401      0.2531
     26  N2         9.8830   38.7090  -25.2480 N.pl3 401  GDP401     -0.0226
     27  N3         8.7410   40.4410  -26.3340 N.2   401  GDP401     -0.3074
     28  C4         7.6410   41.1940  -26.3920 C.2   401  GDP401      0.2300
@<TRIPOS>BOND
     1    14    13    1
     2     7     6    2
     3    16    15    1
     4    13    15    1
     5    13    11    1
     6     3     1    2
     7    15    17    1
     8     6     8    1
     9     6     9    1
    10     6     5    1
    11     2     1    1
    12    11    10    1
    13    11    12    1
    14     1     5    1
    15     1     4    1
    16    10     9    1
    17    17    12    1
    18    17    18    1
    19    18    19    1
    20    18    28    1
    21    19    20    1
    22    28    27    2
    23    28    21    1
    24    27    25    2
    25    20    21    2
    26    21    22    1
    27    25    26    1
    28    25    24    2
    29    22    24    2
    30    22    23    2
