@<TRIPOS>MOLECULE
3v01_3V0_A_1.pdb
 27 29 0 0 0
SMALL
GASTEIGER

@<TRIPOS>ATOM
      1  C1        36.3800   32.1770  -12.8910 C.ar  501  3V0501      0.1020
      2  F1        32.7410   27.3960  -18.1450 F     501  3V0501     -0.2028
      3  I1        36.5850   23.7900  -17.6960 I     501  3V0501     -0.0424
      4  N1        36.8750   31.5010  -13.9350 N.ar  501  3V0501     -0.2421
      5  O1        32.8520   31.0430  -13.1490 O.2   501  3V0501     -0.4473
      6  C2        35.0390   32.0570  -12.5640 C.ar  501  3V0501      0.0582
      7  N2        30.2320   29.8790  -13.3730 N.am  501  3V0501     -0.0550
      8  O2        30.8060   29.2540  -15.4270 O.2   501  3V0501     -0.2627
      9  C3        36.1230   30.7070  -14.7220 C.ar  501  3V0501      0.1033
     10  N3        33.5250   29.0010  -16.0330 N.pl3 501  3V0501     -0.2068
     11  O3        28.9490   29.4740  -13.5820 O.3   501  3V0501     -0.2408
     12  C4        34.7800   30.5670  -14.4360 C.ar  501  3V0501      0.0721
     13  O4        26.9180   30.0690  -15.6720 O.3   501  3V0501     -0.2175
     14  C5        34.2430   31.2440  -13.3460 C.ar  501  3V0501      0.1499
     15  O5        25.5900   32.1070  -14.9150 O.3   501  3V0501     -0.2175
     16  C6        32.5000   30.1870  -14.1460 C.ar  501  3V0501      0.2172
     17  C7        33.6850   29.8850  -14.9840 C.ar  501  3V0501      0.1141
     18  C8        31.1120   29.7240  -14.3440 C.2   501  3V0501      0.3259
     19  C9        34.2220   27.8520  -16.3270 C.ar  501  3V0501      0.0980
     20  C10       35.3510   27.4330  -15.6190 C.ar  501  3V0501      0.0192
     21  C11       36.0340   26.2920  -15.9800 C.ar  501  3V0501      0.0073
     22  C12       35.6090   25.5470  -17.0820 C.ar  501  3V0501      0.0324
     23  C13       34.5000   25.9410  -17.7900 C.ar  501  3V0501      0.0368
     24  C14       33.8150   27.0770  -17.4160 C.ar  501  3V0501      0.1556
     25  C15       27.8900   30.4230  -13.4050 C.3   501  3V0501      0.2088
     26  C16       26.6570   30.0690  -14.2410 C.3   501  3V0501      0.2167
     27  C17       25.5890   31.1000  -13.8980 C.3   501  3V0501      0.2175
@<TRIPOS>BOND
     1     2    24    1
     2    23    24   ar
     3    23    22   ar
     4     3    22    1
     5    24    19   ar
     6    22    21   ar
     7    19    10    1
     8    19    20   ar
     9    10    17    1
    10    21    20   ar
    11    13    26    1
    12     8    18    2
    13    17    12   ar
    14    17    16   ar
    15    15    27    1
    16     9    12   ar
    17     9     4   ar
    18    12    14   ar
    19    18    16    1
    20    18     7   am
    21    26    27    1
    22    26    25    1
    23    16     5   ar
    24     4     1   ar
    25    11    25    1
    26    11     7    1
    27    14     5   ar
    28    14     6   ar
    29     1     6   ar
