@<TRIPOS>MOLECULE
3v01_ATP_A_1.pdb
 31 33 0 0 0
SMALL
GASTEIGER

@<TRIPOS>ATOM
      1  PG        24.0720   27.7620  -11.7460 P.3   502  ATP502      0.5373
      2  O1G       23.5430   27.7560  -10.3310 O.3   502  ATP502     -0.1143
      3  O2G       25.5860   27.5600  -11.9050 O.3   502  ATP502     -0.1143
      4  O3G       23.4490   28.8720  -12.5770 O.2   502  ATP502     -0.2221
      5  PB        24.3120   25.6450  -13.4720 P.3   502  ATP502      0.2277
      6  O1B       25.6860   25.3260  -12.9520 O.3   502  ATP502     -0.4368
      7  O2B       23.3450   24.5920  -13.9380 O.2   502  ATP502     -0.5168
      8  O3B       23.4770   26.3940  -12.3480 O.3   502  ATP502     -0.2258
      9  PA        25.4180   26.6740  -15.8900 P.3   502  ATP502      0.2189
     10  O1A       25.1710   27.8410  -16.8100 O.2   502  ATP502     -0.5170
     11  O2A       26.8480   26.3790  -15.4660 O.3   502  ATP502     -0.4371
     12  O3A       24.4670   26.7930  -14.5960 O.3   502  ATP502     -0.2700
     13  O5'       24.9590   25.3270  -16.6270 O.3   502  ATP502     -0.3112
     14  C5'       23.6380   25.0840  -17.0640 C.3   502  ATP502      0.1813
     15  C4'       23.5450   23.5990  -17.4210 C.3   502  ATP502      0.1821
     16  O4'       24.3500   23.3390  -18.5620 O.3   502  ATP502     -0.3135
     17  C3'       24.0540   22.6440  -16.3610 C.3   502  ATP502      0.2184
     18  O3'       23.0220   22.3170  -15.4230 O.3   502  ATP502     -0.2174
     19  C2'       24.4670   21.4410  -17.1800 C.3   502  ATP502      0.2570
     20  O2'       23.3740   20.5210  -17.2870 O.3   502  ATP502     -0.2130
     21  C1'       24.7490   21.9930  -18.5610 C.3   502  ATP502      0.3186
     22  N9        26.1670   21.9760  -18.9000 N.pl3 502  ATP502     -0.1439
     23  C8        27.0630   22.8980  -18.5380 C.3   502  ATP502      0.3377
     24  N7        28.2780   22.5650  -19.0190 N.2   502  ATP502     -0.2095
     25  C5        28.1600   21.4140  -19.7170 C.2   502  ATP502      0.2526
     26  C6        29.0450   20.5110  -20.5090 C.2   502  ATP502      0.4393
     27  N6        30.3430   20.8120  -20.6160 N.pl3 502  ATP502      0.2180
     28  N1        28.5450   19.3910  -21.0880 N.2   502  ATP502      0.0021
     29  C2        27.2340   19.0960  -20.9630 C.3   502  ATP502      0.5254
     30  N3        26.3670   19.8720  -20.2730 N.2   502  ATP502     -0.0055
     31  C4        26.7530   21.0270  -19.6390 C.2   502  ATP502      0.3518
@<TRIPOS>BOND
     1    28    29    1
     2    28    26    2
     3    29    30    1
     4    27    26    1
     5    26    25    1
     6    30    31    2
     7    25    31    1
     8    25    24    2
     9    31    22    1
    10    24    23    1
    11    22    21    1
    12    22    23    1
    13    16    21    1
    14    16    15    1
    15    21    19    1
    16    15    14    1
    17    15    17    1
    18    20    19    1
    19    19    17    1
    20    14    13    1
    21    10     9    2
    22    13     9    1
    23    17    18    1
    24     9    11    1
    25     9    12    1
    26    12     5    1
    27     7     5    2
    28     5     6    1
    29     5     8    1
    30     4     1    2
    31     8     1    1
    32     3     1    1
    33     1     2    1
