@<TRIPOS>MOLECULE
3v04_V04_A_1.pdb
 25 27 0 0 0
SMALL
GASTEIGER

@<TRIPOS>ATOM
      1  C1        32.4830  -30.4420  -28.3370 C.2   501  V04501      0.0686
      2  F1        32.7170  -27.6600  -24.6100 F     501  V04501     -0.2028
      3  I1        36.5400  -23.9500  -24.9430 I     501  V04501     -0.0424
      4  N1        36.1290  -32.1190  -29.2060 N.2   501  V04501     -0.1519
      5  O1        30.8730  -29.4420  -26.9000 O.2   501  V04501     -0.2661
      6  C2        32.5050  -31.3770  -29.3690 C.2   501  V04501     -0.0138
      7  N2        36.9640  -31.4880  -28.2650 N.2   501  V04501     -0.1466
      8  O2        29.0010  -29.3250  -28.8070 O.3   501  V04501     -0.2409
      9  C3        33.6900  -31.9910  -29.7330 C.3   501  V04501      0.0739
     10  N3        33.5820  -29.1950  -26.6320 N.pl3 501  V04501     -0.2100
     11  O3        26.0370  -30.6700  -27.2750 O.3   501  V04501     -0.2175
     12  C4        33.6600  -30.1000  -27.6560 C.2   501  V04501      0.0774
     13  N4        30.2480  -29.8200  -29.0050 N.am  501  V04501     -0.0577
     14  C5        34.8580  -30.7480  -28.0180 C.2   501  V04501      0.0519
     15  C6        34.8580  -31.6720  -29.0590 C.2   501  V04501      0.0877
     16  C7        36.1990  -30.6420  -27.5450 C.2   501  V04501      0.1246
     17  C8        34.2910  -28.0600  -26.3420 C.ar  501  V04501      0.0979
     18  C9        35.4440  -27.6340  -27.0120 C.ar  501  V04501      0.0192
     19  C10       36.1010  -26.4680  -26.6250 C.ar  501  V04501      0.0073
     20  C11       35.6100  -25.7130  -25.5640 C.ar  501  V04501      0.0324
     21  C12       34.4720  -26.1250  -24.8960 C.ar  501  V04501      0.0368
     22  C13       33.8200  -27.2880  -25.2830 C.ar  501  V04501      0.1556
     23  C14       31.1400  -29.8480  -28.0210 C.2   501  V04501      0.2910
     24  C15       27.9030  -30.2400  -28.7340 C.3   501  V04501      0.2088
     25  C16       27.4320  -30.3790  -27.2900 C.3   501  V04501      0.2167
@<TRIPOS>BOND
     1     9     6    1
     2     9    15    1
     3     6     1    2
     4     4    15    2
     5     4     7    1
     6    15    14    1
     7    13     8    1
     8    13    23   am
     9     8    24    1
    10    24    25    1
    11     1    23    1
    12     1    12    1
    13     7    16    2
    14    23     5    2
    15    14    12    2
    16    14    16    1
    17    12    10    1
    18    25    11    1
    19    18    19   ar
    20    18    17   ar
    21    10    17    1
    22    19    20   ar
    23    17    22   ar
    24    20     3    1
    25    20    21   ar
    26    22    21   ar
    27    22     2    1
