@<TRIPOS>MOLECULE
3v04_ATP_A_1.pdb
 31 33 0 0 0
SMALL
GASTEIGER

@<TRIPOS>ATOM
      1  PG        24.0910  -27.8470  -31.0570 P.3   502  ATP502      0.5373
      2  O1G       23.2060  -28.3000  -32.1560 O.2   502  ATP502     -0.2221
      3  O2G       25.4760  -27.4490  -31.6040 O.3   502  ATP502     -0.1143
      4  O3G       24.2700  -29.0040  -30.0570 O.3   502  ATP502     -0.1143
      5  PB        24.2360  -25.7510  -29.2160 P.3   502  ATP502      0.2277
      6  O1B       25.5630  -25.3300  -29.7070 O.2   502  ATP502     -0.5168
      7  O2B       23.3860  -24.5610  -28.7520 O.3   502  ATP502     -0.4368
      8  O3B       23.4350  -26.5500  -30.3550 O.3   502  ATP502     -0.2258
      9  PA        25.3650  -26.6990  -26.7900 P.3   502  ATP502      0.2189
     10  O1A       25.1510  -27.8480  -25.8820 O.3   502  ATP502     -0.4371
     11  O2A       26.8390  -26.6300  -27.2180 O.2   502  ATP502     -0.5170
     12  O3A       24.3980  -26.8640  -28.0650 O.3   502  ATP502     -0.2700
     13  O5'       24.9160  -25.3180  -26.0930 O.3   502  ATP502     -0.3112
     14  C5'       23.6020  -25.0450  -25.6620 C.3   502  ATP502      0.1813
     15  C4'       23.4680  -23.5590  -25.3310 C.3   502  ATP502      0.1821
     16  O4'       24.1500  -23.2710  -24.1240 O.3   502  ATP502     -0.3135
     17  C3'       24.0510  -22.6150  -26.3780 C.3   502  ATP502      0.2184
     18  O3'       23.1010  -22.2380  -27.3520 O.3   502  ATP502     -0.2174
     19  C2'       24.5170  -21.4300  -25.5620 C.3   502  ATP502      0.2570
     20  O2'       23.5440  -20.4100  -25.5550 O.3   502  ATP502     -0.2130
     21  C1'       24.7070  -21.9740  -24.1540 C.3   502  ATP502      0.3186
     22  N9        26.1380  -22.0160  -23.8030 N.pl3 502  ATP502     -0.1439
     23  C8        27.0580  -22.9510  -24.1940 C.3   502  ATP502      0.3377
     24  N7        28.2500  -22.6190  -23.6530 N.2   502  ATP502     -0.2095
     25  C5        28.1080  -21.4850  -22.9260 C.2   502  ATP502      0.2526
     26  C6        28.9960  -20.7160  -22.1670 C.2   502  ATP502      0.4393
     27  N6        30.2870  -21.0330  -22.0970 N.pl3 502  ATP502      0.2180
     28  N1        28.5370  -19.5820  -21.5230 N.2   502  ATP502      0.0021
     29  C2        27.2100  -19.2090  -21.6250 C.3   502  ATP502      0.5254
     30  N3        26.3400  -19.9750  -22.3770 N.2   502  ATP502     -0.0055
     31  C4        26.7790  -21.0950  -23.0150 C.2   502  ATP502      0.3518
@<TRIPOS>BOND
     1     2     1    2
     2     3     1    1
     3     1     8    1
     4     1     4    1
     5     8     5    1
     6     6     5    2
     7     5     7    1
     8     5    12    1
     9    12     9    1
    10    18    17    1
    11    11     9    2
    12     9    13    1
    13     9    10    1
    14    17    19    1
    15    17    15    1
    16    13    14    1
    17    14    15    1
    18    19    20    1
    19    19    21    1
    20    15    16    1
    21    23    22    1
    22    23    24    1
    23    21    16    1
    24    21    22    1
    25    22    31    1
    26    24    25    2
    27    31    25    1
    28    31    30    2
    29    25    26    1
    30    30    29    1
    31    26    27    1
    32    26    28    2
    33    29    28    1
