@<TRIPOS>MOLECULE
3v0h_I3P_A_1.pdb
 24 24 0 0 0
SMALL
GASTEIGER

@<TRIPOS>ATOM
      1  C1         8.9120    5.1440   34.0910 C.3     1  I3P1        0.1918
      2  C2         8.5420    6.5480   33.6030 C.3     1  I3P1        0.2147
      3  C3         7.3670    7.0990   34.4150 C.3     1  I3P1        0.2146
      4  C4         7.6830    7.0870   35.9140 C.3     1  I3P1        0.1892
      5  C5         7.9990    5.6680   36.3820 C.3     1  I3P1        0.1891
      6  C6         9.1800    5.0980   35.5940 C.3     1  I3P1        0.2120
      7  O1        10.0830    4.6860   33.4360 O.3     1  I3P1       -0.2673
      8  O2         9.6730    7.4210   33.6910 O.3     1  I3P1       -0.2176
      9  O3         7.0250    8.4260   33.9790 O.3     1  I3P1       -0.2176
     10  O4         6.5560    7.5490   36.6400 O.3     1  I3P1       -0.2674
     11  O5         8.2470    5.6540   37.7910 O.3     1  I3P1       -0.2674
     12  O6         9.4110    3.7370   35.9450 O.3     1  I3P1       -0.2177
     13  P1         9.9770    3.6950   32.1710 P.3     1  I3P1        0.5327
     14  O11       11.3970    3.1900   32.0210 O.3     1  I3P1       -0.1145
     15  O12        9.0050    2.6150   32.5640 O.3     1  I3P1       -0.1145
     16  O13        9.5250    4.6070   31.0640 O.2     1  I3P1       -0.2224
     17  P4         6.5030    9.0670   37.2140 P.3     1  I3P1        0.5327
     18  O41        5.0640    9.1110   37.6610 O.3     1  I3P1       -0.1145
     19  O42        6.8670    9.9310   36.0290 O.2     1  I3P1       -0.2224
     20  O43        7.5390    9.0920   38.3030 O.3     1  I3P1       -0.1145
     21  P5         7.8820    4.3550   38.6680 P.3     1  I3P1        0.5327
     22  O51        7.6800    4.8850   40.0600 O.3     1  I3P1       -0.1145
     23  O52        6.6600    3.7520   38.0280 O.2     1  I3P1       -0.2224
     24  O53        9.0800    3.4450   38.5150 O.3     1  I3P1       -0.1145
@<TRIPOS>BOND
     1    16    13    2
     2    14    13    1
     3    13    15    1
     4    13     7    1
     5     7     1    1
     6     2     8    1
     7     2     1    1
     8     2     3    1
     9     9     3    1
    10     1     6    1
    11     3     4    1
    12     6    12    1
    13     6     5    1
    14     4     5    1
    15     4    10    1
    16    19    17    2
    17     5    11    1
    18    10    17    1
    19    17    18    1
    20    17    20    1
    21    11    21    1
    22    23    21    2
    23    24    21    1
    24    21    22    1
