@<TRIPOS>MOLECULE
3v0l_2GW_A_1.pdb
 42 45 0 0 0
SMALL
GASTEIGER

@<TRIPOS>ATOM
      1  CAP       15.3570  -20.4350  -11.3140 C.ar  450  2GW450      0.0008
      2  CAN       14.7380  -19.7840  -12.3850 C.ar  450  2GW450      0.0000
      3  CAM       14.3570  -20.5550  -13.4870 C.ar  450  2GW450      0.0000
      4  CAO       14.6050  -21.9270  -13.5150 C.ar  450  2GW450      0.0000
      5  CAQ       15.2410  -22.5590  -12.4330 C.ar  450  2GW450      0.0008
      6  CBA       15.6270  -21.7760  -11.3580 C.ar  450  2GW450      0.0132
      7  CBB       16.3550  -22.4810  -10.1640 C.2   450  2GW450      0.1110
      8  CAR       15.8640  -22.3680   -8.8580 C.2   450  2GW450      0.0921
      9  CBC       17.5230  -23.2650  -10.3790 C.1   450  2GW450      0.2175
     10  OAA       18.1230  -23.4500  -11.6340 O.2   450  2GW450     -0.2085
     11  NAU       18.1810  -23.8830   -9.3720 N.2   450  2GW450     -0.2452
     12  CBD       17.6580  -23.7590   -8.1150 C.1   450  2GW450      0.2845
     13  OAB       18.1900  -24.4000   -7.2090 O.2   450  2GW450     -0.1918
     14  NBN       16.5500  -23.0680   -7.8580 N.am  450  2GW450     -0.1767
     15  C1'       16.0750  -23.0200   -6.4440 C.3   450  2GW450      0.2401
     16  O4'       14.7190  -22.4630   -6.5000 O.3   450  2GW450     -0.3320
     17  C2'       16.8750  -22.1250   -5.5790 C.3   450  2GW450      0.2319
     18  O2'       16.8510  -22.6610   -4.2680 O.3   450  2GW450     -0.2157
     19  C3'       16.1410  -20.8510   -5.6880 C.3   450  2GW450      0.2158
     20  O3'       16.5470  -20.0170   -4.6410 O.3   450  2GW450     -0.2175
     21  C4'       14.6900  -21.2460   -5.7130 C.3   450  2GW450      0.1799
     22  C5'       13.7380  -20.2550   -6.3510 C.3   450  2GW450      0.1813
     23  O5'       14.2570  -19.6070   -7.5100 O.3   450  2GW450     -0.3112
     24  PBO       14.6780  -18.1330   -7.4900 P.3   450  2GW450      0.2189
     25  OAK       15.3400  -17.8240   -6.2090 O.3   450  2GW450     -0.4371
     26  OAC       15.5810  -17.8160   -8.6690 O.2   450  2GW450     -0.5170
     27  OAZ       13.3270  -17.2750   -7.7030 O.3   450  2GW450     -0.2703
     28  PBP       12.5520  -16.2650   -6.7540 P.3   450  2GW450      0.2208
     29  OAL       13.2860  -15.5960   -5.6700 O.3   450  2GW450     -0.4371
     30  OAD       11.7860  -15.3230   -7.6380 O.2   450  2GW450     -0.5170
     31  O1        11.4710  -17.3220   -6.1980 O.3   450  2GW450     -0.2857
     32  C1        10.3290  -17.0520   -5.5490 C.3   450  2GW450      0.2742
     33  O5         9.2490  -17.4660   -6.4520 O.3   450  2GW450     -0.3254
     34  C5         9.2640  -18.8190   -6.7390 C.3   450  2GW450      0.1835
     35  C6         8.0260  -18.9310   -7.6400 C.3   450  2GW450      0.2142
     36  O6         7.7580  -20.1910   -8.0890 O.3   450  2GW450     -0.2176
     37  C4         9.2930  -19.6850   -5.4680 C.3   450  2GW450      0.2144
     38  O4         8.0530  -19.6820   -4.7510 O.3   450  2GW450     -0.2176
     39  C3        10.4130  -19.2490   -4.5430 C.3   450  2GW450      0.2198
     40  O3        10.4190  -20.0060   -3.2790 O.3   450  2GW450     -0.2174
     41  C2        10.2190  -17.8650   -4.2880 C.3   450  2GW450      0.2409
     42  O2        11.1590  -17.2920   -3.3570 O.3   450  2GW450     -0.2149
@<TRIPOS>BOND
     1     4     3   ar
     2     4     5   ar
     3     3     2   ar
     4     5     6   ar
     5     2     1   ar
     6    10     9    2
     7     6     1   ar
     8     6     7    1
     9     9     7    1
    10     9    11    2
    11     7     8    2
    12    11    12    2
    13     8    14    1
    14    26    24    2
    15    12    14   am
    16    12    13    2
    17    36    35    1
    18    14    15    1
    19    27    24    1
    20    27    28    1
    21    35    34    1
    22    30    28    2
    23    23    24    1
    24    23    22    1
    25    24    25    1
    26    28    31    1
    27    28    29    1
    28    34    33    1
    29    34    37    1
    30    16    15    1
    31    16    21    1
    32    33    32    1
    33    15    17    1
    34    22    21    1
    35    31    32    1
    36    21    19    1
    37    19    17    1
    38    19    20    1
    39    17    18    1
    40    32    41    1
    41    37    38    1
    42    37    39    1
    43    39    41    1
    44    39    40    1
    45    41    42    1
