@<TRIPOS>MOLECULE
3v0m_BHE_A_1.pdb
 30 31 0 0 0
SMALL
GASTEIGER

@<TRIPOS>ATOM
      1  C1        41.2390   46.6370    6.8860 C.3   475  BHE475      0.2695
      2  O1        43.7250   45.6000    9.6800 O.3   475  BHE475     -0.3286
      3  C2        41.7150   47.1870    5.5730 C.3   475  BHE475      0.2406
      4  O2        41.7270   48.6410    5.5930 O.3   475  BHE475     -0.2149
      5  C3        43.1450   46.7360    5.2990 C.3   475  BHE475      0.2197
      6  O3        43.4970   47.2170    3.9770 O.3   475  BHE475     -0.2174
      7  C4        43.2410   45.2410    5.2680 C.3   475  BHE475      0.2118
      8  O4        42.4460   44.6490    4.2300 O.3   475  BHE475     -0.2177
      9  C5        42.7830   44.7600    6.6470 C.3   475  BHE475      0.1508
     10  O5        41.4260   45.1850    6.9000 O.3   475  BHE475     -0.3284
     11  C6        42.8450   43.2310    6.7010 C.3   475  BHE475      0.0350
     12  O6        42.8230   47.2320   14.1550 O.3   475  BHE475     -0.2176
     13  C6B       48.9780   44.3610   13.8940 C.3   475  BHE475      0.0000
     14  C5B       48.6930   44.1040   12.4010 C.3   475  BHE475      0.0000
     15  C4B       47.1890   44.1980   12.0510 C.3   475  BHE475      0.0001
     16  C3B       47.0630   44.0180   10.5300 C.3   475  BHE475      0.0026
     17  C2B       45.6160   44.1500    9.9950 C.3   475  BHE475      0.0322
     18  C1B       45.0070   45.5200   10.3290 C.3   475  BHE475      0.1449
     19  C1A       42.9280   46.6920   10.1390 C.3   475  BHE475      0.2662
     20  O5A       42.5850   46.4680   11.4700 O.3   475  BHE475     -0.3257
     21  C5A       41.7830   47.5220   11.9960 C.3   475  BHE475      0.1835
     22  C6A       41.5510   47.2590   13.4700 C.3   475  BHE475      0.2142
     23  C4A       40.4660   47.6720   11.2250 C.3   475  BHE475      0.2143
     24  O4A       39.6780   46.4750   11.3570 O.3   475  BHE475     -0.2176
     25  C3A       40.8560   47.9740    9.8060 C.3   475  BHE475      0.2166
     26  O3A       39.6400   48.1030    9.0270 O.3   475  BHE475     -0.2175
     27  C2A       41.6920   46.8190    9.2760 C.3   475  BHE475      0.2066
     28  O2A       42.1010   47.0630    7.9190 O.3   475  BHE475     -0.3231
     29  C19       48.3250   43.3360   14.8070 C.3   475  BHE475      0.0000
     30  C20       48.8950   41.9600   14.4770 C.3   475  BHE475      0.0000
@<TRIPOS>BOND
     1     6     5    1
     2     8     7    1
     3     7     5    1
     4     7     9    1
     5     5     3    1
     6     3     4    1
     7     3     1    1
     8     9    11    1
     9     9    10    1
    10     1    10    1
    11     1    28    1
    12    28    27    1
    13    26    25    1
    14    27    25    1
    15    27    19    1
    16     2    19    1
    17     2    18    1
    18    25    23    1
    19    17    18    1
    20    17    16    1
    21    19    20    1
    22    16    15    1
    23    23    24    1
    24    23    21    1
    25    20    21    1
    26    21    22    1
    27    15    14    1
    28    14    13    1
    29    22    12    1
    30    13    29    1
    31    30    29    1
