@<TRIPOS>MOLECULE
3v0m_5GW_A_1.pdb
 31 33 0 0 0
SMALL
GASTEIGER

@<TRIPOS>ATOM
      1  CAM       35.2920   55.1480    1.5100 C.ar  450  5GW450      0.0008
      2  CAK       36.4770   55.7210    1.9710 C.ar  450  5GW450      0.0000
      3  CAJ       36.9640   55.3930    3.2280 C.ar  450  5GW450      0.0000
      4  CAL       36.2660   54.4880    4.0320 C.ar  450  5GW450      0.0000
      5  CAN       35.0860   53.9190    3.5720 C.ar  450  5GW450      0.0008
      6  CAU       34.5940   54.2530    2.3120 C.ar  450  5GW450      0.0132
      7  CAV       33.3270   53.6300    1.8140 C.2   450  5GW450      0.1110
      8  CAO       32.8550   52.4250    2.3430 C.2   450  5GW450      0.0921
      9  CAW       32.5890   54.2380    0.7880 C.1   450  5GW450      0.2175
     10  OAA       33.0080   55.3910    0.2520 O.2   450  5GW450     -0.2085
     11  NAQ       31.4530   53.6580    0.3430 N.2   450  5GW450     -0.2452
     12  CAX       31.0320   52.4830    0.8940 C.1   450  5GW450      0.2845
     13  OAB       29.9820   51.9560    0.4750 O.2   450  5GW450     -0.1918
     14  NBC       31.7000   51.8800    1.8610 N.am  450  5GW450     -0.1767
     15  C1'       31.2040   50.6150    2.4230 C.3   450  5GW450      0.2401
     16  O4'       31.7560   50.4800    3.7670 O.3   450  5GW450     -0.3320
     17  C2'       31.6790   49.4840    1.6300 C.3   450  5GW450      0.2319
     18  O2'       30.7630   48.4400    1.7280 O.3   450  5GW450     -0.2157
     19  C3'       32.9170   49.1440    2.3360 C.3   450  5GW450      0.2158
     20  O3'       33.2090   47.8250    2.0220 O.3   450  5GW450     -0.2175
     21  C4'       32.5420   49.3120    3.7590 C.3   450  5GW450      0.1799
     22  C5'       33.7170   49.4980    4.6510 C.3   450  5GW450      0.1813
     23  O5'       34.6530   50.4290    4.2400 O.3   450  5GW450     -0.3111
     24  PBE       36.0940   49.9480    3.7190 P.3   450  5GW450      0.2231
     25  OAI       35.9670   48.6080    2.9990 O.3   450  5GW450     -0.4370
     26  OAD       36.7160   50.9820    2.8470 O.2   450  5GW450     -0.5169
     27  OAT       36.8620   49.7860    5.0490 O.3   450  5GW450     -0.2261
     28  PBD       38.1050   48.8640    5.4050 P.3   450  5GW450      0.5373
     29  OAG       37.8720   47.4350    5.0820 O.3   450  5GW450     -0.1143
     30  OAH       39.3010   49.3800    4.5540 O.2   450  5GW450     -0.2221
     31  OAC       38.4530   49.1280    6.8230 O.3   450  5GW450     -0.1143
@<TRIPOS>BOND
     1    10     9    2
     2    11     9    2
     3    11    12    2
     4    13    12    2
     5     9     7    1
     6    12    14   am
     7     1     2   ar
     8     1     6   ar
     9    17    18    1
    10    17    19    1
    11    17    15    1
    12     7     6    1
    13     7     8    2
    14    14     8    1
    15    14    15    1
    16     2     3   ar
    17    20    19    1
    18     6     5   ar
    19    19    21    1
    20    15    16    1
    21    26    24    2
    22    25    24    1
    23     3     4   ar
    24     5     4   ar
    25    24    23    1
    26    24    27    1
    27    21    16    1
    28    21    22    1
    29    23    22    1
    30    30    28    2
    31    27    28    1
    32    29    28    1
    33    28    31    1
