@<TRIPOS>MOLECULE
3v0n_3GW_B_1.pdb
 46 49 0 0 0
SMALL
GASTEIGER

@<TRIPOS>ATOM
      1  CBD       21.0310    8.0030    8.4860 C.3   402  3GW402      0.2150
      2  OAD       21.9390    8.9740    8.9340 O.3   402  3GW402     -0.2146
      3  CBE       21.5740    6.5570    8.3670 C.ar  402  3GW402      0.0402
      4  SBB       22.7200    5.8370    9.3810 S.2   402  3GW402     -0.0879
      5  CAP       21.1980    5.5980    7.4190 C.ar  402  3GW402      0.0053
      6  CAQ       21.8550    4.3430    7.5830 C.ar  402  3GW402      0.0075
      7  CBF       22.7710    4.2960    8.6440 C.ar  402  3GW402      0.0425
      8  CBG       23.5000    3.0860    9.0880 C.2   402  3GW402      0.1170
      9  CAR       23.1720    1.8050    8.6100 C.2   402  3GW402      0.0926
     10  CBH       24.3780    3.1240   10.1710 C.1   402  3GW402      0.2179
     11  OAE       24.7380    4.3250   10.7050 O.2   402  3GW402     -0.2085
     12  NAV       24.9700    2.0030   10.6220 N.2   402  3GW402     -0.2452
     13  CBI       24.6730    0.8150   10.0850 C.1   402  3GW402      0.2845
     14  OAF       25.1730   -0.1830   10.5580 O.2   402  3GW402     -0.1918
     15  NBS       23.7920    0.6930    9.0830 N.am  402  3GW402     -0.1767
     16  C1'       23.4890   -0.6100    8.5550 C.3   402  3GW402      0.2401
     17  O4'       22.9610   -0.5210    7.1680 O.3   402  3GW402     -0.3320
     18  C2'       22.4640   -1.3610    9.3290 C.3   402  3GW402      0.2319
     19  O2'       22.6940   -2.7070    9.2190 O.3   402  3GW402     -0.2157
     20  C3'       21.2210   -0.9880    8.6320 C.3   402  3GW402      0.2158
     21  O3'       20.2410   -1.8860    8.9230 O.3   402  3GW402     -0.2175
     22  C4'       21.6400   -1.0240    7.1930 C.3   402  3GW402      0.1799
     23  C5'       20.7900   -0.2050    6.3650 C.3   402  3GW402      0.1813
     24  O5'       20.4340    1.0990    6.8000 O.3   402  3GW402     -0.3112
     25  PBT       18.8940    1.3440    7.2690 P.3   402  3GW402      0.2189
     26  OAN       18.5080    0.1630    8.1190 O.3   402  3GW402     -0.4371
     27  OAG       18.7340    2.6450    8.0760 O.2   402  3GW402     -0.5170
     28  OBA       18.0710    1.4130    5.9100 O.3   402  3GW402     -0.2703
     29  PBU       16.5070    1.4550    5.8420 P.3   402  3GW402      0.2208
     30  OAO       16.0720    2.7800    5.4220 O.2   402  3GW402     -0.5170
     31  OAH       15.8360    1.2220    7.1770 O.3   402  3GW402     -0.4371
     32  O1        16.0430    0.3260    4.8800 O.3   402  3GW402     -0.2864
     33  C1        15.0390    0.4950    3.9800 C.3   402  3GW402      0.2633
     34  O5        15.6160    1.3350    2.8220 O.3   402  3GW402     -0.3260
     35  C5        16.6520    0.5960    2.2110 C.3   402  3GW402      0.1834
     36  C6        17.4110    1.4130    1.1850 C.3   402  3GW402      0.2142
     37  O6        18.2170    2.4230    1.6810 O.3   402  3GW402     -0.2176
     38  C4        16.1270   -0.7430    1.6720 C.3   402  3GW402      0.2136
     39  O4        15.1290   -0.4230    0.7490 O.3   402  3GW402     -0.2176
     40  C3        15.5430   -1.6110    2.7640 C.3   402  3GW402      0.2094
     41  O3        15.0030   -2.8450    2.2210 O.3   402  3GW402     -0.2183
     42  C2        14.5630   -0.8720    3.5610 C.3   402  3GW402      0.1845
     43  N2        14.1170   -1.6370    4.7900 N.am  402  3GW402     -0.1992
     44  CBC       12.6940   -1.9250    4.9530 C.2   402  3GW402      0.2420
     45  CAA       12.1840   -2.4450    6.2080 C.3   402  3GW402      0.0964
     46  OAC       11.9060   -1.7090    3.9950 O.2   402  3GW402     -0.2733
@<TRIPOS>BOND
     1    39    38    1
     2    36    37    1
     3    36    35    1
     4    38    35    1
     5    38    40    1
     6    35    34    1
     7    41    40    1
     8    40    42    1
     9    34    33    1
    10    42    33    1
    11    42    43    1
    12    33    32    1
    13    46    44    2
    14    43    44   am
    15    32    29    1
    16    44    45    1
    17    30    29    2
    18    29    28    1
    19    29    31    1
    20    28    25    1
    21    23    24    1
    22    23    22    1
    23    24    25    1
    24    17    22    1
    25    17    16    1
    26    22    20    1
    27    25    27    2
    28    25    26    1
    29     5     6   ar
    30     5     3   ar
    31     6     7   ar
    32     3     1    1
    33     3     4   ar
    34     1     2    1
    35    16    15    1
    36    16    18    1
    37     9    15    1
    38     9     8    2
    39    20    21    1
    40    20    18    1
    41     7     8    1
    42     7     4   ar
    43    15    13   am
    44     8    10    1
    45    19    18    1
    46    13    14    2
    47    13    12    2
    48    10    12    2
    49    10    11    2
