@<TRIPOS>MOLECULE
3v0n_4GW_A_1.pdb
 32 34 0 0 0
SMALL
GASTEIGER

@<TRIPOS>ATOM
      1  CBD        1.2700  -56.6400  -23.2810 C.3   402  4GW402      0.2150
      2  OAD        1.2390  -57.5170  -24.3410 O.3   402  4GW402     -0.2146
      3  CBE        2.4220  -55.7030  -23.2470 C.ar  402  4GW402      0.0402
      4  SBB        3.7320  -55.6890  -24.3210 S.2   402  4GW402     -0.0879
      5  CAP        2.6310  -54.6790  -22.3090 C.ar  402  4GW402      0.0053
      6  CAQ        3.8350  -53.9470  -22.5260 C.ar  402  4GW402      0.0075
      7  CBF        4.5990  -54.3990  -23.6150 C.ar  402  4GW402      0.0425
      8  CBG        5.8770  -53.7880  -24.1120 C.2   402  4GW402      0.1170
      9  CAR        6.2930  -52.5480  -23.5880 C.2   402  4GW402      0.0926
     10  CBH        6.5480  -54.2880  -25.2320 C.1   402  4GW402      0.2179
     11  OAE        6.1990  -55.4920  -25.8050 O.2   402  4GW402     -0.2085
     12  NAV        7.6430  -53.6670  -25.7250 N.2   402  4GW402     -0.2452
     13  CBI        8.0460  -52.5080  -25.1610 C.1   402  4GW402      0.2845
     14  OAF        9.0100  -51.9200  -25.6300 O.2   402  4GW402     -0.1918
     15  NBS        7.3950  -51.9780  -24.1090 N.am  402  4GW402     -0.1767
     16  C1'        7.8900  -50.7040  -23.5730 C.3   402  4GW402      0.2401
     17  O4'        7.3590  -50.4560  -22.2200 O.3   402  4GW402     -0.3320
     18  C2'        7.4930  -49.5470  -24.3910 C.3   402  4GW402      0.2319
     19  O2'        8.4820  -48.5690  -24.2790 O.3   402  4GW402     -0.2157
     20  C3'        6.2390  -49.1400  -23.7340 C.3   402  4GW402      0.2158
     21  O3'        5.9700  -47.8330  -24.0350 O.3   402  4GW402     -0.2175
     22  C4'        6.5850  -49.3000  -22.2830 C.3   402  4GW402      0.1799
     23  C5'        5.4180  -49.4740  -21.3820 C.3   402  4GW402      0.1813
     24  O5'        4.4650  -50.3950  -21.8220 O.3   402  4GW402     -0.3111
     25  PBT        3.0810  -49.8350  -22.2900 P.3   402  4GW402      0.2231
     26  OAN        3.2420  -48.5940  -23.1230 O.2   402  4GW402     -0.5169
     27  OAG        2.3350  -50.9020  -23.0570 O.3   402  4GW402     -0.4370
     28  OBA        2.4140  -49.4910  -20.9230 O.3   402  4GW402     -0.2261
     29  PBU        1.1060  -48.6810  -20.6250 P.3   402  4GW402      0.5373
     30  OAO       -0.0830  -49.5820  -20.9000 O.3   402  4GW402     -0.1143
     31  OAH        1.0910  -48.3130  -19.1510 O.3   402  4GW402     -0.1143
     32  O1         0.9470  -47.4150  -21.3830 O.2   402  4GW402     -0.2221
@<TRIPOS>BOND
     1    11    10    2
     2    12    10    2
     3    12    13    2
     4    14    13    2
     5    10     8    1
     6    13    15   am
     7    18    19    1
     8    18    20    1
     9    18    16    1
    10     2     1    1
    11     4     7   ar
    12     4     3   ar
    13     8     7    1
    14     8     9    2
    15    15     9    1
    16    15    16    1
    17    21    20    1
    18    20    22    1
    19     7     6   ar
    20    16    17    1
    21     1     3    1
    22     3     5   ar
    23    26    25    2
    24    27    25    1
    25     6     5   ar
    26    25    24    1
    27    25    28    1
    28    22    17    1
    29    22    23    1
    30    24    23    1
    31    32    29    2
    32    28    29    1
    33    30    29    1
    34    29    31    1
