@<TRIPOS>MOLECULE
3v0o_BHE_A_1.pdb
 30 31 0 0 0
SMALL
GASTEIGER

@<TRIPOS>ATOM
      1  C1         0.1530  -47.2160   19.0240 C.3   403  BHE403      0.2695
      2  O1         2.6130  -46.3960   16.3560 O.3   403  BHE403     -0.3286
      3  C2         0.5080  -47.8430   20.3500 C.3   403  BHE403      0.2406
      4  O2         0.2120  -49.2550   20.3110 O.3   403  BHE403     -0.2149
      5  C3         1.9740  -47.6810   20.6710 C.3   403  BHE403      0.2197
      6  O3         2.1820  -48.2370   21.9840 O.3   403  BHE403     -0.2174
      7  C4         2.3160  -46.2050   20.7100 C.3   403  BHE403      0.2118
      8  O4         1.5930  -45.5270   21.8100 O.3   403  BHE403     -0.2177
      9  C5         1.9930  -45.6490   19.3260 C.3   403  BHE403      0.1508
     10  O5         0.5600  -45.8530   19.0280 O.3   403  BHE403     -0.3284
     11  C6         2.3730  -44.1720   19.2180 C.3   403  BHE403      0.0350
     12  O6         1.6330  -47.7640   11.7560 O.3   403  BHE403     -0.2176
     13  C6B        6.8560  -45.6090   12.4930 C.3   403  BHE403      0.0000
     14  C5B        6.3710  -45.9230   13.9070 C.3   403  BHE403      0.0000
     15  C4B        6.4650  -44.6250   14.6870 C.3   403  BHE403      0.0001
     16  C3B        6.0150  -44.7480   16.1330 C.3   403  BHE403      0.0026
     17  C2B        4.5260  -45.0780   16.3860 C.3   403  BHE403      0.0322
     18  C1B        3.9670  -46.3720   15.8280 C.3   403  BHE403      0.1449
     19  C1A        1.7710  -47.4180   15.8110 C.3   403  BHE403      0.2662
     20  O5A        1.4500  -47.1030   14.4500 O.3   403  BHE403     -0.3257
     21  C5A        0.5960  -48.1020   13.8760 C.3   403  BHE403      0.1835
     22  C6A        0.3410  -47.7580   12.4190 C.3   403  BHE403      0.2142
     23  C4A       -0.7210  -48.1930   14.6550 C.3   403  BHE403      0.2143
     24  O4A       -1.4040  -46.9450   14.5750 O.3   403  BHE403     -0.2176
     25  C3A       -0.3590  -48.5570   16.0830 C.3   403  BHE403      0.2166
     26  O3A       -1.5930  -48.5700   16.8200 O.3   403  BHE403     -0.2175
     27  C2A        0.5300  -47.4870   16.6560 C.3   403  BHE403      0.2066
     28  O2A        0.9040  -47.8270   18.0450 O.3   403  BHE403     -0.3231
     29  C19        8.2680  -45.0190   12.5840 C.3   403  BHE403      0.0000
     30  C20        9.2300  -45.9980   13.2690 C.3   403  BHE403      0.0000
@<TRIPOS>BOND
     1    12    22    1
     2    22    21    1
     3    13    29    1
     4    13    14    1
     5    29    30    1
     6    21    20    1
     7    21    23    1
     8    14    15    1
     9    20    19    1
    10    24    23    1
    11    23    25    1
    12    15    16    1
    13    19     2    1
    14    19    27    1
    15    18     2    1
    16    18    17    1
    17    25    27    1
    18    25    26    1
    19    16    17    1
    20    27    28    1
    21    28     1    1
    22     1    10    1
    23     1     3    1
    24    10     9    1
    25    11     9    1
    26     9     7    1
    27     4     3    1
    28     3     5    1
    29     5     7    1
    30     5     6    1
    31     7     8    1
