@<TRIPOS>MOLECULE
3v0o_4GW_A_1.pdb
 32 34 0 0 0
SMALL
GASTEIGER

@<TRIPOS>ATOM
      1  CBD       -3.5280  -56.9780   23.2270 C.3   402  4GW402      0.2150
      2  OAD       -3.4890  -57.8160   24.2910 O.3   402  4GW402     -0.2146
      3  CBE       -4.6590  -56.0130   23.2330 C.ar  402  4GW402      0.0402
      4  SBB       -5.9940  -55.9730   24.2880 S.2   402  4GW402     -0.0879
      5  CAP       -4.8330  -54.9800   22.3130 C.ar  402  4GW402      0.0053
      6  CAQ       -6.0310  -54.2200   22.4950 C.ar  402  4GW402      0.0075
      7  CBF       -6.8190  -54.6540   23.5660 C.ar  402  4GW402      0.0425
      8  CBG       -8.0780  -53.9760   24.0450 C.2   402  4GW402      0.1170
      9  CAR       -8.4170  -52.7190   23.5290 C.2   402  4GW402      0.0926
     10  CBH       -8.7310  -54.4360   25.1910 C.1   402  4GW402      0.2179
     11  OAE       -8.4180  -55.5080   25.7130 O.2   402  4GW402     -0.2085
     12  NAV       -9.7810  -53.7460   25.6420 N.2   402  4GW402     -0.2452
     13  CBI      -10.1540  -52.5830   25.0900 C.1   402  4GW402      0.2845
     14  OAF      -11.1060  -51.8910   25.5670 O.2   402  4GW402     -0.1918
     15  NBS       -9.5000  -52.1010   24.0370 N.am  402  4GW402     -0.1767
     16  C1'       -9.9560  -50.7880   23.4290 C.3   402  4GW402      0.2401
     17  O4'       -9.4850  -50.6100   22.0160 O.3   402  4GW402     -0.3320
     18  C2'       -9.4860  -49.5780   24.1350 C.3   402  4GW402      0.2319
     19  O2'      -10.4400  -48.5870   24.0090 O.3   402  4GW402     -0.2157
     20  C3'       -8.2530  -49.2660   23.4080 C.3   402  4GW402      0.2158
     21  O3'       -7.8810  -47.9520   23.7110 O.3   402  4GW402     -0.2175
     22  C4'       -8.6520  -49.4810   21.9800 C.3   402  4GW402      0.1799
     23  C5'       -7.4520  -49.7730   21.0930 C.3   402  4GW402      0.1813
     24  O5'       -6.5220  -50.7330   21.5450 O.3   402  4GW402     -0.3111
     25  PBT       -5.1130  -50.1910   22.0030 P.3   402  4GW402      0.2231
     26  OAN       -4.4690  -51.3030   22.7260 O.2   402  4GW402     -0.5169
     27  OAG       -5.2660  -48.8750   22.7590 O.3   402  4GW402     -0.4370
     28  OBA       -4.3040  -50.0380   20.6400 O.3   402  4GW402     -0.2261
     29  PBU       -3.4860  -48.9200   19.9600 P.3   402  4GW402      0.5373
     30  OAO       -2.3010  -49.6450   19.4250 O.3   402  4GW402     -0.1143
     31  OAH       -3.1630  -47.7790   20.8830 O.3   402  4GW402     -0.1143
     32  O1        -4.3500  -48.4890   18.7600 O.2   402  4GW402     -0.2221
@<TRIPOS>BOND
     1    32    29    2
     2    30    29    1
     3    29    28    1
     4    29    31    1
     5    28    25    1
     6    23    24    1
     7    23    22    1
     8    24    25    1
     9    22    17    1
    10    22    20    1
    11    25    26    2
    12    25    27    1
    13    17    16    1
    14     5     6   ar
    15     5     3   ar
    16     6     7   ar
    17     1     3    1
    18     1     2    1
    19     3     4   ar
    20    20    21    1
    21    20    18    1
    22    16    15    1
    23    16    18    1
    24     9    15    1
    25     9     8    2
    26     7     8    1
    27     7     4   ar
    28    19    18    1
    29    15    13   am
    30     8    10    1
    31    13    14    2
    32    13    12    2
    33    10    12    2
    34    10    11    2
