@<TRIPOS>MOLECULE
3v0p_BHE_A_1.pdb
 30 31 0 0 0
SMALL
GASTEIGER

@<TRIPOS>ATOM
      1  C1       -41.2590  -46.5850    6.9070 C.3   403  BHE403      0.2695
      2  O1       -43.8070  -45.7570    9.6370 O.3   403  BHE403     -0.3286
      3  C2       -41.6540  -47.1590    5.5680 C.3   403  BHE403      0.2406
      4  O2       -41.5280  -48.5890    5.6040 O.3   403  BHE403     -0.2149
      5  C3       -43.1190  -46.8510    5.2700 C.3   403  BHE403      0.2197
      6  O3       -43.4000  -47.3840    3.9820 O.3   403  BHE403     -0.2174
      7  C4       -43.3170  -45.3550    5.2230 C.3   403  BHE403      0.2118
      8  O4       -42.5720  -44.7490    4.1560 O.3   403  BHE403     -0.2177
      9  C5       -42.9090  -44.8330    6.6070 C.3   403  BHE403      0.1508
     10  O5       -41.5190  -45.1530    6.9050 O.3   403  BHE403     -0.3284
     11  C6       -43.0860  -43.3160    6.6560 C.3   403  BHE403      0.0350
     12  O6       -42.9070  -47.2830   14.1110 O.3   403  BHE403     -0.2176
     13  C6B      -48.0980  -43.5690   14.2480 C.3   403  BHE403      0.0000
     14  C5B      -48.2880  -43.7930   12.7450 C.3   403  BHE403      0.0000
     15  C4B      -46.9260  -44.0080   12.0680 C.3   403  BHE403      0.0001
     16  C3B      -47.1370  -44.2140   10.5650 C.3   403  BHE403      0.0026
     17  C2B      -45.7920  -44.4140    9.8440 C.3   403  BHE403      0.0322
     18  C1B      -45.0370  -45.6410   10.3670 C.3   403  BHE403      0.1449
     19  C1A      -42.9790  -46.8230   10.1270 C.3   403  BHE403      0.2662
     20  O5A      -42.6540  -46.5480   11.4840 O.3   403  BHE403     -0.3257
     21  C5A      -41.8300  -47.6000   11.9980 C.3   403  BHE403      0.1835
     22  C6A      -41.6190  -47.2850   13.4740 C.3   403  BHE403      0.2142
     23  C4A      -40.5110  -47.7280   11.2070 C.3   403  BHE403      0.2143
     24  O4A      -39.6910  -46.5610   11.3190 O.3   403  BHE403     -0.2176
     25  C3A      -40.8860  -48.0250    9.7810 C.3   403  BHE403      0.2166
     26  O3A      -39.6730  -48.1260    8.9990 O.3   403  BHE403     -0.2175
     27  C2A      -41.7350  -46.8670    9.2750 C.3   403  BHE403      0.2066
     28  O2A      -42.1180  -47.1110    7.9200 O.3   403  BHE403     -0.3231
     29  C19      -49.4560  -43.3440   14.9140 C.3   403  BHE403      0.0000
     30  C20      -49.2650  -43.1130   16.4190 C.3   403  BHE403      0.0000
@<TRIPOS>BOND
     1     6     5    1
     2     8     7    1
     3     7     5    1
     4     7     9    1
     5     5     3    1
     6     3     4    1
     7     3     1    1
     8     9    11    1
     9     9    10    1
    10    10     1    1
    11     1    28    1
    12    28    27    1
    13    26    25    1
    14    27    25    1
    15    27    19    1
    16     2    19    1
    17     2    18    1
    18    25    23    1
    19    17    18    1
    20    17    16    1
    21    19    20    1
    22    16    15    1
    23    23    24    1
    24    23    21    1
    25    20    21    1
    26    21    22    1
    27    15    14    1
    28    14    13    1
    29    22    12    1
    30    13    29    1
    31    29    30    1
