@<TRIPOS>MOLECULE
3v0p_4GW_A_1.pdb
 32 34 0 0 0
SMALL
GASTEIGER

@<TRIPOS>ATOM
      1  CBD      -38.2520  -56.7010    2.6400 C.3   402  4GW402      0.2150
      2  OAD      -38.5810  -57.3470    1.4770 O.3   402  4GW402     -0.2146
      3  CBE      -37.1030  -55.7470    2.6570 C.ar  402  4GW402      0.0402
      4  SBB      -35.7760  -55.6700    1.5910 S.2   402  4GW402     -0.0879
      5  CAP      -36.8810  -54.7510    3.6200 C.ar  402  4GW402      0.0053
      6  CAQ      -35.6710  -54.0070    3.4340 C.ar  402  4GW402      0.0075
      7  CBF      -34.9110  -54.4190    2.3310 C.ar  402  4GW402      0.0425
      8  CBG      -33.5970  -53.8210    1.8370 C.2   402  4GW402      0.1170
      9  CAR      -33.1390  -52.6140    2.3820 C.2   402  4GW402      0.0926
     10  CBH      -32.9310  -54.3620    0.7430 C.1   402  4GW402      0.2179
     11  OAE      -33.3020  -55.4210    0.2360 O.2   402  4GW402     -0.2085
     12  NAV      -31.8130  -53.7430    0.3110 N.2   402  4GW402     -0.2452
     13  CBI      -31.3750  -52.6130    0.8850 C.1   402  4GW402      0.2845
     14  OAF      -30.3550  -52.0070    0.4490 O.2   402  4GW402     -0.1918
     15  NBS      -32.0230  -52.0650    1.9080 N.am  402  4GW402     -0.1767
     16  C1'      -31.4910  -50.7830    2.5300 C.3   402  4GW402      0.2401
     17  O4'      -31.9910  -50.6160    3.9270 O.3   402  4GW402     -0.3320
     18  C2'      -31.8370  -49.5350    1.8050 C.3   402  4GW402      0.2319
     19  O2'      -30.8140  -48.6280    1.8990 O.3   402  4GW402     -0.2157
     20  C3'      -33.0390  -49.1360    2.5300 C.3   402  4GW402      0.2158
     21  O3'      -33.3520  -47.7990    2.2890 O.3   402  4GW402     -0.2175
     22  C4'      -32.6800  -49.4000    3.9500 C.3   402  4GW402      0.1799
     23  C5'      -33.9000  -49.5730    4.8280 C.3   402  4GW402      0.1813
     24  O5'      -34.8580  -50.4850    4.4120 O.3   402  4GW402     -0.3111
     25  PBT      -36.2700  -49.9800    3.9020 P.3   402  4GW402      0.2231
     26  OAN      -36.8390  -50.9980    2.9400 O.2   402  4GW402     -0.5169
     27  OAG      -36.1550  -48.6310    3.1720 O.3   402  4GW402     -0.4370
     28  OBA      -37.2840  -49.9330    5.0950 O.3   402  4GW402     -0.2261
     29  PBU      -37.7140  -48.7700    5.9810 P.3   402  4GW402      0.5373
     30  OAO      -38.9650  -49.1600    6.6630 O.3   402  4GW402     -0.1143
     31  OAH      -36.6380  -48.5190    7.0720 O.3   402  4GW402     -0.1143
     32  O1       -38.0040  -47.5060    5.1840 O.2   402  4GW402     -0.2221
@<TRIPOS>BOND
     1    11    10    2
     2    12    10    2
     3    12    13    2
     4    14    13    2
     5    10     8    1
     6    13    15   am
     7     2     1    1
     8     4     7   ar
     9     4     3   ar
    10    18    19    1
    11    18    16    1
    12    18    20    1
    13     8     7    1
    14     8     9    2
    15    15     9    1
    16    15    16    1
    17    21    20    1
    18     7     6   ar
    19    16    17    1
    20    20    22    1
    21     1     3    1
    22     3     5   ar
    23    26    25    2
    24    27    25    1
    25     6     5   ar
    26    25    24    1
    27    25    28    1
    28    17    22    1
    29    22    23    1
    30    24    23    1
    31    28    29    1
    32    32    29    2
    33    29    30    1
    34    29    31    1
