@<TRIPOS>MOLECULE
3v0q_UDP_A_1.pdb
 25 26 0 0 0
SMALL
GASTEIGER

@<TRIPOS>ATOM
      1  N1         7.7850   52.1910   24.0360 N.am  402  UDP402     -0.1766
      2  C2         8.4340   52.6700   25.1590 C.1   402  UDP402      0.2845
      3  N3         8.0880   53.8950   25.7060 N.2   402  UDP402     -0.2452
      4  C4         7.0860   54.6550   25.1250 C.1   402  UDP402      0.2182
      5  C5         6.4300   54.1720   23.9860 C.2   402  UDP402      0.1242
      6  C6         6.7220   52.8820   23.5120 C.2   402  UDP402      0.0929
      7  O2         9.3160   51.9950   25.6830 O.2   402  UDP402     -0.1918
      8  O4         6.8010   55.7480   25.6330 O.2   402  UDP402     -0.2085
      9  C1'        8.2270   50.8760   23.5050 C.3   402  UDP402      0.2401
     10  C2'        7.7540   49.7310   24.3810 C.3   402  UDP402      0.2319
     11  O2'        8.7210   48.7020   24.3170 O.3   402  UDP402     -0.2157
     12  C3'        6.5080   49.2830   23.6610 C.3   402  UDP402      0.2158
     13  C4'        6.9140   49.4750   22.2120 C.3   402  UDP402      0.1799
     14  O4'        7.7220   50.6400   22.2050 O.3   402  UDP402     -0.3320
     15  O3'        6.2090   47.9410   23.9750 O.3   402  UDP402     -0.2175
     16  C5'        5.7230   49.6350   21.2750 C.3   402  UDP402      0.1813
     17  O5'        4.8960   50.6420   21.8070 O.3   402  UDP402     -0.3111
     18  PA         3.4100   50.2360   22.2110 P.3   402  UDP402      0.2231
     19  O1A        2.7470   51.3200   22.9650 O.3   402  UDP402     -0.4370
     20  O2A        3.4710   48.9530   22.9480 O.2   402  UDP402     -0.5169
     21  O3A        2.7200   50.0100   20.7960 O.3   402  UDP402     -0.2261
     22  PB         1.3900   49.1250   20.5630 P.3   402  UDP402      0.5373
     23  O1B        0.2380   49.7020   21.2970 O.3   402  UDP402     -0.1143
     24  O2B        1.5560   47.7040   20.9630 O.3   402  UDP402     -0.1143
     25  O3B        1.1330   49.2260   19.1080 O.2   402  UDP402     -0.2221
@<TRIPOS>BOND
     1    25    22    2
     2    22    21    1
     3    22    24    1
     4    22    23    1
     5    21    18    1
     6    16    17    1
     7    16    13    1
     8    17    18    1
     9    14    13    1
    10    14     9    1
    11    18    20    2
    12    18    19    1
    13    13    12    1
    14     9     1    1
    15     9    10    1
    16     6     5    2
    17     6     1    1
    18    12    15    1
    19    12    10    1
    20     5     4    1
    21     1     2   am
    22    11    10    1
    23     4     8    2
    24     4     3    2
    25     2     7    2
    26     2     3    2
