@<TRIPOS>MOLECULE
3v0q_BHE_A_1.pdb
 30 31 0 0 0
SMALL
GASTEIGER

@<TRIPOS>ATOM
      1  C1        -1.7610   46.9490   19.2940 C.3   403  BHE403      0.2695
      2  O1        -4.2550   46.0250   16.4620 O.3   403  BHE403     -0.3286
      3  C2        -2.2820   47.5320   20.6040 C.3   403  BHE403      0.2406
      4  O2        -2.2410   48.9790   20.5970 O.3   403  BHE403     -0.2149
      5  C3        -3.7180   47.1540   20.8340 C.3   403  BHE403      0.2197
      6  O3        -4.0650   47.6380   22.1490 O.3   403  BHE403     -0.2174
      7  C4        -3.8670   45.6610   20.8490 C.3   403  BHE403      0.2118
      8  O4        -3.1190   45.0780   21.9210 O.3   403  BHE403     -0.2177
      9  C5        -3.3890   45.1350   19.4880 C.3   403  BHE403      0.1508
     10  O5        -1.9880   45.5100   19.2830 O.3   403  BHE403     -0.3284
     11  C6        -3.5380   43.6120   19.4260 C.3   403  BHE403      0.0350
     12  O6        -3.2560   47.5160   11.9870 O.3   403  BHE403     -0.2176
     13  C6B       -9.4960   44.3300   12.1310 C.3   403  BHE403      0.0000
     14  C5B       -9.1750   44.3740   13.6330 C.3   403  BHE403      0.0000
     15  C4B       -7.6780   44.4800   13.9870 C.3   403  BHE403      0.0001
     16  C3B       -7.6240   44.5330   15.5230 C.3   403  BHE403      0.0026
     17  C2B       -6.2260   44.6700   16.1670 C.3   403  BHE403      0.0322
     18  C1B       -5.5000   45.9530   15.7410 C.3   403  BHE403      0.1449
     19  C1A       -3.3920   47.0850   15.9900 C.3   403  BHE403      0.2662
     20  O5A       -3.0500   46.8350   14.6520 O.3   403  BHE403     -0.3257
     21  C5A       -2.1920   47.8500   14.1220 C.3   403  BHE403      0.1835
     22  C6A       -1.9710   47.5190   12.6420 C.3   403  BHE403      0.2142
     23  C4A       -0.8910   47.9080   14.9310 C.3   403  BHE403      0.2143
     24  O4A       -0.2760   46.6450   14.8470 O.3   403  BHE403     -0.2176
     25  C3A       -1.2630   48.2280   16.3650 C.3   403  BHE403      0.2166
     26  O3A       -0.0360   48.2180   17.1500 O.3   403  BHE403     -0.2175
     27  C2A       -2.1700   47.1390   16.8780 C.3   403  BHE403      0.2066
     28  O2A       -2.5560   47.4070   18.2340 O.3   403  BHE403     -0.3231
     29  C19       -8.8840   43.1200   11.4310 C.3   403  BHE403      0.0000
     30  C20       -9.2670   43.1680    9.9470 C.3   403  BHE403      0.0000
@<TRIPOS>BOND
     1    30    29    1
     2    29    13    1
     3    12    22    1
     4    13    14    1
     5    22    21    1
     6    14    15    1
     7    15    16    1
     8    21    20    1
     9    21    23    1
    10    20    19    1
    11    24    23    1
    12    23    25    1
    13    16    17    1
    14    18    17    1
    15    18     2    1
    16    19     2    1
    17    19    27    1
    18    25    27    1
    19    25    26    1
    20    27    28    1
    21    28     1    1
    22    10     1    1
    23    10     9    1
    24     1     3    1
    25    11     9    1
    26     9     7    1
    27     4     3    1
    28     3     5    1
    29     5     7    1
    30     5     6    1
    31     7     8    1
