@<TRIPOS>MOLECULE
3v0r_8AC_A_1.pdb
 11 10 0 0 0
SMALL
GASTEIGER

@<TRIPOS>ATOM
      1  NAA       30.5750   -1.5640   13.9700 N.3   211  8AC211     -0.1314
      2  OAB       33.2140    4.5680   21.6920 O.co2 211  8AC211     -0.2457
      3  OAC       33.2120    2.7690   22.8510 O.co2 211  8AC211     -0.2457
      4  CAD       30.9620   -1.3720   15.3750 C.3   211  8AC211      0.1093
      5  CAE       30.3500   -0.0810   15.8730 C.3   211  8AC211      0.0205
      6  CAF       30.1530   -0.0840   17.3760 C.3   211  8AC211      0.0015
      7  CAG       31.2760    0.7620   17.9920 C.3   211  8AC211      0.0001
      8  CAH       30.8240    1.4740   19.2150 C.3   211  8AC211      0.0006
      9  CAI       32.0670    2.0290   19.9700 C.3   211  8AC211      0.0118
     10  CAJ       31.6270    3.0290   21.0140 C.3   211  8AC211      0.1141
     11  CAK       32.7950    3.4580   21.9260 C.2   211  8AC211      0.3649
@<TRIPOS>BOND
     1     1     4    1
     2     4     5    1
     3     5     6    1
     4     6     7    1
     5     7     8    1
     6     8     9    1
     7     9    10    1
     8    10    11    1
     9     2    11   ar
    10    11     3   ar
