@<TRIPOS>MOLECULE
3v0r_0FU_A_1.pdb
 10 10 0 0 0
SMALL
GASTEIGER

@<TRIPOS>ATOM
      1  C4        34.7670   -0.6640   18.3160 C.1   209  0FU209      0.2174
      2  N3        34.6560   -0.8430   16.9730 N.2   209  0FU209     -0.2525
      3  C2        34.9610    0.1420   16.0840 C.1   209  0FU209      0.2526
      4  NAA       34.8300   -0.1000   14.7710 N.pl3 209  0FU209     -0.0226
      5  N1        35.3960    1.3530   16.4950 N.2   209  0FU209     -0.3087
      6  C6        35.5240    1.5880   17.8330 C.2   209  0FU209      0.2444
      7  NAB       35.9440    2.7600   18.2490 N.pl3 209  0FU209     -0.0942
      8  C5        35.2120    0.5820   18.7910 C.3   209  0FU209      0.2793
      9  NAC       35.3310    0.7690   20.1310 N.3   209  0FU209     -0.1044
     10  O4        34.4560   -1.6400   19.2400 O.2   209  0FU209     -0.2114
@<TRIPOS>BOND
     1     4     3    1
     2     3     5    2
     3     3     2    2
     4     5     6    2
     5     2     1    2
     6     6     7    1
     7     6     8    1
     8     1     8    1
     9     1    10    2
    10     8     9    1
