@<TRIPOS>MOLECULE
3v0s_ATR_A_1.pdb
 31 33 0 0 0
SMALL
GASTEIGER

@<TRIPOS>ATOM
      1  PB        18.2950   15.1070   12.3670 P.3   401  ATR401      0.5373
      2  O1B       19.3260   15.9450   11.6910 O.3   401  ATR401     -0.1143
      3  O2B       18.4590   13.7950   11.6380 O.2   401  ATR401     -0.2221
      4  O3B       16.8750   15.6780   12.1720 O.3   401  ATR401     -0.1143
      5  PA        19.7290   15.1400   14.8150 P.3   401  ATR401      0.2231
      6  O1A       19.1730   14.5160   16.0470 O.3   401  ATR401     -0.4370
      7  O2A       20.0820   16.5600   15.1550 O.2   401  ATR401     -0.5169
      8  O3A       18.4680   15.0090   13.9090 O.3   401  ATR401     -0.2261
      9  O5'       21.0180   14.3700   14.2780 O.3   401  ATR401     -0.3111
     10  C5'       21.0950   12.9750   14.1950 C.3   401  ATR401      0.1813
     11  C4'       22.1840   12.5520   13.3670 C.3   401  ATR401      0.1820
     12  O4'       23.4240   12.9310   14.0390 O.3   401  ATR401     -0.3136
     13  C3'       22.2890   11.1080   13.1020 C.3   401  ATR401      0.2157
     14  O3'       22.7670   10.9310   11.8230 O.3   401  ATR401     -0.2175
     15  C2'       23.2810   10.6230   14.0740 C.3   401  ATR401      0.2314
     16  O2'       23.9780    9.5820   13.5340 O.3   401  ATR401     -0.2630
     17  P2'       24.3950    8.3270   14.4260 P.3   401  ATR401      0.5328
     18  O1P       24.8230    8.7520   15.7880 O.3   401  ATR401     -0.1145
     19  O2P       23.2470    7.4060   14.6290 O.3   401  ATR401     -0.1145
     20  O3P       25.5340    7.5590   13.7010 O.2   401  ATR401     -0.2224
     21  C1'       24.1970   11.7930   14.2690 C.3   401  ATR401      0.3158
     22  N9        24.7500   11.9420   15.6020 N.pl3 401  ATR401     -0.1439
     23  C8        24.0690   11.9840   16.7870 C.3   401  ATR401      0.3377
     24  N7        24.9400   12.1620   17.8000 N.2   401  ATR401     -0.2095
     25  C5        26.2250   12.2500   17.2450 C.2   401  ATR401      0.2526
     26  C6        27.5390   12.4250   17.7810 C.2   401  ATR401      0.4393
     27  N6        27.7680   12.5840   19.1880 N.pl3 401  ATR401      0.2180
     28  N1        28.5640   12.4540   16.9230 N.2   401  ATR401      0.0021
     29  C2        28.4090   12.3220   15.5860 C.3   401  ATR401      0.5254
     30  N3        27.1880   12.1530   15.0380 N.2   401  ATR401     -0.0055
     31  C4        26.0970   12.1130   15.8660 C.2   401  ATR401      0.3518
@<TRIPOS>BOND
     1     3     1    2
     2     2     1    1
     3    14    13    1
     4     4     1    1
     5     1     8    1
     6    13    11    1
     7    13    15    1
     8    11    12    1
     9    11    10    1
    10    16    15    1
    11    16    17    1
    12    20    17    2
    13     8     5    1
    14    12    21    1
    15    15    21    1
    16    10     9    1
    17    21    22    1
    18     9     5    1
    19    17    19    1
    20    17    18    1
    21     5     7    2
    22     5     6    1
    23    30    29    1
    24    30    31    2
    25    29    28    1
    26    22    31    1
    27    22    23    1
    28    31    25    1
    29    23    24    1
    30    28    26    2
    31    25    26    1
    32    25    24    2
    33    26    27    1
