@<TRIPOS>MOLECULE
3v0t_ATR_A_1.pdb
 31 33 0 0 0
SMALL
GASTEIGER

@<TRIPOS>ATOM
      1  PB        21.8360    7.0560   21.7660 P.3   338  ATR338      0.5373
      2  O1B       23.0020    7.1190   22.7260 O.3   338  ATR338     -0.1143
      3  O2B       21.7660    5.6840   21.1390 O.2   338  ATR338     -0.2221
      4  O3B       20.5420    7.3460   22.4860 O.3   338  ATR338     -0.1143
      5  PA        22.7460    7.9680   19.3380 P.3   338  ATR338      0.2231
      6  O1A       21.8850    8.1620   18.0360 O.2   338  ATR338     -0.5169
      7  O2A       24.2980    8.0310   19.2300 O.3   338  ATR338     -0.4370
      8  O3A       22.0250    8.1680   20.7070 O.3   338  ATR338     -0.2261
      9  O5'       22.7900    9.5530   19.4600 O.3   338  ATR338     -0.3111
     10  C5'       21.6440   10.3150   19.7160 C.3   338  ATR338      0.1813
     11  C4'       21.7470   11.6140   20.4710 C.3   338  ATR338      0.1820
     12  O4'       22.6760   12.5220   19.9330 O.3   338  ATR338     -0.3136
     13  C3'       20.4540   12.4160   20.5820 C.3   338  ATR338      0.2157
     14  O3'       20.3940   12.9660   21.8500 O.3   338  ATR338     -0.2175
     15  C2'       20.5400   13.4530   19.6130 C.3   338  ATR338      0.2314
     16  O2'       19.9190   14.6080   20.0830 O.3   338  ATR338     -0.2630
     17  P2'       19.1280   15.5680   19.1230 P.3   338  ATR338      0.5328
     18  O1P       17.7520   15.0020   18.8240 O.3   338  ATR338     -0.1145
     19  O2P       19.8970   15.7530   17.8280 O.2   338  ATR338     -0.2224
     20  O3P       18.9530   16.9210   19.7970 O.3   338  ATR338     -0.1145
     21  C1'       21.9980   13.7060   19.5150 C.3   338  ATR338      0.3158
     22  N9        22.4650   14.0790   18.2150 N.pl3 338  ATR338     -0.1439
     23  C8        22.2190   13.4770   17.0350 C.3   338  ATR338      0.3377
     24  N7        22.8920   14.1280   16.0690 N.2   338  ATR338     -0.2095
     25  C5        23.5800   15.1450   16.6390 C.2   338  ATR338      0.2526
     26  C6        24.4330   16.1280   16.1350 C.2   338  ATR338      0.4393
     27  N6        24.7390   16.1980   14.7390 N.pl3 338  ATR338      0.2180
     28  N1        24.9720   17.0090   16.9910 N.2   338  ATR338      0.0021
     29  C2        24.7040   16.9590   18.3090 C.3   338  ATR338      0.5254
     30  N3        23.8820   16.0190   18.8000 N.2   338  ATR338     -0.0055
     31  C4        23.3100   15.1060   17.9950 C.2   338  ATR338      0.3518
@<TRIPOS>BOND
     1    27    26    1
     2    24    25    2
     3    24    23    1
     4    26    25    1
     5    26    28    2
     6    25    31    1
     7    28    29    1
     8    23    22    1
     9    19    17    2
    10    31    22    1
    11    31    30    2
    12     6     5    2
    13    22    21    1
    14    29    30    1
    15    18    17    1
    16    17    20    1
    17    17    16    1
    18     7     5    1
    19     5     9    1
    20     5     8    1
    21     9    10    1
    22    21    15    1
    23    21    12    1
    24    15    16    1
    25    15    13    1
    26    10    11    1
    27    12    11    1
    28    11    13    1
    29    13    14    1
    30     8     1    1
    31     3     1    2
    32     1     4    1
    33     1     2    1
