@<TRIPOS>MOLECULE
3v0w_GLC_H_1.pdb
 11 11 0 0 0
SMALL
GASTEIGER

@<TRIPOS>ATOM
      1  C1       -10.9070  -51.1040   12.7640 C.3   304  GLC304      0.1777
      2  C2        -9.5050  -51.0070   12.1640 C.3   304  GLC304      0.2141
      3  C3        -8.5330  -50.9750   13.3900 C.3   304  GLC304      0.2173
      4  C4        -8.9640  -49.7000   14.2090 C.3   304  GLC304      0.2142
      5  C5       -10.3420  -49.9300   14.7600 C.3   304  GLC304      0.1810
      6  C6       -10.8730  -48.8110   15.7070 C.3   304  GLC304      0.2141
      7  O2        -9.3480  -52.1810   11.4010 O.3   304  GLC304     -0.2176
      8  O3        -7.1520  -51.0050   13.0540 O.3   304  GLC304     -0.2175
      9  O4        -8.0120  -49.6720   15.3510 O.3   304  GLC304     -0.2176
     10  O5       -11.3140  -49.9380   13.6210 O.3   304  GLC304     -0.3481
     11  O6       -11.8320  -49.2370   16.6540 O.3   304  GLC304     -0.2176
@<TRIPOS>BOND
     1     7     2    1
     2     2     1    1
     3     2     3    1
     4     1    10    1
     5     8     3    1
     6     3     4    1
     7    10     5    1
     8     4     5    1
     9     4     9    1
    10     5     6    1
    11     6    11    1
