@<TRIPOS>MOLECULE
3v0w_GLA_H_1.pdb
 11 11 0 0 0
SMALL
GASTEIGER

@<TRIPOS>ATOM
      1  C1       -11.1250  -49.9320   17.6820 C.3   305  GLA305      0.1777
      2  C2       -12.1200  -50.5880   18.5310 C.3   305  GLA305      0.2141
      3  C3       -12.9460  -49.5160   19.2740 C.3   305  GLA305      0.2173
      4  C4       -12.0960  -48.4520   19.9790 C.3   305  GLA305      0.2142
      5  C5       -11.1770  -47.8960   18.9890 C.3   305  GLA305      0.1810
      6  C6       -10.2510  -46.8390   19.6310 C.3   305  GLA305      0.2141
      7  O2       -12.9000  -51.4880   17.6650 O.3   305  GLA305     -0.2176
      8  O3       -13.7770  -50.2550   20.0860 O.3   305  GLA305     -0.2175
      9  O4       -11.2800  -49.0950   21.0860 O.3   305  GLA305     -0.2176
     10  O5       -10.3160  -48.9650   18.4130 O.3   305  GLA305     -0.3481
     11  O6        -9.3780  -46.2960   18.6320 O.3   305  GLA305     -0.2176
@<TRIPOS>BOND
     1     7     2    1
     2     1    10    1
     3     1     2    1
     4    10     5    1
     5     2     3    1
     6    11     6    1
     7     5     6    1
     8     5     4    1
     9     3     4    1
    10     3     8    1
    11     4     9    1
