@<TRIPOS>MOLECULE
3v0w_GM0_H_1.pdb
 17 17 0 0 0
SMALL
GASTEIGER

@<TRIPOS>ATOM
      1  P        -12.6270  -52.8520    9.8210 P.3   306  GM0306      0.5327
      2  C1       -13.7910  -54.3820   14.9530 C.3   306  GM0306      0.1777
      3  O1       -11.2010  -53.2220   10.0080 O.3   306  GM0306     -0.1145
      4  C2       -12.4150  -53.7060   14.7900 C.3   306  GM0306      0.2140
      5  O2       -11.4720  -54.7520   14.4280 O.3   306  GM0306     -0.2176
      6  C3       -12.5060  -52.6810   13.6490 C.3   306  GM0306      0.2146
      7  O3       -11.2210  -52.3830   13.3460 O.3   306  GM0306     -0.2176
      8  C4       -13.1310  -53.4300   12.4090 C.3   306  GM0306      0.1886
      9  O4       -13.3190  -52.5180   11.2490 O.3   306  GM0306     -0.2674
     10  C5       -14.5380  -53.9100   12.7330 C.3   306  GM0306      0.1783
     11  O5       -14.4550  -54.9280   13.7560 O.3   306  GM0306     -0.3482
     12  C6       -15.2750  -54.5520   11.5590 C.3   306  GM0306      0.2141
     13  O6       -14.4190  -55.5670   10.9450 O.3   306  GM0306     -0.2176
     14  C7       -16.5140  -55.2880   12.0170 C.3   306  GM0306      0.2174
     15  O7       -17.2530  -55.5440   10.8280 O.3   306  GM0306     -0.2175
     16  O8       -13.4340  -53.9160    9.1830 O.3   306  GM0306     -0.1145
     17  O9       -12.7360  -51.5800    9.0730 O.2   306  GM0306     -0.2224
@<TRIPOS>BOND
     1    17     1    2
     2    16     1    1
     3     1     3    1
     4     1     9    1
     5    15    14    1
     6    13    12    1
     7     9     8    1
     8    12    14    1
     9    12    10    1
    10     8    10    1
    11     8     6    1
    12    10    11    1
    13     7     6    1
    14     6     4    1
    15    11     2    1
    16     5     4    1
    17     4     2    1
