@<TRIPOS>MOLECULE
3v0w_GMH_H_1.pdb
 13 13 0 0 0
SMALL
GASTEIGER

@<TRIPOS>ATOM
      1  C1       -18.5490  -56.0170   10.9800 C.3   307  GMH307      0.1777
      2  C2       -19.1220  -56.3320    9.5850 C.3   307  GMH307      0.2141
      3  C3       -19.2590  -55.0530    8.7710 C.3   307  GMH307      0.2173
      4  C4       -20.0640  -53.9790    9.5010 C.3   307  GMH307      0.2142
      5  C5       -19.4450  -53.7990   10.8560 C.3   307  GMH307      0.1810
      6  C6       -20.2820  -52.9100   11.8240 C.3   307  GMH307      0.2142
      7  C7       -19.6120  -52.7190   13.1450 C.3   307  GMH307      0.2174
      8  O2       -20.4220  -56.9790    9.7730 O.3   307  GMH307     -0.2176
      9  O3       -19.7860  -55.2590    7.4670 O.3   307  GMH307     -0.2175
     10  O4       -19.9920  -52.7410    8.7310 O.3   307  GMH307     -0.2176
     11  O5       -19.4250  -55.0310   11.5900 O.3   307  GMH307     -0.3481
     12  O6       -21.6360  -53.4340   11.9360 O.3   307  GMH307     -0.2176
     13  O7       -20.5240  -51.7530   13.8750 O.3   307  GMH307     -0.2175
@<TRIPOS>BOND
     1     9     3    1
     2    10     4    1
     3     3     4    1
     4     3     2    1
     5     4     5    1
     6     2     8    1
     7     2     1    1
     8     5    11    1
     9     5     6    1
    10     1    11    1
    11     6    12    1
    12     6     7    1
    13     7    13    1
