@<TRIPOS>MOLECULE
3v0x_ANH_A_1.pdb
 30 31 0 0 0
SMALL
GASTEIGER

@<TRIPOS>ATOM
      1  N12       -2.0180  -10.9520  -16.5080 N.am  481  ANH481     -0.1941
      2  C13       -3.2470  -11.6910  -16.2360 C.3   481  ANH481      0.1978
      3  C30       -2.9190  -12.6130  -15.0740 C.3   481  ANH481      0.0595
      4  C14       -4.3730  -10.8220  -15.7750 C.2   481  ANH481      0.3374
      5  O17       -5.5240  -11.1500  -16.0170 O.2   481  ANH481     -0.2482
      6  O15       -4.1510   -9.6130  -15.0150 O.3   481  ANH481     -0.4432
      7  C16       -2.9160   -9.3160  -14.3000 C.3   481  ANH481      0.2557
      8  C21       -2.1210  -13.8520  -15.4340 C.ar  481  ANH481     -0.0196
      9  C22       -1.0740  -14.2180  -14.5980 C.ar  481  ANH481     -0.0042
     10  C23       -0.3200  -15.3640  -14.8870 C.ar  481  ANH481     -0.0001
     11  C24       -0.6490  -16.1400  -16.0000 C.ar  481  ANH481      0.0080
     12  C25       -1.7000  -15.7750  -16.8320 C.ar  481  ANH481      0.0972
     13  C26       -2.4410  -14.6280  -16.5470 C.ar  481  ANH481      0.0038
     14  C27       -2.0380  -16.6200  -18.0280 C.2   481  ANH481      0.4766
     15  N28       -3.0200  -16.2510  -18.8570 N.pl3 481  ANH481      0.2047
     16  N29       -1.3630  -17.7490  -18.2700 N.pl3 481  ANH481      0.2047
     17  C11       -1.9820  -10.1910  -17.6130 C.2   481  ANH481      0.2616
     18  C10       -0.7290   -9.4320  -17.9080 C.3   481  ANH481      0.2017
     19  N9        -0.7450   -9.1930  -19.3290 N.3   481  ANH481     -0.0678
     20  O20       -2.8930  -10.0950  -18.4250 O.2   481  ANH481     -0.2717
     21  C1         4.3210   -5.2390  -18.2540 C.3   481  ANH481      0.0310
     22  C2         3.0030   -5.8520  -18.6760 C.ar  481  ANH481     -0.0218
     23  C3         2.9270   -6.5160  -19.9070 C.ar  481  ANH481     -0.0029
     24  C4         1.7070   -7.0880  -20.2880 C.ar  481  ANH481      0.0196
     25  C5         0.5680   -7.0030  -19.4780 C.ar  481  ANH481      0.1235
     26  C6         0.6680   -6.3400  -18.2440 C.ar  481  ANH481      0.0196
     27  C7         1.8780   -5.7670  -17.8400 C.ar  481  ANH481     -0.0029
     28  S8        -0.8170   -7.7080  -19.9570 S.O2  481  ANH481      0.0773
     29  O18       -0.8920   -7.8640  -21.3730 O.2   481  ANH481     -0.1516
     30  O19       -1.9510   -7.0430  -19.4170 O.2   481  ANH481     -0.1516
@<TRIPOS>BOND
     1    29    28    2
     2    24    23   ar
     3    24    25   ar
     4    28    25    1
     5    28    30    2
     6    28    19    1
     7    23    22   ar
     8    25    26   ar
     9    19    18    1
    10    15    14    2
    11    22    21    1
    12    22    27   ar
    13    20    17    2
    14    16    14    1
    15    26    27   ar
    16    14    12    1
    17    18    17    1
    18    17     1   am
    19    12    13   ar
    20    12    11   ar
    21    13     8   ar
    22     1     2    1
    23     2     4    1
    24     2     3    1
    25     5     4    2
    26    11    10   ar
    27     4     6    1
    28     8     3    1
    29     8     9   ar
    30     6     7    1
    31    10     9   ar
