@<TRIPOS>MOLECULE
3v0y_SQO_A_1.pdb
 16 18 0 0 0
SMALL
GASTEIGER

@<TRIPOS>ATOM
      1  N1        17.4070   17.2710   24.0130 N.2   402  SQO402     -0.1752
      2  N3        15.9080   16.9150   22.2300 N.2   402  SQO402     -0.2468
      3  C4        16.8930   17.2250   21.2780 C.2   402  SQO402      0.0741
      4  C5        18.1780   17.5830   21.6950 C.2   402  SQO402      0.0991
      5  C6        18.4520   17.5920   23.1500 C.1   402  SQO402      0.1532
      6  C7        19.1850   17.9130   20.7760 C.2   402  SQO402      0.0482
      7  C8        18.8370   17.8730   19.4220 C.2   402  SQO402      0.1723
      8  C10       16.5670   17.2090   19.9110 C.3   402  SQO402      0.1088
      9  N12       19.5350   18.1320   18.2650 N.2   402  SQO402     -0.3247
     10  C13       18.6970   17.9490   17.2000 C.1   402  SQO402      0.2200
     11  C2        16.1650   16.9340   23.5650 C.3   402  SQO402      0.2622
     12  C9        17.5630   17.5320   18.9740 C.2   402  SQO402      0.1589
     13  N14       17.4960   17.5880   17.6000 N.2   402  SQO402     -0.3284
     14  N15       19.2030   18.1530   15.9440 N.pl3 402  SQO402     -0.1499
     15  O16       19.5470   17.8900   23.5990 O.2   402  SQO402     -0.2221
     16  C25       18.3540   18.4310   14.7980 C.3   402  SQO402      0.1504
@<TRIPOS>BOND
     1    16    14    1
     2    14    10    1
     3    10    13    2
     4    10     9    2
     5    13    12    2
     6     9     7    2
     7    12     7    1
     8    12     8    1
     9     7     6    1
    10     8     3    1
    11     6     4    2
    12     3     4    1
    13     3     2    2
    14     4     5    1
    15     2    11    1
    16     5    15    2
    17     5     1    2
    18    11     1    1
