@<TRIPOS>MOLECULE
3v11_GNP_A_1.pdb
 32 34 0 0 0
SMALL
GASTEIGER

@<TRIPOS>ATOM
      1  PG        23.0990   32.1200   29.0880 P.3   502  GNP502      0.4884
      2  O1G       24.4110   32.7180   29.4390 O.3   502  GNP502     -0.1240
      3  O2G       22.2430   32.9380   28.1600 O.2   502  GNP502     -0.2331
      4  O3G       22.4470   31.8490   30.4100 O.3   502  GNP502     -0.1240
      5  N3B       23.3040   30.7430   28.3630 N.3   502  GNP502     -0.0163
      6  PB        21.9200   30.1450   27.9160 P.3   502  GNP502      0.4669
      7  O1B       20.9680   30.0170   29.0380 O.3   502  GNP502     -0.1253
      8  O2B       21.4340   30.8900   26.7510 O.2   502  GNP502     -0.2351
      9  O3A       22.1650   28.7490   27.4470 O.3   502  GNP502     -0.2360
     10  PA        22.5290   28.4760   26.0100 P.3   502  GNP502      0.2220
     11  O1A       21.3980   28.9720   25.2190 O.2   502  GNP502     -0.5170
     12  O2A       23.8650   29.0560   25.8250 O.3   502  GNP502     -0.4370
     13  O5'       22.5910   26.9200   25.7650 O.3   502  GNP502     -0.3111
     14  C5'       23.0400   26.1200   26.8180 C.3   502  GNP502      0.1813
     15  C4'       23.0770   24.6650   26.3820 C.3   502  GNP502      0.1799
     16  O4'       21.8300   24.0170   26.7390 O.3   502  GNP502     -0.3326
     17  C3'       23.2770   24.4310   24.8910 C.3   502  GNP502      0.2158
     18  O3'       24.4550   23.6600   24.6680 O.3   502  GNP502     -0.2175
     19  C2'       22.0840   23.5940   24.4510 C.3   502  GNP502      0.2310
     20  O2'       22.6110   22.4800   23.7620 O.3   502  GNP502     -0.2158
     21  C1'       21.4030   23.1200   25.7320 C.3   502  GNP502      0.2293
     22  N9        19.9290   23.1130   25.6740 N.pl3 502  GNP502     -0.2354
     23  C8        19.1240   24.2270   25.5850 C.3   502  GNP502      0.2246
     24  N7        17.8480   23.9710   25.5480 N.2   502  GNP502     -0.2322
     25  C5        17.7880   22.5840   25.6140 C.2   502  GNP502      0.2182
     26  C6        16.6540   21.7440   25.6100 C.1   502  GNP502      0.2372
     27  O6        15.4660   22.0850   25.5480 O.2   502  GNP502     -0.2069
     28  N1        17.0100   20.4000   25.6950 N.2   502  GNP502     -0.2485
     29  C2        18.3000   19.9350   25.7700 C.1   502  GNP502      0.2531
     30  N2        18.4410   18.6080   25.8430 N.pl3 502  GNP502     -0.0226
     31  N3        19.3780   20.7170   25.7730 N.2   502  GNP502     -0.3074
     32  C4        19.0520   22.0330   25.6920 C.2   502  GNP502      0.2300
@<TRIPOS>BOND
     1    20    19    1
     2    19    17    1
     3    19    21    1
     4    18    17    1
     5    17    15    1
     6    11    10    2
     7    27    26    2
     8    24    23    1
     9    24    25    2
    10    23    22    1
    11    26    25    1
    12    26    28    2
    13    25    32    1
    14    22    32    1
    15    22    21    1
    16    32    31    2
    17    28    29    2
    18    21    16    1
    19    13    10    1
    20    13    14    1
    21    29    31    2
    22    29    30    1
    23    12    10    1
    24    10     9    1
    25    15    16    1
    26    15    14    1
    27     8     6    2
    28     9     6    1
    29     6     5    1
    30     6     7    1
    31     3     1    2
    32     5     1    1
    33     1     2    1
    34     1     4    1
