@<TRIPOS>MOLECULE
3v12_PMJ_A_1.pdb
 36 37 0 0 0
SMALL
GASTEIGER

@<TRIPOS>ATOM
      1  C7       -27.9910   26.6040    2.3620 C.3   302  PMJ302      0.1969
      2  S8       -27.0810   25.7050    3.7020 S.O2  302  PMJ302      0.0620
      3  C4       -27.1710   26.8080    1.0740 C.ar  302  PMJ302      0.0030
      4  C5       -26.0040   27.5890    1.0880 C.ar  302  PMJ302     -0.0025
      5  C6       -25.2460   27.7750   -0.0720 C.ar  302  PMJ302     -0.0003
      6  C1       -25.6610   27.1690   -1.2560 C.ar  302  PMJ302     -0.0000
      7  C2       -26.8280   26.3920   -1.2710 C.ar  302  PMJ302     -0.0003
      8  C3       -27.5870   26.2110   -0.1130 C.ar  302  PMJ302     -0.0025
      9  O10      -26.9830   26.6330    4.8460 O.2   302  PMJ302     -0.1558
     10  O9       -27.8670   24.5360    4.1630 O.2   302  PMJ302     -0.1558
     11  N11      -25.5890   25.1590    3.3260 N.3   302  PMJ302     -0.0738
     12  C12      -24.5720   25.7620    4.1990 C.3   302  PMJ302      0.1749
     13  C30      -23.3480   26.2510    3.3630 C.3   302  PMJ302      0.0324
     14  C31      -22.6200   25.1240    2.6250 C.3   302  PMJ302      0.0489
     15  C32      -21.8190   25.5850    1.3880 C.3   302  PMJ302      0.2205
     16  N33      -20.5380   26.2010    1.7720 N.pl3 302  PMJ302     -0.0865
     17  C34      -19.3940   25.5200    1.9000 C.cat 302  PMJ302      0.5346
     18  N35      -19.3260   24.2040    1.7020 N.pl3 302  PMJ302      0.1354
     19  N37      -18.3020   26.1810    2.2660 N.pl3 302  PMJ302      0.1354
     20  C13      -24.2140   24.7960    5.3550 C.2   302  PMJ302      0.2595
     21  O14      -24.4800   23.5870    5.2690 O.2   302  PMJ302     -0.2718
     22  N15      -23.6770   25.3870    6.4220 N.am  302  PMJ302     -0.1942
     23  C16      -23.3700   24.6540    7.6590 C.3   302  PMJ302      0.2014
     24  C17      -24.6820   24.0050    8.0980 C.2   302  PMJ302      0.2638
     25  O18      -25.7150   24.6650    8.0190 O.2   302  PMJ302     -0.2714
     26  N19      -24.6430   22.7460    8.5670 N.am  302  PMJ302     -0.1991
     27  C20      -25.8800   22.0610    9.0270 C.3   302  PMJ302      0.1415
     28  C21      -26.3210   21.0200    7.9770 C.ar  302  PMJ302     -0.0006
     29  C26      -26.5720   21.4270    6.6580 C.ar  302  PMJ302     -0.0023
     30  C25      -26.9520   20.5000    5.6850 C.ar  302  PMJ302      0.0077
     31  C24      -27.0590   19.1420    6.0340 C.ar  302  PMJ302      0.0975
     32  C27      -27.4170   18.1970    5.0450 C.2   302  PMJ302      0.4766
     33  N28      -28.1760   18.4950    3.9640 N.pl3 302  PMJ302      0.2047
     34  N29      -26.8660   16.9960    5.0790 N.pl3 302  PMJ302      0.2047
     35  C23      -26.8120   18.7420    7.3620 C.ar  302  PMJ302      0.0077
     36  C22      -26.4520   19.6850    8.3330 C.ar  302  PMJ302     -0.0023
@<TRIPOS>BOND
     1     7     6   ar
     2     7     8   ar
     3     6     5   ar
     4     8     3   ar
     5     5     4   ar
     6     3     4   ar
     7     3     1    1
     8    15    16    1
     9    15    14    1
    10    18    17    1
    11    16    17    2
    12    17    19    1
    13     1     2    1
    14    14    13    1
    15    11     2    1
    16    11    12    1
    17    13    12    1
    18     2    10    2
    19     2     9    2
    20    33    32    2
    21    12    20    1
    22    32    34    1
    23    32    31    1
    24    21    20    2
    25    20    22   am
    26    30    31   ar
    27    30    29   ar
    28    31    35   ar
    29    22    23    1
    30    29    28   ar
    31    35    36   ar
    32    23    24    1
    33    28    36   ar
    34    28    27    1
    35    25    24    2
    36    24    26   am
    37    26    27    1
