@<TRIPOS>MOLECULE
3v13_3YH_A_1.pdb
 33 36 0 0 0
SMALL
GASTEIGER

@<TRIPOS>ATOM
      1  N1       -13.0900   14.0230    3.8860 N.pl3 481  3YH481      0.2047
      2  C2       -13.8150   15.1420    3.8030 C.2   481  3YH481      0.4766
      3  N3       -15.0840   14.9950    3.4200 N.pl3 481  3YH481      0.2047
      4  C4       -13.2280   16.4240    4.0250 C.ar  481  3YH481      0.0975
      5  C5       -13.8690   17.6100    3.6520 C.ar  481  3YH481      0.0080
      6  C6       -13.2410   18.8420    3.8550 C.ar  481  3YH481      0.0003
      7  C7       -11.9640   18.8970    4.4390 C.ar  481  3YH481      0.0016
      8  C8       -11.3260   17.7380    4.8380 C.ar  481  3YH481      0.0213
      9  C9       -11.9660   16.5230    4.6280 C.ar  481  3YH481      0.0096
     10  C10      -10.0430   17.7380    5.4160 C.ar  481  3YH481      0.1275
     11  C11       -9.6420   17.8670    6.7630 C.ar  481  3YH481      0.1164
     12  C12      -10.5580   18.0720    7.9940 C.2   481  3YH481      0.2737
     13  O13      -11.7040   18.4830    7.7940 O.2   481  3YH481     -0.2678
     14  N14      -10.0570   17.7530    9.2130 N.am  481  3YH481     -0.1753
     15  C15      -10.8060   17.8720   10.3610 C.ar  481  3YH481      0.0737
     16  C16      -10.9510   16.7870   11.2180 C.ar  481  3YH481      0.0166
     17  C17      -11.7240   16.8540   12.3860 C.ar  481  3YH481      0.0014
     18  C18      -12.3930   18.0320   12.7370 C.ar  481  3YH481      0.0014
     19  C19      -12.2700   19.1150   11.8850 C.ar  481  3YH481      0.0014
     20  C20      -11.4800   19.0480   10.7240 C.ar  481  3YH481      0.0166
     21  C21      -13.2150   18.0720   13.8920 C.ar  481  3YH481      0.0187
     22  C22      -14.5080   17.5190   13.7940 C.ar  481  3YH481      0.0013
     23  C23      -15.3980   17.4980   14.8970 C.ar  481  3YH481      0.0001
     24  C24      -15.0470   18.0070   16.1320 C.ar  481  3YH481      0.0014
     25  C25      -13.7680   18.5670   16.2160 C.ar  481  3YH481      0.0200
     26  C26      -12.8620   18.5960   15.1380 C.ar  481  3YH481      0.1250
     27  S27      -11.3020   19.3550   15.4580 S.O2  481  3YH481      0.0935
     28  O28      -10.2440   18.5810   14.7420 O.2   481  3YH481     -0.1503
     29  O29      -11.0650   19.3690   16.9470 O.2   481  3YH481     -0.1503
     30  N30      -11.3910   20.7920   14.8900 N.3   481  3YH481      0.0392
     31  N39       -8.9320   17.5880    4.7100 N.ar  481  3YH481     -0.0767
     32  O40       -7.7980   17.5900    5.5640 O.2   481  3YH481     -0.3500
     33  C41       -8.2960   17.8020    6.8340 C.ar  481  3YH481      0.2183
@<TRIPOS>BOND
     1     3     2    2
     2     5     6   ar
     3     5     4   ar
     4     2     1    1
     5     2     4    1
     6     6     7   ar
     7     4     9   ar
     8     7     8   ar
     9     9     8   ar
    10    31    10   ar
    11    31    32   ar
    12     8    10    1
    13    10    11   ar
    14    32    33   ar
    15    11    33   ar
    16    11    12    1
    17    13    12    2
    18    12    14   am
    19    14    15    1
    20    15    20   ar
    21    15    16   ar
    22    20    19   ar
    23    16    17   ar
    24    19    18   ar
    25    17    18   ar
    26    18    21    1
    27    22    21   ar
    28    22    23   ar
    29    21    26   ar
    30    28    27    2
    31    30    27    1
    32    23    24   ar
    33    26    27    1
    34    26    25   ar
    35    27    29    2
    36    24    25   ar
