@<TRIPOS>MOLECULE
3v14_TRE_A_1.pdb
 23 24 0 0 0
SMALL
GASTEIGER

@<TRIPOS>ATOM
      1  C1       -15.4540  -15.2500   -7.7310 C.3   7347  TRE7347     0.2713
      2  C2       -14.9680  -16.6870   -7.9450 C.3   7347  TRE7347     0.2406
      3  C3       -15.4940  -17.7020   -6.9830 C.3   7347  TRE7347     0.2198
      4  C4       -15.2880  -17.2050   -5.5700 C.3   7347  TRE7347     0.2144
      5  C5       -15.6760  -15.7280   -5.3890 C.3   7347  TRE7347     0.1835
      6  C6       -14.8950  -15.0870   -4.2920 C.3   7347  TRE7347     0.2142
      7  O1       -16.7900  -15.0680   -8.0420 O.3   7347  TRE7347    -0.3016
      8  O2       -15.1920  -17.2430   -9.2280 O.3   7347  TRE7347    -0.2149
      9  O3       -14.6510  -18.8130   -7.3160 O.3   7347  TRE7347    -0.2174
     10  O4       -16.0240  -18.0410   -4.7000 O.3   7347  TRE7347    -0.2176
     11  O5       -15.2520  -14.8750   -6.3830 O.3   7347  TRE7347    -0.3256
     12  O6       -15.7530  -14.8860   -3.1870 O.3   7347  TRE7347    -0.2176
     13  C1P      -16.8790  -14.4750   -9.3030 C.3   7347  TRE7347     0.2713
     14  C2P      -18.2780  -14.8220   -9.7800 C.3   7347  TRE7347     0.2406
     15  C3P      -18.4320  -15.0870  -11.2980 C.3   7347  TRE7347     0.2198
     16  C4P      -17.1770  -14.8570  -12.0630 C.3   7347  TRE7347     0.2144
     17  C5P      -16.1290  -15.6390  -11.2980 C.3   7347  TRE7347     0.1835
     18  C6P      -14.9370  -16.0070  -12.1480 C.3   7347  TRE7347     0.2142
     19  O2P      -18.5920  -16.0050   -9.1070 O.3   7347  TRE7347    -0.2149
     20  O3P      -19.4130  -14.2240  -11.8140 O.3   7347  TRE7347    -0.2174
     21  O4P      -17.3330  -15.3460  -13.3510 O.3   7347  TRE7347    -0.2176
     22  O5P      -15.7980  -14.9610  -10.0930 O.3   7347  TRE7347    -0.3256
     23  O6P      -13.8920  -16.9900  -12.0510 O.3   7347  TRE7347    -0.2176
@<TRIPOS>BOND
     1    21    16    1
     2    18    23    1
     3    18    17    1
     4    16    17    1
     5    16    15    1
     6    20    15    1
     7    17    22    1
     8    15    14    1
     9    22    13    1
    10    14    13    1
    11    14    19    1
    12    13     7    1
    13     8     2    1
    14     7     1    1
    15     2     1    1
    16     2     3    1
    17     1    11    1
    18     9     3    1
    19     3     4    1
    20    11     5    1
    21     4     5    1
    22     4    10    1
    23     5     6    1
    24     6    12    1
