@<TRIPOS>MOLECULE
3v16_INS_A_1.pdb
 12 12 0 0 0
SMALL
GASTEIGER

@<TRIPOS>ATOM
      1  C1        18.1040  -24.2660   -3.3260 C.3   401  INS401      0.2175
      2  C2        17.0570  -23.1660   -3.5200 C.3   401  INS401      0.2175
      3  C3        16.7560  -22.4830   -2.1470 C.3   401  INS401      0.2175
      4  C4        18.0680  -21.9490   -1.4790 C.3   401  INS401      0.2175
      5  C5        18.9530  -23.1390   -1.1560 C.3   401  INS401      0.2175
      6  C6        19.3170  -23.7380   -2.5170 C.3   401  INS401      0.2175
      7  O1        18.6040  -24.7310   -4.6050 O.3   401  INS401     -0.2175
      8  O2        17.4920  -22.2310   -4.5650 O.3   401  INS401     -0.2175
      9  O3        15.7480  -21.4810   -2.2480 O.3   401  INS401     -0.2175
     10  O4        17.8920  -21.2220   -0.2760 O.3   401  INS401     -0.2175
     11  O5        20.1330  -22.7960   -0.4270 O.3   401  INS401     -0.2175
     12  O6        20.2920  -24.7490   -2.3500 O.3   401  INS401     -0.2175
@<TRIPOS>BOND
     1     7     1    1
     2     8     2    1
     3     2     1    1
     4     2     3    1
     5     1     6    1
     6     6    12    1
     7     6     5    1
     8     9     3    1
     9     3     4    1
    10     4     5    1
    11     4    10    1
    12     5    11    1
