@<TRIPOS>MOLECULE
3v17_AKG_A_1.pdb
 10 9 0 0 0
SMALL
GASTEIGER

@<TRIPOS>ATOM
      1  C1       -47.5080   25.8500   30.7360 C.2   279  AKG279      0.4219
      2  O1       -46.6090   26.1820   29.9210 O.co2 279  AKG279     -0.2373
      3  O2       -47.4530   24.8420   31.4710 O.co2 279  AKG279     -0.2373
      4  C2       -48.6140   26.8980   31.0000 C.2   279  AKG279      0.2526
      5  O5       -48.7850   27.8290   30.2550 O.2   279  AKG279     -0.2843
      6  C3       -49.5530   26.6510   32.1620 C.3   279  AKG279      0.0881
      7  C4       -50.1500   25.2540   32.1240 C.3   279  AKG279      0.1224
      8  C5       -51.3820   25.2160   31.2080 C.2   279  AKG279      0.3653
      9  O3       -52.4720   24.8590   31.7300 O.co2 279  AKG279     -0.2456
     10  O4       -51.3030   25.7180   30.0580 O.co2 279  AKG279     -0.2456
@<TRIPOS>BOND
     1     2     1   ar
     2    10     8   ar
     3     5     4    2
     4     1     4    1
     5     1     3   ar
     6     4     6    1
     7     8     9   ar
     8     8     7    1
     9     7     6    1
