@<TRIPOS>MOLECULE
3v1h_INS_A_1.pdb
 12 12 0 0 0
SMALL
GASTEIGER

@<TRIPOS>ATOM
      1  C1        -5.3960   27.2890   -0.8440 C.3   401  INS401      0.2175
      2  C2        -4.0140   27.7980   -1.1470 C.3   401  INS401      0.2175
      3  C3        -3.2850   27.9490    0.2050 C.3   401  INS401      0.2175
      4  C4        -3.2620   26.6130    1.0080 C.3   401  INS401      0.2175
      5  C5        -4.7020   26.2650    1.3090 C.3   401  INS401      0.2175
      6  C6        -5.3690   26.0160   -0.0190 C.3   401  INS401      0.2175
      7  O1        -6.1240   27.0160   -2.0430 O.3   401  INS401     -0.2175
      8  O2        -3.3150   26.9550   -2.1310 O.3   401  INS401     -0.2175
      9  O3        -2.0090   28.5760    0.0490 O.3   401  INS401     -0.2175
     10  O4        -2.6640   26.6830    2.2790 O.3   401  INS401     -0.2175
     11  O5        -4.9060   25.1890    2.2210 O.3   401  INS401     -0.2175
     12  O6        -6.6890   25.6690    0.2950 O.3   401  INS401     -0.2175
@<TRIPOS>BOND
     1     8     2    1
     2     7     1    1
     3     2     1    1
     4     2     3    1
     5     1     6    1
     6     6    12    1
     7     6     5    1
     8     9     3    1
     9     3     4    1
    10     4     5    1
    11     4    10    1
    12     5    11    1
