@<TRIPOS>MOLECULE
3v1m_HPK_A_1.pdb
 16 16 0 0 0
SMALL
GASTEIGER

@<TRIPOS>ATOM
      1  CB3        4.0110   14.1700  -15.3780 C.ar  288  HPK288      0.0001
      2  CB4        3.8200   12.9200  -14.7920 C.ar  288  HPK288      0.0000
      3  CB5        2.6050   12.2650  -14.9540 C.ar  288  HPK288      0.0001
      4  CB6        1.5790   12.8520  -15.6890 C.ar  288  HPK288      0.0032
      5  CB1        1.7840   14.0880  -16.2870 C.ar  288  HPK288      0.0390
      6  CB2        2.9930   14.7540  -16.1140 C.ar  288  HPK288      0.0032
      7  CA6        0.6940   14.7510  -17.0630 C.2   288  HPK288      0.1956
      8  OA4        0.5810   16.0580  -16.8940 O.2   288  HPK288     -0.2866
      9  CA5       -0.1600   14.0650  -17.8500 C.2   288  HPK288      0.0421
     10  CA4       -1.2230   14.7590  -18.5920 C.2   288  HPK288      0.0068
     11  CA3       -1.9940   14.1020  -19.4560 C.2   288  HPK288      0.0491
     12  CA2       -3.0690   14.7260  -20.2830 C.2   288  HPK288      0.2747
     13  OA3       -3.6420   14.0240  -21.0930 O.2   288  HPK288     -0.2795
     14  CA1       -3.4890   16.1280  -20.2370 C.2   288  HPK288      0.4260
     15  OA2       -2.6750   17.0160  -19.9490 O.co2 288  HPK288     -0.2369
     16  OA1       -4.6800   16.4220  -20.5160 O.co2 288  HPK288     -0.2369
@<TRIPOS>BOND
     1    13    12    2
     2    16    14   ar
     3    12    14    1
     4    12    11    1
     5    14    15   ar
     6    11    10    2
     7    10     9    1
     8     9     7    2
     9     7     8    1
    10     7     5    1
    11     5     6   ar
    12     5     4   ar
    13     6     1   ar
    14     4     3   ar
    15     1     2   ar
    16     3     2   ar
