@<TRIPOS>MOLECULE
3v1n_HPK_A_1.pdb
 16 16 0 0 0
SMALL
GASTEIGER

@<TRIPOS>ATOM
      1  CB3      -12.1060   13.2690  -24.5710 C.ar  289  HPK289      0.0001
      2  CB4      -13.0970   13.1800  -23.5980 C.ar  289  HPK289      0.0000
      3  CB5      -13.0140   13.9450  -22.4450 C.ar  289  HPK289      0.0001
      4  CB6      -11.9550   14.8140  -22.2440 C.ar  289  HPK289      0.0032
      5  CB1      -10.9350   14.8920  -23.2020 C.ar  289  HPK289      0.0386
      6  CB2      -11.0310   14.1350  -24.3780 C.ar  289  HPK289      0.0032
      7  CA6       -9.7760   15.8290  -23.0480 C.2   289  HPK289      0.1914
      8  OA4       -8.9390   15.9410  -24.0450 O.2   289  HPK289     -0.2869
      9  CA5       -9.5530   16.6450  -21.9890 C.2   289  HPK289      0.0163
     10  CA4       -8.3270   17.4580  -22.0090 C.3   289  HPK289      0.0377
     11  CA3       -7.7830   17.8610  -20.8790 C.3   289  HPK289      0.0810
     12  CA2       -6.4470   18.4850  -21.0190 C.2   289  HPK289      0.2523
     13  OA3       -6.3320   19.3450  -21.8850 O.2   289  HPK289     -0.2843
     14  CA1       -5.2660   17.9870  -20.3210 C.2   289  HPK289      0.4219
     15  OA2       -4.6990   18.6920  -19.4690 O.co2 289  HPK289     -0.2373
     16  OA1       -4.8590   16.8320  -20.6100 O.co2 289  HPK289     -0.2373
@<TRIPOS>BOND
     1     1     6   ar
     2     1     2   ar
     3     6     5   ar
     4     8     7    1
     5     2     3   ar
     6     5     7    1
     7     5     4   ar
     8     7     9    2
     9     3     4   ar
    10    10     9    1
    11    10    11    1
    12    13    12    2
    13    12    11    1
    14    12    14    1
    15    16    14   ar
    16    14    15   ar
