@<TRIPOS>MOLECULE
3v1p_BMP_A_1.pdb
 22 23 0 0 0
SMALL
GASTEIGER

@<TRIPOS>ATOM
      1  P         25.1240   -2.3640    8.2980 P.3   229  BMP229      0.5327
      2  OP1       24.3540   -3.1030    7.2640 O.2   229  BMP229     -0.2224
      3  OP2       25.8210   -3.3220    9.3530 O.3   229  BMP229     -0.1145
      4  OP3       26.1680   -1.4100    7.5930 O.3   229  BMP229     -0.1145
      5  O5'       24.1810   -1.4840    9.2220 O.3   229  BMP229     -0.2675
      6  C5'       23.0200   -0.8490    8.7170 C.3   229  BMP229      0.1859
      7  C4'       22.3010   -0.1520    9.8360 C.3   229  BMP229      0.1801
      8  O4'       21.2310    0.6460    9.2890 O.3   229  BMP229     -0.3319
      9  C3'       21.6720   -1.0770   10.8710 C.3   229  BMP229      0.2158
     10  O3'       21.6790   -0.4380   12.1460 O.3   229  BMP229     -0.2175
     11  C2'       20.2370   -1.2060   10.3820 C.3   229  BMP229      0.2320
     12  O2'       19.3130   -1.5120   11.4130 O.3   229  BMP229     -0.2157
     13  C1'       19.9810    0.1810    9.7620 C.3   229  BMP229      0.2425
     14  N1        19.0550    0.1820    8.6100 N.am  229  BMP229     -0.1473
     15  C2        19.2040   -0.6170    7.5300 C.1   229  BMP229      0.2863
     16  O2        20.1110   -1.4290    7.4240 O.2   229  BMP229     -0.1918
     17  N3        18.3310   -0.5380    6.5020 N.2   229  BMP229     -0.2489
     18  C4        17.2860    0.3250    6.4900 C.1   229  BMP229      0.2018
     19  O4        16.5270    0.3440    5.5120 O.2   229  BMP229     -0.2129
     20  C5        17.1120    1.1920    7.5790 C.3   229  BMP229      0.2213
     21  C6        18.0120    1.0970    8.6090 C.2   229  BMP229      0.2591
     22  O1        17.9210    1.9110    9.6540 O.2   229  BMP229     -0.2725
@<TRIPOS>BOND
     1    19    18    2
     2    18    17    2
     3    18    20    1
     4    17    15    2
     5     2     1    2
     6    16    15    2
     7    15    14   am
     8    20    21    1
     9     4     1    1
    10     1     5    1
    11     1     3    1
    12    21    14   am
    13    21    22    2
    14    14    13    1
    15     6     5    1
    16     6     7    1
    17     8    13    1
    18     8     7    1
    19    13    11    1
    20     7     9    1
    21    11     9    1
    22    11    12    1
    23     9    10    1
