@<TRIPOS>MOLECULE
3v1r_JTH_A_1.pdb
 13 13 0 0 0
SMALL
GASTEIGER

@<TRIPOS>ATOM
      1  C1        -5.3700  -36.7650    2.7820 C.3   675  JTH675      0.2121
      2  O1        -5.1830  -36.3220    1.4790 O.3   675  JTH675     -0.2177
      3  C2        -5.2210  -38.2830    2.8020 C.3   675  JTH675      0.1847
      4  O2        -4.6070  -38.7020    1.6180 O.3   675  JTH675     -0.2203
      5  C3        -6.5090  -39.0180    2.9730 C.3   675  JTH675      0.0356
      6  C4        -6.9370  -39.0630    4.4390 C.3   675  JTH675      0.0027
      7  C5        -7.7940  -37.8970    4.8080 C.3   675  JTH675      0.0028
      8  C6        -7.0410  -36.6140    4.7090 C.3   675  JTH675      0.0356
      9  C7        -6.6950  -36.2280    3.2850 C.3   675  JTH675      0.1847
     10  O7        -6.6570  -34.8390    3.2010 O.3   675  JTH675     -0.2203
     11  C41       -9.1620  -40.2250    4.9190 C.3   675  JTH675      0.0000
     12  C42       -7.6610  -40.3820    4.7330 C.3   675  JTH675      0.0001
     13  C43       -6.9970  -41.1990    5.8300 C.3   675  JTH675      0.0000
@<TRIPOS>BOND
     1     2     1    1
     2     4     3    1
     3     1     3    1
     4     1     9    1
     5     3     5    1
     6     5     6    1
     7    10     9    1
     8     9     8    1
     9     6    12    1
    10     6     7    1
    11     8     7    1
    12    12    11    1
    13    12    13    1
