@<TRIPOS>MOLECULE
3v1u_NAD_A_1.pdb
 44 48 0 0 0
SMALL
GASTEIGER

@<TRIPOS>ATOM
      1  PA        48.5390  -23.0360  -18.0850 P.3   501  NAD501      0.2189
      2  O1A       48.7920  -23.7060  -19.4700 O.2   501  NAD501     -0.5170
      3  O2A       49.6440  -23.2790  -17.0820 O.3   501  NAD501     -0.4371
      4  O5B       47.1700  -23.5620  -17.4020 O.3   501  NAD501     -0.3112
      5  C5B       46.1080  -24.1200  -18.1580 C.3   501  NAD501      0.1813
      6  C4B       45.6400  -25.4470  -17.6730 C.3   501  NAD501      0.1821
      7  O4B       44.4590  -25.7450  -18.4750 O.3   501  NAD501     -0.3135
      8  C3B       46.5950  -26.5410  -17.8390 C.3   501  NAD501      0.2184
      9  O3B       46.7000  -27.3350  -16.6670 O.3   501  NAD501     -0.2174
     10  C2B       45.9770  -27.3940  -18.8800 C.3   501  NAD501      0.2570
     11  O2B       46.2360  -28.7370  -18.5810 O.3   501  NAD501     -0.2130
     12  C1B       44.5440  -27.1090  -18.7090 C.3   501  NAD501      0.3186
     13  N9A       43.7940  -27.4490  -19.9120 N.pl3 501  NAD501     -0.1439
     14  C8A       44.1760  -27.1380  -21.1340 C.3   501  NAD501      0.3377
     15  N7A       43.2680  -27.6350  -21.9900 N.2   501  NAD501     -0.2095
     16  C5A       42.3120  -28.2530  -21.2610 C.2   501  NAD501      0.2526
     17  C6A       41.1500  -28.9650  -21.5790 C.2   501  NAD501      0.4393
     18  N6A       40.7810  -29.0820  -22.9260 N.pl3 501  NAD501      0.2180
     19  N1A       40.3760  -29.4860  -20.5890 N.2   501  NAD501      0.0021
     20  C2A       40.7260  -29.3640  -19.2830 C.3   501  NAD501      0.5254
     21  N3A       41.8550  -28.7030  -18.9760 N.2   501  NAD501     -0.0055
     22  C4A       42.6470  -28.1410  -19.9280 C.2   501  NAD501      0.3518
     23  O3        48.3500  -21.5120  -18.3840 O.3   501  NAD501     -0.2703
     24  PN        47.8380  -20.3960  -17.4300 P.3   501  NAD501      0.2189
     25  O1N       48.9460  -19.3330  -17.5010 O.2   501  NAD501     -0.5170
     26  O2N       47.5480  -20.7750  -16.0000 O.3   501  NAD501     -0.4371
     27  O5D       46.5670  -19.7820  -18.1710 O.3   501  NAD501     -0.3112
     28  C5D       45.3600  -19.6000  -17.5180 C.3   501  NAD501      0.1813
     29  C4D       44.2250  -18.9090  -18.1920 C.3   501  NAD501      0.1799
     30  O4D       44.3850  -17.4930  -18.2300 O.3   501  NAD501     -0.3327
     31  C3D       44.1220  -19.3330  -19.5840 C.3   501  NAD501      0.2158
     32  O3D       42.7610  -19.3780  -19.9590 O.3   501  NAD501     -0.2175
     33  C2D       44.8190  -18.3330  -20.3170 C.3   501  NAD501      0.2309
     34  O2D       44.3880  -18.3210  -21.6160 O.3   501  NAD501     -0.2158
     35  C1D       44.5250  -17.0940  -19.5460 C.3   501  NAD501      0.2263
     36  N1N       45.5710  -16.0420  -19.6870 N.pl3 501  NAD501     -0.2790
     37  C2N       46.8260  -16.2870  -19.2930 C.3   501  NAD501      0.1194
     38  C3N       47.8390  -15.3160  -19.4190 C.2   501  NAD501      0.0235
     39  C7N       49.2360  -15.6780  -19.0070 C.3   501  NAD501      0.2621
     40  O7N       49.2470  -16.7690  -18.1540 O.3   501  NAD501     -0.1974
     41  N7N       50.0290  -14.5110  -18.5700 N.3   501  NAD501     -0.0923
     42  C4N       47.5470  -14.0500  -19.9810 C.2   501  NAD501     -0.0017
     43  C5N       46.2370  -13.8200  -20.3780 C.2   501  NAD501      0.0154
     44  C6N       45.2620  -14.8340  -20.2240 C.2   501  NAD501      0.0633
@<TRIPOS>BOND
     1    18    17    1
     2    15    16    2
     3    15    14    1
     4    34    33    1
     5    17    16    1
     6    17    19    2
     7    16    22    1
     8    14    13    1
     9    19    20    1
    10    43    44    2
    11    43    42    1
    12    33    31    1
    13    33    35    1
    14    44    36    1
    15    42    38    2
    16    32    31    1
    17    22    13    1
    18    22    21    2
    19    13    12    1
    20    36    35    1
    21    36    37    1
    22    31    29    1
    23    35    30    1
    24     2     1    2
    25    38    37    1
    26    38    39    1
    27    20    21    1
    28    39    41    1
    29    39    40    1
    30    10    12    1
    31    10    11    1
    32    10     8    1
    33    12     7    1
    34     7     6    1
    35    23     1    1
    36    23    24    1
    37    30    29    1
    38    29    28    1
    39    27    28    1
    40    27    24    1
    41     5     6    1
    42     5     4    1
    43     1     4    1
    44     1     3    1
    45     8     6    1
    46     8     9    1
    47    25    24    2
    48    24    26    1
