@<TRIPOS>MOLECULE
3v1u_ZPG_A_1.pdb
 13 12 0 0 0
SMALL
GASTEIGER

@<TRIPOS>ATOM
      1  O29       14.7340  -15.4650  -11.1330 O.3   503  ZPG503     -0.2205
      2  C27       13.7020  -14.9230  -10.2980 C.3   503  ZPG503      0.1815
      3  C28       13.2500  -15.9720   -9.2590 C.3   503  ZPG503      0.0382
      4  C24       14.1850  -13.6290   -9.5980 C.3   503  ZPG503      0.1748
      5  O23       15.3690  -13.1340  -10.2480 O.3   503  ZPG503     -0.3510
      6  C22       15.2310  -11.7630  -10.6740 C.3   503  ZPG503      0.1449
      7  C26       15.1880  -11.6470  -12.2080 C.3   503  ZPG503      0.0347
      8  C21       16.4300  -10.9470  -10.1560 C.3   503  ZPG503      0.1715
      9  O20       16.0580  -10.0780   -9.0620 O.3   503  ZPG503     -0.3510
     10  C20       15.2790   -8.9230   -9.4670 C.3   503  ZPG503      0.1483
     11  C25       15.9110   -8.1910  -10.6700 C.3   503  ZPG503      0.0349
     12  C18       15.1260   -7.9590   -8.2760 C.3   503  ZPG503      0.2114
     13  O17       15.8690   -8.4790   -7.1650 O.3   503  ZPG503     -0.2177
@<TRIPOS>BOND
     1     7     6    1
     2     1     2    1
     3     6     5    1
     4     6     8    1
     5    11    10    1
     6     2     4    1
     7     2     3    1
     8     5     4    1
     9     8     9    1
    10    10     9    1
    11    10    12    1
    12    12    13    1
