@<TRIPOS>MOLECULE
3v1v_GST_A_1.pdb
 19 18 0 0 0
SMALL
GASTEIGER

@<TRIPOS>ATOM
      1  PA        21.5480   11.5330   -5.4360 P.3   511  GST511      0.5394
      2  O1A       22.8460   11.4860   -6.1140 O.3   511  GST511     -0.1143
      3  O2A       20.6150   12.1370   -6.3290 O.2   511  GST511     -0.2220
      4  O3A       21.2240   10.0800   -5.3050 O.3   511  GST511     -0.1143
      5  O1B       21.6950   12.1840   -3.9500 O.3   511  GST511     -0.1955
      6  PB        20.8150   13.3330   -3.2640 P.3   511  GST511      0.4270
      7  O2B       19.4310   13.4830   -3.9160 O.2   511  GST511     -0.2431
      8  O3B       20.5680   12.8980   -1.8960 O.3   511  GST511     -0.1310
      9  S1        21.7270   15.1570   -3.2430 S.3   511  GST511     -0.0285
     10  C1        23.5020   14.8980   -2.8390 C.3   511  GST511      0.0690
     11  C2        23.5960   14.8070   -1.3610 C.3   511  GST511      0.0122
     12  C3        23.4800   16.0220   -0.7620 C.3   511  GST511      0.0012
     13  C10       23.2300   17.2730   -1.5230 C.3   511  GST511      0.0000
     14  C4        23.5830   16.1680    0.6680 C.3   511  GST511      0.0047
     15  C5        24.7890   17.0490    0.8360 C.3   511  GST511      0.0254
     16  C6        25.8670   16.3210    0.1520 C.2   511  GST511     -0.0346
     17  C7        27.1320   16.4920    0.5000 C.2   511  GST511     -0.0478
     18  C9        28.0620   15.6870   -0.2990 C.3   511  GST511      0.0260
     19  C8        27.5960   17.3860    1.6140 C.3   511  GST511      0.0260
@<TRIPOS>BOND
     1     3     1    2
     2     2     1    1
     3     1     4    1
     4     1     5    1
     5     5     6    1
     6     7     6    2
     7     6     9    1
     8     6     8    1
     9     9    10    1
    10    10    11    1
    11    13    12    1
    12    11    12    1
    13    12    14    1
    14    18    17    1
    15    16    17    2
    16    16    15    1
    17    17    19    1
    18    14    15    1
