@<TRIPOS>MOLECULE
3v1x_0FV_A_1.pdb
 20 19 0 0 0
SMALL
GASTEIGER

@<TRIPOS>ATOM
      1  C1       -27.3150   34.7800    3.4400 C.3   503  0FV503      0.2044
      2  O1       -28.7580   34.8370    3.3940 O.3   503  0FV503     -0.3065
      3  C2       -26.8290   34.8020    2.0360 C.2   503  0FV503      0.1400
      4  F2       -26.3400   35.9900    1.5910 F     503  0FV503     -0.2069
      5  C3       -26.9170   33.7400    1.2620 C.2   503  0FV503     -0.0178
      6  C4       -27.4800   32.4460    1.7620 C.3   503  0FV503      0.0284
      7  C5       -26.4250   33.8320   -0.1510 C.3   503  0FV503      0.0287
      8  C6       -25.1700   32.9980   -0.2980 C.3   503  0FV503      0.0298
      9  C7       -23.9350   33.7570    0.0920 C.2   503  0FV503     -0.0342
     10  C8       -22.7380   33.4580   -0.3980 C.2   503  0FV503     -0.0478
     11  C9       -21.5420   34.2450    0.0480 C.3   503  0FV503      0.0260
     12  C10      -22.4970   32.3850   -1.4230 C.3   503  0FV503      0.0260
     13  PA       -29.2190   36.4020    3.3690 P.3   503  0FV503      0.2234
     14  O1A      -29.3460   36.8630    1.9870 O.2   503  0FV503     -0.5169
     15  O2A      -30.6410   36.4770    4.0640 O.3   503  0FV503     -0.4370
     16  O3A      -28.1120   37.3520    4.0920 O.3   503  0FV503     -0.2261
     17  PB       -28.3950   38.2460    5.4170 P.3   503  0FV503      0.5373
     18  O1B      -29.3190   37.8020    6.4850 O.3   503  0FV503     -0.1143
     19  O2B      -27.0350   38.2740    6.2480 O.3   503  0FV503     -0.1143
     20  O3B      -28.7640   39.7220    4.9330 O.2   503  0FV503     -0.2221
@<TRIPOS>BOND
     1    12    10    1
     2    10    11    1
     3    10     9    2
     4     8     7    1
     5     8     9    1
     6     7     5    1
     7     5     6    1
     8     5     3    2
     9     4     3    1
    10    14    13    2
    11     3     1    1
    12    13     2    1
    13    13    15    1
    14    13    16    1
    15     2     1    1
    16    16    17    1
    17    20    17    2
    18    17    19    1
    19    17    18    1
