@<TRIPOS>MOLECULE
3v1y_NAD_A_1.pdb
 44 48 0 0 0
SMALL
GASTEIGER

@<TRIPOS>ATOM
      1  PA        42.7880    9.3490  -19.1100 P.3   401  NAD401      0.2189
      2  O1A       41.7430    8.7600  -18.1860 O.3   401  NAD401     -0.4371
      3  O2A       43.1050   10.7440  -19.0700 O.2   401  NAD401     -0.5170
      4  O5B       44.1060    8.4200  -18.8710 O.3   401  NAD401     -0.3112
      5  C5B       45.3430    8.7640  -19.3820 C.3   401  NAD401      0.1813
      6  C4B       46.4450    8.5100  -18.3070 C.3   401  NAD401      0.1821
      7  O4B       47.7240    8.8700  -18.8660 O.3   401  NAD401     -0.3135
      8  C3B       46.2800    9.3660  -16.9970 C.3   401  NAD401      0.2184
      9  O3B       46.0810    8.5750  -15.8250 O.3   401  NAD401     -0.2174
     10  C2B       47.5570   10.1600  -16.9520 C.3   401  NAD401      0.2570
     11  O2B       48.0950   10.5440  -15.6430 O.3   401  NAD401     -0.2130
     12  C1B       48.5440    9.3120  -17.7480 C.3   401  NAD401      0.3186
     13  N9A       49.7150    9.9960  -18.3090 N.pl3 401  NAD401     -0.1439
     14  C8A       49.8200   11.2970  -18.8110 C.3   401  NAD401      0.3377
     15  N7A       51.0920   11.5790  -19.2460 N.2   401  NAD401     -0.2095
     16  C5A       51.7800   10.4580  -19.0190 C.2   401  NAD401      0.2526
     17  C6A       53.1800   10.0870  -19.2490 C.2   401  NAD401      0.4393
     18  N6A       54.0720   10.9530  -19.7890 N.pl3 401  NAD401      0.2180
     19  N1A       53.5460    8.8340  -18.8930 N.2   401  NAD401      0.0021
     20  C2A       52.7050    7.9260  -18.3450 C.3   401  NAD401      0.5254
     21  N3A       51.3650    8.1930  -18.0900 N.2   401  NAD401     -0.0055
     22  C4A       50.9190    9.4070  -18.4130 C.2   401  NAD401      0.3518
     23  O3        42.3960    8.9720  -20.6280 O.3   401  NAD401     -0.2703
     24  PN        41.6190    7.7580  -21.2950 P.3   401  NAD401      0.2189
     25  O1N       40.1880    8.1100  -21.3980 O.2   401  NAD401     -0.5170
     26  O2N       41.9700    6.5060  -20.5290 O.3   401  NAD401     -0.4371
     27  O5D       42.2560    7.7700  -22.7970 O.3   401  NAD401     -0.3112
     28  C5D       43.6630    7.4390  -22.9480 C.3   401  NAD401      0.1813
     29  C4D       43.8320    7.0500  -24.4400 C.3   401  NAD401      0.1799
     30  O4D       42.9110    6.0180  -24.8170 O.3   401  NAD401     -0.3327
     31  C3D       43.6100    8.2070  -25.4100 C.3   401  NAD401      0.2158
     32  O3D       44.5270    8.2360  -26.5240 O.3   401  NAD401     -0.2175
     33  C2D       42.1630    7.9890  -25.8440 C.3   401  NAD401      0.2309
     34  O2D       41.8260    8.7140  -27.0500 O.3   401  NAD401     -0.2158
     35  C1D       42.1110    6.4830  -25.9670 C.3   401  NAD401      0.2263
     36  N1N       40.7910    5.8100  -25.8470 N.pl3 401  NAD401     -0.2787
     37  C2N       39.8010    6.2130  -24.8740 C.3   401  NAD401      0.1244
     38  C3N       38.5400    5.5720  -24.7390 C.2   401  NAD401      0.0544
     39  C7N       37.5290    6.0430  -23.6940 C.2   401  NAD401      0.2818
     40  O7N       36.3290    5.9470  -24.0370 O.2   401  NAD401     -0.2670
     41  N7N       37.9020    6.5090  -22.4990 N.am  401  NAD401     -0.0839
     42  C4N       38.2320    4.4310  -25.6120 C.2   401  NAD401      0.0033
     43  C5N       39.2390    4.0730  -26.5970 C.2   401  NAD401      0.0157
     44  C6N       40.5090    4.7260  -26.7210 C.2   401  NAD401      0.0633
@<TRIPOS>BOND
     1    34    33    1
     2    44    43    2
     3    44    36    1
     4    43    42    1
     5    32    31    1
     6    35    36    1
     7    35    33    1
     8    35    30    1
     9    36    37    1
    10    33    31    1
    11    42    38    2
    12    31    29    1
    13    37    38    1
    14    30    29    1
    15    38    39    1
    16    29    28    1
    17    40    39    2
    18    39    41   am
    19    28    27    1
    20    27    24    1
    21    25    24    2
    22    24    23    1
    23    24    26    1
    24    23     1    1
    25    18    17    1
    26     5     4    1
    27     5     6    1
    28    17    16    1
    29    17    19    2
    30    15    16    2
    31    15    14    1
    32     1     3    2
    33     1     4    1
    34     1     2    1
    35    16    22    1
    36    19    20    1
    37     7     6    1
    38     7    12    1
    39    14    13    1
    40    22    13    1
    41    22    21    2
    42    20    21    1
    43    13    12    1
    44     6     8    1
    45    12    10    1
    46     8    10    1
    47     8     9    1
    48    10    11    1
