@<TRIPOS>MOLECULE
3v2b_AR6_A_1.pdb
 36 39 0 0 0
SMALL
GASTEIGER

@<TRIPOS>ATOM
      1  N1        15.0790   17.2910   -0.1340 N.2   800  AR6800      0.0021
      2  C2        14.1510   16.8160   -0.9250 C.3   800  AR6800      0.5254
      3  N3        13.0160   17.4730   -1.1560 N.2   800  AR6800     -0.0055
      4  C4        12.7990   18.6470   -0.5650 C.2   800  AR6800      0.3518
      5  C5        13.7510   19.1950    0.2930 C.2   800  AR6800      0.2526
      6  C6        14.9120   18.4810    0.4960 C.2   800  AR6800      0.4393
      7  N6        15.8710   18.9110    1.2680 N.pl3 800  AR6800      0.2180
      8  N7        13.2760   20.3540    0.7280 N.2   800  AR6800     -0.2095
      9  C8        12.0590   20.5230    0.2220 C.3   800  AR6800      0.3377
     10  N9        11.7770   19.4690   -0.5790 N.pl3 800  AR6800     -0.1439
     11  PA        10.0160   23.6200   -3.8640 P.3   800  AR6800      0.2189
     12  PB         8.8710   23.5440   -6.5080 P.3   800  AR6800      0.2189
     13  C1'       10.5370   19.2690   -1.3570 C.3   800  AR6800      0.3186
     14  O1A       11.4360   23.6380   -3.5320 O.2   800  AR6800     -0.5170
     15  O1B        9.3810   22.6910   -7.6530 O.2   800  AR6800     -0.5170
     16  C1D        7.9750   27.0530   -9.9430 C.3   800  AR6800      0.3023
     17  O1D        8.3030   27.8920  -11.0470 O.3   800  AR6800     -0.1869
     18  C2'        9.4170   20.1680   -0.9380 C.3   800  AR6800      0.2570
     19  O2'        8.8580   19.7260    0.3080 O.3   800  AR6800     -0.2130
     20  O2A        9.0410   24.6370   -3.3690 O.3   800  AR6800     -0.4371
     21  O2B        7.5580   23.3500   -5.9240 O.3   800  AR6800     -0.4371
     22  C2D        7.6400   27.9940   -8.8020 C.3   800  AR6800      0.2433
     23  O2D        7.8900   29.3060   -9.2550 O.3   800  AR6800     -0.2148
     24  C3'        8.4650   19.9240   -2.0970 C.3   800  AR6800      0.2184
     25  O3'        7.7550   18.7020   -1.8950 O.3   800  AR6800     -0.2174
     26  O3A       10.0780   23.4960   -5.4770 O.3   800  AR6800     -0.2703
     27  C3D        8.6460   27.6390   -7.7160 C.3   800  AR6800      0.2168
     28  O3D        9.1960   28.8300   -7.1860 O.3   800  AR6800     -0.2175
     29  C4'        9.4340   19.7750   -3.2590 C.3   800  AR6800      0.1821
     30  O4'       10.7570   19.7550   -2.6660 O.3   800  AR6800     -0.3135
     31  C4D        9.7420   26.8530   -8.4180 C.3   800  AR6800      0.1807
     32  O4D        9.1430   26.3160   -9.5680 O.3   800  AR6800     -0.3237
     33  C5'        9.4520   20.9990   -4.2020 C.3   800  AR6800      0.1813
     34  O5'        9.3760   22.1930   -3.4290 O.3   800  AR6800     -0.3112
     35  C5D       10.1230   25.6190   -7.5330 C.3   800  AR6800      0.1813
     36  O5D        8.9420   25.0400   -7.0320 O.3   800  AR6800     -0.3112
@<TRIPOS>BOND
     1    17    16    1
     2    16    32    1
     3    16    22    1
     4    32    31    1
     5    23    22    1
     6    22    27    1
     7    31    27    1
     8    31    35    1
     9    27    28    1
    10    15    12    2
    11    35    36    1
    12    36    12    1
    13    12    21    1
    14    12    26    1
    15    26    11    1
    16    33    34    1
    17    33    29    1
    18    11    14    2
    19    11    34    1
    20    11    20    1
    21    29    30    1
    22    29    24    1
    23    30    13    1
    24    24    25    1
    25    24    18    1
    26    13    18    1
    27    13    10    1
    28     3     2    1
    29     3     4    2
    30    18    19    1
    31     2     1    1
    32    10     4    1
    33    10     9    1
    34     4     5    1
    35     1     6    2
    36     9     8    1
    37     5     6    1
    38     5     8    2
    39     6     7    1
