@<TRIPOS>MOLECULE
3v2j_AZM_A_1.pdb
 13 13 0 0 0
SMALL
GASTEIGER

@<TRIPOS>ATOM
      1  C1        -5.2000    2.2110   16.0000 C.ar  302  AZM302      0.2590
      2  C2        -4.4590    4.0170   14.7640 C.ar  302  AZM302      0.2093
      3  C3        -5.2460    5.6220   13.4680 C.2   302  AZM302      0.2478
      4  C4        -4.6750    6.7440   12.5760 C.3   302  AZM302      0.0969
      5  N1        -5.3790   -0.4210   16.3160 N.3   302  AZM302      0.0413
      6  N2        -3.5060    3.2560   15.2580 N.ar  302  AZM302     -0.1222
      7  N3        -3.8720    2.2730   15.9480 N.ar  302  AZM302     -0.1189
      8  N4        -4.1510    5.1090   14.0240 N.am  302  AZM302     -0.1528
      9  O1        -5.4750    1.1060   18.2580 O.2   302  AZM302     -0.1483
     10  O2        -7.4320    1.2480   16.6760 O.2   302  AZM302     -0.1483
     11  O3        -6.4730    5.6130   13.5920 O.2   302  AZM302     -0.2729
     12  S1        -6.0060    0.9490   16.8880 S.O2  302  AZM302      0.1178
     13  S2        -6.0070    3.4790   15.1800 S.2   302  AZM302     -0.0087
@<TRIPOS>BOND
     1     4     3    1
     2     3    11    2
     3     3     8   am
     4     8     2    1
     5     2    13   ar
     6     2     6   ar
     7    13     1   ar
     8     6     7   ar
     9     7     1   ar
    10     1    12    1
    11     5    12    1
    12    10    12    2
    13    12     9    2
