@<TRIPOS>MOLECULE
3v2k_ADE_A_1.pdb
 10 11 0 0 0
SMALL
GASTEIGER

@<TRIPOS>ATOM
      1  N9        -3.9620  -22.2680   -5.0140 N.2   248  ADE248     -0.1914
      2  C8        -4.7380  -21.3320   -5.6270 C.3   248  ADE248      0.2618
      3  N7        -5.6110  -20.7860   -4.7390 N.2   248  ADE248     -0.2267
      4  C5        -5.4100  -21.3680   -3.5370 C.2   248  ADE248      0.2303
      5  C6        -5.9980  -21.2500   -2.1740 C.2   248  ADE248      0.4393
      6  N6        -7.0130  -20.3760   -1.9290 N.pl3 248  ADE248      0.2185
      7  N1        -5.4890  -22.0310   -1.1840 N.2   248  ADE248     -0.0265
      8  C2        -4.4830  -22.9160   -1.4150 C.3   248  ADE248      0.4008
      9  N3        -3.9100  -23.0840   -2.6360 N.2   248  ADE248     -0.1640
     10  C4        -4.3180  -22.3460   -3.7190 C.1   248  ADE248      0.0579
@<TRIPOS>BOND
     1     2     1    1
     2     2     3    1
     3     1    10    2
     4     3     4    2
     5    10     4    1
     6    10     9    2
     7     4     5    1
     8     9     8    1
     9     5     6    1
    10     5     7    2
    11     8     7    1
