@<TRIPOS>MOLECULE
3v2l_PG4_A_1.pdb
 13 12 0 0 0
SMALL
GASTEIGER

@<TRIPOS>ATOM
      1  O1        -1.7890    7.0760  -23.0650 O.3   121  PG4121     -0.2176
      2  C1        -1.4520    6.8690  -21.6850 C.3   121  PG4121      0.2140
      3  C2         0.0220    7.1700  -21.4050 C.3   121  PG4121      0.1777
      4  O2         0.3050    6.8520  -20.0400 O.3   121  PG4121     -0.3483
      5  C3         1.3680    5.9380  -19.8980 C.3   121  PG4121      0.1742
      6  C4         1.3430    5.3280  -18.5040 C.3   121  PG4121      0.1742
      7  O3         1.4470    6.3440  -17.4980 O.3   121  PG4121     -0.3484
      8  C5         2.0190    5.7760  -16.3140 C.3   121  PG4121      0.1742
      9  C6         1.3830    6.3190  -15.0410 C.3   121  PG4121      0.1742
     10  O4         1.5900    5.3780  -13.9840 O.3   121  PG4121     -0.3483
     11  C7         1.8940    6.0070  -12.7410 C.3   121  PG4121      0.1777
     12  C8         2.2810    4.9530  -11.7100 C.3   121  PG4121      0.2140
     13  O5         3.0000    5.5910  -10.6440 O.3   121  PG4121     -0.2176
@<TRIPOS>BOND
     1     1     2    1
     2     2     3    1
     3     3     4    1
     4     4     5    1
     5     5     6    1
     6     6     7    1
     7     7     8    1
     8     8     9    1
     9     9    10    1
    10    10    11    1
    11    11    12    1
    12    12    13    1
