@<TRIPOS>MOLECULE
3v2m_AZM_A_1.pdb
 13 13 0 0 0
SMALL
GASTEIGER

@<TRIPOS>ATOM
      1  C1        -5.1540    2.3370   15.9330 C.ar  303  AZM303      0.2590
      2  C2        -4.6360    4.3040   14.5720 C.ar  303  AZM303      0.2093
      3  C3        -5.7680    6.0280   13.1420 C.2   303  AZM303      0.2478
      4  C4        -5.6900    7.2280   12.2440 C.3   303  AZM303      0.0969
      5  N1        -5.3930   -0.4220   16.1790 N.3   303  AZM303      0.0413
      6  N2        -3.4900    3.6730   15.0100 N.ar  303  AZM303     -0.1222
      7  N3        -3.7880    2.5110   15.8350 N.ar  303  AZM303     -0.1189
      8  N4        -4.5960    5.4690   13.7350 N.am  303  AZM303     -0.1528
      9  O1        -5.5790    1.1160   18.2340 O.2   303  AZM303     -0.1483
     10  O2        -7.3640    1.2230   16.6380 O.2   303  AZM303     -0.1483
     11  O3        -6.8470    5.5170   13.3800 O.2   303  AZM303     -0.2729
     12  S1        -5.9090    1.0160   16.8230 S.O2  303  AZM303      0.1178
     13  S2        -5.9880    3.5080   15.1100 S.2   303  AZM303     -0.0087
@<TRIPOS>BOND
     1     4     3    1
     2     3    11    2
     3     3     8   am
     4     8     2    1
     5     2     6   ar
     6     2    13   ar
     7     6     7   ar
     8    13     1   ar
     9     7     1   ar
    10     1    12    1
    11     5    12    1
    12    10    12    2
    13    12     9    2
