@<TRIPOS>MOLECULE
3v2t_THP_A_1.pdb
 25 26 0 0 0
SMALL
GASTEIGER

@<TRIPOS>ATOM
      1  P2        17.9040   15.8730    4.7490 P.3   151  THP151      0.5327
      2  O4P       17.9280   14.3640    5.0810 O.2   151  THP151     -0.2224
      3  O5P       16.7270   16.5200    5.2920 O.3   151  THP151     -0.1145
      4  O6P       19.1540   16.5900    5.2760 O.3   151  THP151     -0.1145
      5  P1        21.1900   19.3020    0.9250 P.3   151  THP151      0.5326
      6  O1P       22.2720   19.9750    0.0390 O.2   151  THP151     -0.2224
      7  O2P       21.8230   18.2900    1.7610 O.3   151  THP151     -0.1145
      8  O3P       20.5150   20.2670    1.9290 O.3   151  THP151     -0.1145
      9  O5'       17.8780   15.9200    3.1860 O.3   151  THP151     -0.2675
     10  C5'       17.8870   17.2070    2.5940 C.3   151  THP151      0.1857
     11  C4'       18.9040   17.1370    1.4250 C.3   151  THP151      0.1748
     12  O4'       18.5580   16.0160    0.6140 O.3   151  THP151     -0.3340
     13  C3'       18.8670   18.3600    0.4480 C.3   151  THP151      0.1600
     14  O3'       20.1720   18.6300   -0.1110 O.3   151  THP151     -0.2700
     15  C2'       17.9490   17.8380   -0.6860 C.3   151  THP151      0.0847
     16  C1'       18.2660   16.3210   -0.7450 C.3   151  THP151      0.2089
     17  N1        16.9830   15.7050   -1.1570 N.am  151  THP151     -0.1794
     18  C2        16.7060   15.5010   -2.4640 C.1   151  THP151      0.2844
     19  O2        17.5610   15.7690   -3.2910 O.2   151  THP151     -0.1918
     20  N3        15.5480   14.9660   -2.8730 N.2   151  THP151     -0.2455
     21  C4        14.5820   14.7110   -1.9440 C.1   151  THP151      0.2134
     22  O4        13.5260   14.2790   -2.2780 O.2   151  THP151     -0.2088
     23  C5        14.8530   14.9040   -0.5660 C.2   151  THP151      0.0891
     24  C5M       13.7830   14.5770    0.4330 C.3   151  THP151      0.0462
     25  C6        16.0620   15.4040   -0.1930 C.2   151  THP151      0.0877
@<TRIPOS>BOND
     1    19    18    2
     2    20    18    2
     3    20    21    2
     4    18    17   am
     5    22    21    2
     6    21    23    1
     7    17    16    1
     8    17    25    1
     9    16    15    1
    10    16    12    1
    11    15    13    1
    12    23    25    2
    13    23    24    1
    14    14    13    1
    15    14     5    1
    16     6     5    2
    17    13    11    1
    18    12    11    1
    19     5     7    1
    20     5     8    1
    21    11    10    1
    22    10     9    1
    23     9     1    1
    24     1     2    2
    25     1     4    1
    26     1     3    1
