@<TRIPOS>MOLECULE
3v2u_ATP_C_1.pdb
 31 33 0 0 0
SMALL
GASTEIGER

@<TRIPOS>ATOM
      1  PG       -46.7970   35.9720  -44.5940 P.3   523  ATP523      0.5373
      2  O1G      -45.3100   35.8420  -44.5100 O.3   523  ATP523     -0.1143
      3  O2G      -47.3370   35.9530  -43.1970 O.3   523  ATP523     -0.1143
      4  O3G      -47.1330   37.3410  -45.2650 O.2   523  ATP523     -0.2221
      5  PB       -48.7470   34.3570  -45.7420 P.3   523  ATP523      0.2277
      6  O1B      -49.0880   34.6740  -47.1750 O.2   523  ATP523     -0.5168
      7  O2B      -49.8790   34.9430  -44.8460 O.3   523  ATP523     -0.4368
      8  O3B      -47.2810   34.8480  -45.4370 O.3   523  ATP523     -0.2258
      9  PA       -48.4090   32.0200  -44.2430 P.3   523  ATP523      0.2189
     10  O1A      -47.0160   31.4720  -44.3270 O.2   523  ATP523     -0.5170
     11  O2A      -48.4900   32.9080  -43.0820 O.3   523  ATP523     -0.4371
     12  O3A      -48.7930   32.7790  -45.5850 O.3   523  ATP523     -0.2700
     13  O5'      -49.4660   30.8080  -44.0880 O.3   523  ATP523     -0.3112
     14  C5'      -49.6330   29.8510  -45.1140 C.3   523  ATP523      0.1813
     15  C4'      -50.7290   28.9340  -44.9050 C.3   523  ATP523      0.1821
     16  O4'      -51.9040   29.5000  -45.3760 O.3   523  ATP523     -0.3135
     17  C3'      -50.5710   27.6670  -45.7070 C.3   523  ATP523      0.2184
     18  O3'      -49.7870   26.7650  -45.0080 O.3   523  ATP523     -0.2174
     19  C2'      -51.9090   27.2000  -45.8350 C.3   523  ATP523      0.2570
     20  O2'      -52.3150   26.5250  -44.6860 O.3   523  ATP523     -0.2130
     21  C1'      -52.7050   28.4530  -45.9440 C.3   523  ATP523      0.3186
     22  N9       -53.0850   28.7730  -47.2970 N.pl3 523  ATP523     -0.1439
     23  C8       -52.2510   28.9960  -48.3230 C.3   523  ATP523      0.3377
     24  N7       -52.9810   29.2580  -49.4160 N.2   523  ATP523     -0.2095
     25  C5       -54.2860   29.1920  -49.0810 C.2   523  ATP523      0.2526
     26  C6       -55.4900   29.3650  -49.7660 C.2   523  ATP523      0.4393
     27  N6       -55.4630   29.6900  -51.1940 N.pl3 523  ATP523      0.2180
     28  N1       -56.6710   29.2360  -49.1260 N.2   523  ATP523      0.0021
     29  C2       -56.6980   28.9360  -47.8130 C.3   523  ATP523      0.5254
     30  N3       -55.5630   28.7510  -47.1200 N.2   523  ATP523     -0.0055
     31  C4       -54.3620   28.8830  -47.7310 C.2   523  ATP523      0.3518
@<TRIPOS>BOND
     1    27    26    1
     2    26    28    2
     3    26    25    1
     4    24    25    2
     5    24    23    1
     6    28    29    1
     7    25    31    1
     8    23    22    1
     9    29    30    1
    10    31    22    1
    11    31    30    2
    12    22    21    1
    13     6     5    2
    14    21    19    1
    15    21    16    1
    16    19    17    1
    17    19    20    1
    18     5    12    1
    19     5     8    1
    20     5     7    1
    21    17    18    1
    22    17    15    1
    23    12     9    1
    24     8     1    1
    25    16    15    1
    26     4     1    2
    27    14    15    1
    28    14    13    1
    29     1     2    1
    30     1     3    1
    31    10     9    2
    32     9    13    1
    33     9    11    1
