@<TRIPOS>MOLECULE
3v2u_GLA_C_1.pdb
 12 12 0 0 0
SMALL
GASTEIGER

@<TRIPOS>ATOM
      1  C1       -45.3330   37.5690  -40.3420 C.3   522  GLA522      0.3024
      2  C2       -46.4210   38.1320  -39.4340 C.3   522  GLA522      0.2434
      3  C3       -46.3880   39.5900  -39.2300 C.3   522  GLA522      0.2199
      4  C4       -45.0870   40.1280  -39.2640 C.3   522  GLA522      0.2144
      5  C5       -44.3960   39.8500  -40.5630 C.3   522  GLA522      0.1836
      6  C6       -42.9770   40.2660  -40.5280 C.3   522  GLA522      0.2142
      7  O1       -45.8420   36.6800  -41.2670 O.3   522  GLA522     -0.1869
      8  O2       -47.7260   37.6600  -39.7770 O.3   522  GLA522     -0.2148
      9  O3       -46.9830   39.8220  -37.8880 O.3   522  GLA522     -0.2174
     10  O4       -44.2860   39.5940  -38.1870 O.3   522  GLA522     -0.2176
     11  O5       -44.4210   38.4250  -40.9480 O.3   522  GLA522     -0.3236
     12  O6       -42.6720   41.5960  -40.6460 O.3   522  GLA522     -0.2176
@<TRIPOS>BOND
     1     7     1    1
     2    11     5    1
     3    11     1    1
     4    12     6    1
     5     5     6    1
     6     5     4    1
     7     1     2    1
     8     8     2    1
     9     2     3    1
    10     4     3    1
    11     4    10    1
    12     3     9    1
