@<TRIPOS>MOLECULE
3v2v_HKL_A_1.pdb
 42 50 0 0 0
SMALL
GASTEIGER

@<TRIPOS>ATOM
      1  N1         2.7080   -4.3590   14.8670 N.ar  154  HKL154      0.0000
      2  C1         4.0140   -4.6900   15.0240 C.ar  154  HKL154      0.0000
      3  C2         4.7590   -3.6200   14.5320 C.ar  154  HKL154      0.0000
      4  C7         2.5680   -3.1130   14.2790 C.ar  154  HKL154      0.0000
      5  C6         4.4490   -0.2220   14.3940 C.2   154  HKL154      0.0000
      6  C5         4.2800   -1.2270   13.4690 C.2   154  HKL154      0.0000
      7  C4         3.8460   -2.5620   14.0430 C.ar  154  HKL154      0.0000
      8  C3         6.2670   -3.6150   14.5920 C.3   154  HKL154      0.0000
      9  N2        -0.2280   -4.0800   14.7080 N.2   154  HKL154      0.0000
     10  O1        -2.2380  -10.4390   17.7310 O.2   154  HKL154      0.0000
     11  C21       -1.3200   -9.6600   17.3180 C.2   154  HKL154      0.0000
     12  C20       -1.6980   -8.4710   16.7270 C.ar  154  HKL154      0.0000
     13  C23       -0.5290   -7.9110   16.4340 C.ar  154  HKL154      0.0000
     14  C24        0.6320   -8.6280   16.8160 C.2   154  HKL154      0.0000
     15  C22        0.0870   -9.8210   17.3800 C.3   154  HKL154      0.0000
     16  C18       -2.6590   -7.4840   16.2590 C.ar  154  HKL154      0.0000
     17  C19       -4.1420   -7.6580   16.3210 C.3   154  HKL154      0.0000
     18  C17       -1.8870   -6.4160   15.7130 C.ar  154  HKL154      0.0000
     19  N3        -0.5610   -6.7010   15.8500 N.ar  154  HKL154      0.0000
     20  C16       -2.3230   -5.2590   15.2380 C.2   154  HKL154      0.0000
     21  C15       -1.5840   -4.1950   14.8200 C.2   154  HKL154      0.0000
     22  C12       -2.1580   -3.0180   14.3430 C.2   154  HKL154      0.0000
     23  C13       -3.6280   -2.7130   14.2940 C.3   154  HKL154      0.0000
     24  C14       -4.1610   -2.2480   15.6360 C.3   154  HKL154      0.0000
     25  C10       -1.0800   -2.1540   13.9500 C.2   154  HKL154      0.0000
     26  C11       -1.1700   -0.7500   13.3710 C.3   154  HKL154      0.0000
     27  C9         0.1490   -2.9070   14.1940 C.2   154  HKL154      0.0000
     28  C8         1.4120   -2.4740   13.9700 C.2   154  HKL154      0.0000
     29  C34        4.4310   -5.8560   15.5830 C.2   154  HKL154      0.0000
     30 FE          1.0960   -5.5620   15.3420 Fe    154  HKL154      0.0000
     31  N4         2.3360   -6.9330   16.0380 N.2   154  HKL154      0.0000
     32  C25        1.9790   -8.1030   16.5690 C.2   154  HKL154      0.0000
     33  C33        3.6970   -6.8100   16.0740 C.2   154  HKL154      0.0000
     34  C31        4.2660   -7.9200   16.9250 C.2   154  HKL154      0.0000
     35  C32        4.7790   -7.6850   18.3580 C.3   154  HKL154      0.0000
     36  C26        3.1690   -8.9580   16.9280 C.2   154  HKL154      0.0000
     37  C27        3.4010  -10.1960   16.0660 C.3   154  HKL154      0.0000
     38  C28        4.2780  -11.2830   16.7040 C.3   154  HKL154      0.0000
     39  C29        4.0620  -12.6280   15.9840 C.2   154  HKL154      0.0000
     40  O4         3.2880  -12.8340   14.8730 O.2   154  HKL154      0.0000
     41  O2         4.7480  -13.8000   16.4980 O.3   154  HKL154      0.0000
     42  C30        4.7550  -14.9170   15.6250 C.3   154  HKL154      0.0000
@<TRIPOS>BOND
     1    26    25    1
     2     6     7    1
     3     6     5    2
     4    25    27    1
     5    25    22    2
     6    28    27    2
     7    28     4    1
     8     7     4   ar
     9     7     3   ar
    10    27     9    1
    11     4     1   ar
    12    23    22    1
    13    23    24    1
    14    22    21    1
    15     3     8    1
    16     3     2   ar
    17     9    21    2
    18     9    30    1
    19    21    20    1
    20     1     2   ar
    21     1    30    1
    22    40    39    2
    23     2    29    1
    24    20    18    2
    25    30    19    1
    26    30    31    1
    27    29    33    2
    28    42    41    1
    29    18    19   ar
    30    18    16   ar
    31    19    13   ar
    32    39    41    1
    33    39    38    1
    34    31    33    1
    35    31    32    2
    36    37    38    1
    37    37    36    1
    38    33    34    1
    39    16    17    1
    40    16    12   ar
    41    13    12   ar
    42    13    14    2
    43    32    14    1
    44    32    36    1
    45    12    11    1
    46    14    15    1
    47    34    36    2
    48    34    35    1
    49    11    15    1
    50    11    10    2
