@<TRIPOS>MOLECULE
3v2w_ML5_A_1.pdb
 23 23 0 0 0
SMALL
GASTEIGER

@<TRIPOS>ATOM
      1  O4         3.0190   17.2820  -14.2220 O.3   1201  ML51201    -0.3571
      2  P1         3.2070   15.7980  -14.4260 P.3   1201  ML51201     0.1172
      3  O2         1.9090   15.0400  -14.6140 O.3   1201  ML51201    -0.3571
      4  O3         4.2630   15.4650  -15.4540 O.2   1201  ML51201    -0.4601
      5  C16        3.8960   15.1750  -12.8640 C.3   1201  ML51201     0.0609
      6  C15        4.1710   16.3090  -11.8720 C.3   1201  ML51201     0.0361
      7  C14        3.1820   16.3580  -10.7010 C.3   1201  ML51201     0.1701
      8  N2         2.0350   15.4190  -10.8710 N.3   1201  ML51201    -0.1230
      9  C13        3.8860   16.1340   -9.3930 C.2   1201  ML51201     0.2630
     10  O1         4.2760   15.0170   -9.1070 O.2   1201  ML51201    -0.2714
     11  N1         3.9960   17.1980   -8.5890 N.am  1201  ML51201    -0.1780
     12  C5         4.8580   17.2990   -7.5430 C.ar  1201  ML51201     0.0731
     13  C4         4.9610   16.2860   -6.5810 C.ar  1201  ML51201     0.0166
     14  C3         5.8340   16.4280   -5.5010 C.ar  1201  ML51201     0.0010
     15  C2         6.5690   17.6060   -5.3420 C.ar  1201  ML51201    -0.0042
     16  C6         5.5870   18.4810   -7.3710 C.ar  1201  ML51201     0.0123
     17  C1         6.4580   18.6300   -6.2860 C.ar  1201  ML51201    -0.0209
     18  C7         7.2400   19.9170   -6.1180 C.3   1201  ML51201     0.0264
     19  C8         8.7180   19.6340   -5.8640 C.3   1201  ML51201     0.0047
     20  C9         9.4560   20.9070   -5.4600 C.3   1201  ML51201     0.0003
     21  C10       10.9480   20.7850   -5.7430 C.3   1201  ML51201     0.0000
     22  C11       11.6390   22.1390   -5.6410 C.3   1201  ML51201     0.0000
     23  C12       13.1090   22.0440   -5.9860 C.3   1201  ML51201     0.0000
@<TRIPOS>BOND
     1     4     2    2
     2     3     2    1
     3     2     1    1
     4     2     5    1
     5     5     6    1
     6     6     7    1
     7     8     7    1
     8     7     9    1
     9     9    10    2
    10     9    11   am
    11    11    12    1
    12    12    16   ar
    13    12    13   ar
    14    16    17   ar
    15    13    14   ar
    16    17    18    1
    17    17    15   ar
    18    18    19    1
    19    23    22    1
    20    19    20    1
    21    21    22    1
    22    21    20    1
    23    14    15   ar
