@<TRIPOS>MOLECULE
3v2y_ML5_A_1.pdb
 23 23 0 0 0
SMALL
GASTEIGER

@<TRIPOS>ATOM
      1  O4         1.8590   15.4060  -15.1120 O.2   1201  ML51201    -0.4601
      2  P1         2.9580   15.9610  -14.2300 P.3   1201  ML51201     0.1172
      3  O2         4.2570   16.2230  -14.9610 O.co2 1201  ML51201    -0.3571
      4  O3         2.5130   17.1000  -13.3430 O.co2 1201  ML51201    -0.3571
      5  C16        3.3390   14.6200  -13.0650 C.3   1201  ML51201     0.0609
      6  C15        4.2280   15.1420  -11.9350 C.3   1201  ML51201     0.0361
      7  C14        3.4980   16.0700  -10.9530 C.3   1201  ML51201     0.1701
      8  N2         2.0270   15.8240  -10.9290 N.3   1201  ML51201    -0.1230
      9  C13        4.1040   15.9180   -9.5860 C.2   1201  ML51201     0.2630
     10  O1         3.9740   14.8630   -8.9840 O.2   1201  ML51201    -0.2714
     11  N1         4.7920   16.9770   -9.1330 N.am  1201  ML51201    -0.1780
     12  C5         5.1830   17.1830   -7.8380 C.ar  1201  ML51201     0.0731
     13  C4         4.9710   16.2390   -6.8210 C.ar  1201  ML51201     0.0166
     14  C3         5.4090   16.4960   -5.5170 C.ar  1201  ML51201     0.0010
     15  C2         6.0670   17.6940   -5.2180 C.ar  1201  ML51201    -0.0042
     16  C6         5.8560   18.3720   -7.5300 C.ar  1201  ML51201     0.0123
     17  C1         6.3140   18.6210   -6.2330 C.ar  1201  ML51201    -0.0209
     18  C7         6.9960   19.9360   -5.9240 C.3   1201  ML51201     0.0264
     19  C8         8.4380   19.7060   -5.4920 C.3   1201  ML51201     0.0047
     20  C9         9.2420   20.9980   -5.6180 C.3   1201  ML51201     0.0003
     21  C10       10.5110   20.7800   -6.4340 C.3   1201  ML51201     0.0000
     22  C11       11.7500   21.0170   -5.5820 C.3   1201  ML51201     0.0000
     23  C12       12.5270   22.2210   -6.0670 C.3   1201  ML51201     0.0000
@<TRIPOS>UNITY_ATOM_ATTR
3 1
charge -1
4 1
charge -1
@<TRIPOS>BOND
     1     1     2    2
     2     3     2    1
     3     2     4    1
     4     2     5    1
     5     5     6    1
     6     6     7    1
     7     7     8    1
     8     7     9    1
     9     9    11   am
    10     9    10    2
    11    11    12    1
    12    12    16   ar
    13    12    13   ar
    14    16    17   ar
    15    13    14   ar
    16    21    20    1
    17    21    22    1
    18    17    18    1
    19    17    15   ar
    20    23    22    1
    21    18    19    1
    22    20    19    1
    23    14    15   ar
