@<TRIPOS>MOLECULE
3v2z_HKL_A_1.pdb
 42 50 0 0 0
SMALL
GASTEIGER

@<TRIPOS>ATOM
      1  N1         2.8820   -4.6270   14.6970 N.2   154  HKL154      0.0000
      2  C1         4.1980   -4.9220   14.8260 C.2   154  HKL154      0.0000
      3  C2         4.9340   -3.8600   14.3680 C.2   154  HKL154      0.0000
      4  C7         2.7360   -3.4020   14.1180 C.2   154  HKL154      0.0000
      5  C6         4.6010   -0.6200   14.4490 C.3   154  HKL154      0.0000
      6  C5         4.3580   -1.4610   13.3980 C.3   154  HKL154      0.0000
      7  C4         3.9940   -2.8380   13.9200 C.2   154  HKL154      0.0000
      8  C3         6.4390   -3.7430   14.3840 C.3   154  HKL154      0.0000
      9  N2        -0.0530   -4.4490   14.5660 N.ar  154  HKL154      0.0000
     10  O1        -1.7920  -10.8860   17.3820 O.2   154  HKL154      0.0000
     11  C21       -0.8430  -10.1150   16.9540 C.2   154  HKL154      0.0000
     12  C20       -1.2720   -8.9190   16.4650 C.2   154  HKL154      0.0000
     13  C23       -0.1300   -8.3180   16.1170 C.2   154  HKL154      0.0000
     14  C24        1.0620   -9.0520   16.4020 C.2   154  HKL154      0.0000
     15  C22        0.5600  -10.2710   16.9330 C.2   154  HKL154      0.0000
     16  C18       -2.2800   -7.9140   16.0850 C.2   154  HKL154      0.0000
     17  C19       -3.7430   -8.0610   16.2200 C.3   154  HKL154      0.0000
     18  C17       -1.5740   -6.8010   15.5620 C.2   154  HKL154      0.0000
     19  N3        -0.2670   -7.0750   15.5840 N.2   154  HKL154      0.0000
     20  C16       -2.0940   -5.6580   15.1490 C.2   154  HKL154      0.0000
     21  C15       -1.4110   -4.5570   14.7350 C.ar  154  HKL154      0.0000
     22  C12       -2.0120   -3.3350   14.3430 C.ar  154  HKL154      0.0000
     23  C13       -3.4960   -2.9660   14.3250 C.3   154  HKL154      0.0000
     24  C14       -3.9340   -2.2510   15.5750 C.3   154  HKL154      0.0000
     25  C10       -0.9350   -2.4630   13.9020 C.ar  154  HKL154      0.0000
     26  C11       -1.0280   -1.0340   13.3780 C.3   154  HKL154      0.0000
     27  C9         0.3000   -3.2230   14.1040 C.ar  154  HKL154      0.0000
     28  C8         1.5630   -2.7790   13.8600 C.2   154  HKL154      0.0000
     29  C34        4.6900   -6.0610   15.3290 C.2   154  HKL154      0.0000
     30 FE          1.3130   -5.8830   15.1070 Fe    154  HKL154      0.0000
     31  N4         2.6390   -7.2550   15.6880 N.ar  154  HKL154      0.0000
     32  C25        2.4000   -8.4920   16.0920 C.ar  154  HKL154      0.0000
     33  C33        3.9920   -7.0500   15.7250 C.ar  154  HKL154      0.0000
     34  C31        4.6820   -8.2220   16.3370 C.ar  154  HKL154      0.0000
     35  C32        5.1240   -8.1140   17.7970 C.3   154  HKL154      0.0000
     36  C26        3.6660   -9.3320   16.1260 C.ar  154  HKL154      0.0000
     37  C27        4.0230  -10.4270   15.0590 C.3   154  HKL154      0.0000
     38  C28        5.5260  -10.7760   14.7090 C.3   154  HKL154      0.0000
     39  C29        5.8560  -11.3920   13.3310 C.2   154  HKL154      0.0000
     40  O4         5.0340  -11.4120   12.2840 O.2   154  HKL154      0.0000
     41  O2         7.1470  -12.0450   13.0780 O.3   154  HKL154      0.0000
     42  C30        7.5180  -12.4300   11.7400 C.3   154  HKL154      0.0000
@<TRIPOS>BOND
     1    42    41    1
     2    40    39    2
     3    41    39    1
     4    39    38    1
     5    26    25    1
     6     6     7    1
     7     6     5    1
     8    28    27    1
     9    28     4    2
    10    25    27   ar
    11    25    22   ar
    12     7     4    1
    13     7     3    2
    14    27     9   ar
    15     4     1    1
    16    23    22    1
    17    23    24    1
    18    22    21   ar
    19     3     8    1
    20     3     2    1
    21     9    21   ar
    22     9    30    1
    23     1     2    2
    24     1    30    1
    25    38    37    1
    26    21    20    1
    27     2    29    1
    28    37    36    1
    29    30    19    1
    30    30    31    1
    31    20    18    2
    32    29    33    2
    33    18    19    1
    34    18    16    1
    35    19    13    2
    36    31    33   ar
    37    31    32   ar
    38    33    34   ar
    39    16    17    1
    40    16    12    2
    41    32    36   ar
    42    32    14    2
    43    13    14    1
    44    13    12    1
    45    36    34   ar
    46    34    35    1
    47    14    15    1
    48    12    11    1
    49    15    11    2
    50    11    10    1
