@<TRIPOS>MOLECULE
3v35_NTI_A_1.pdb
 21 22 0 0 0
SMALL
GASTEIGER

@<TRIPOS>ATOM
      1  S         -7.2240    9.2370   17.5900 S.2   317  NTI317     -0.0258
      2  C1        -7.0240   13.0850   20.0680 C.ar  317  NTI317      0.0900
      3  N1        -6.1580   11.5580   18.3940 N.am  317  NTI317     -0.1504
      4  O1        -8.4910   12.2720   21.8170 O.3   317  NTI317     -0.4239
      5  C2        -7.6770   13.2440   21.2990 C.ar  317  NTI317      0.1528
      6  N2        -4.9850   10.2140   16.7850 N.ar  317  NTI317     -0.2191
      7  O2        -8.2760   11.2550   19.3710 O.2   317  NTI317     -0.2678
      8  C3        -7.2110   11.8830   19.2600 C.2   317  NTI317      0.2737
      9  N3        -6.7360    7.1050   15.9450 N.pl3 317  NTI317      0.0655
     10  O3       -10.4120   13.2930   20.9450 O.2   317  NTI317     -0.2497
     11  C4        -6.1920   14.0970   19.5840 C.ar  317  NTI317      0.0076
     12  O4        -5.9420    6.4570   15.2080 O.2   317  NTI317     -0.1255
     13  C5        -7.4730   14.4080   22.0450 C.ar  317  NTI317      0.0378
     14  O5        -7.8620    6.6280   16.2690 O.2   317  NTI317     -0.1255
     15  C6        -5.9960   15.2640   20.3310 C.ar  317  NTI317      0.0003
     16  C7        -5.9950   10.4290   17.5680 C.ar  317  NTI317      0.1876
     17  C8        -6.6370   15.4180   21.5620 C.ar  317  NTI317      0.0031
     18  C9        -6.3130    8.3390   16.4310 C.ar  317  NTI317      0.1940
     19  C10       -5.1590    9.0120   16.1290 C.ar  317  NTI317      0.1317
     20  C11       -9.8720   12.4200   21.6140 C.2   317  NTI317      0.3220
     21  C12      -10.6100   11.3360   22.3480 C.3   317  NTI317      0.1216
@<TRIPOS>BOND
     1    12     9    2
     2     9    14    2
     3     9    18    1
     4    19    18   ar
     5    19     6   ar
     6    18     1   ar
     7     6    16   ar
     8    16     1   ar
     9    16     3    1
    10     3     8   am
    11     8     7    2
    12     8     2    1
    13    11     2   ar
    14    11    15   ar
    15     2     5   ar
    16    15    17   ar
    17    10    20    2
    18     5     4    1
    19     5    13   ar
    20    17    13   ar
    21    20     4    1
    22    20    21    1
