@<TRIPOS>MOLECULE
3v35_NAP_A_1.pdb
 48 52 0 0 0
SMALL
GASTEIGER

@<TRIPOS>ATOM
      1  PA         4.2940    4.2710   23.9390 P.3   316  NAP316      0.2189
      2  O1A        3.7990    3.2030   24.8680 O.3   316  NAP316     -0.4371
      3  O2A        5.2930    3.9870   22.8660 O.2   316  NAP316     -0.5170
      4  O5B        4.8800    5.4660   24.8500 O.3   316  NAP316     -0.3112
      5  C5B        5.2050    6.7330   24.2610 C.3   316  NAP316      0.1813
      6  C4B        5.4980    7.6890   25.4120 C.3   316  NAP316      0.1820
      7  O4B        6.5500    7.1220   26.1740 O.3   316  NAP316     -0.3136
      8  C3B        5.9880    9.0550   24.9860 C.3   316  NAP316      0.2161
      9  O3B        5.4960    9.9630   25.9730 O.3   316  NAP316     -0.2175
     10  C2B        7.4920    8.9990   25.1090 C.3   316  NAP316      0.2425
     11  O2B        8.0520   10.2740   25.4340 O.3   316  NAP316     -0.1603
     12  C1B        7.6370    8.0590   26.2900 C.3   316  NAP316      0.3162
     13  N9A        8.9090    7.2920   26.3010 N.pl3 316  NAP316     -0.1439
     14  C8A        9.4500    6.6430   25.2520 C.3   316  NAP316      0.3377
     15  N7A       10.5990    6.0510   25.6540 N.2   316  NAP316     -0.2095
     16  C5A       10.7680    6.3430   26.9720 C.2   316  NAP316      0.2526
     17  C6A       11.7470    6.0190   27.8960 C.2   316  NAP316      0.4393
     18  N6A       12.8180    5.2480   27.5370 N.pl3 316  NAP316      0.2180
     19  N1A       11.6230    6.4840   29.1520 N.2   316  NAP316      0.0021
     20  C2A       10.5760    7.2400   29.5250 C.3   316  NAP316      0.5254
     21  N3A        9.6120    7.5720   28.6530 N.2   316  NAP316     -0.0055
     22  C4A        9.6990    7.1300   27.3680 C.2   316  NAP316      0.3518
     23  O3         2.9750    5.0050   23.3290 O.3   316  NAP316     -0.2703
     24  PN         2.2130    4.9880   21.8960 P.3   316  NAP316      0.2189
     25  O1N        2.7420    6.1820   21.1160 O.2   316  NAP316     -0.5170
     26  O2N        0.7360    4.9610   22.1930 O.3   316  NAP316     -0.4371
     27  O5D        2.5810    3.6110   21.1480 O.3   316  NAP316     -0.3112
     28  C5D        3.7170    3.4550   20.3060 C.3   316  NAP316      0.1813
     29  C4D        3.3300    3.4610   18.8290 C.3   316  NAP316      0.1799
     30  O4D        2.3620    2.4540   18.5280 O.3   316  NAP316     -0.3327
     31  C3D        2.6380    4.7340   18.3910 C.3   316  NAP316      0.2158
     32  O3D        3.5080    5.8640   18.3660 O.3   316  NAP316     -0.2175
     33  C2D        2.0450    4.2970   17.0700 C.3   316  NAP316      0.2309
     34  O2D        3.1000    4.2320   16.0840 O.3   316  NAP316     -0.2158
     35  C1D        1.5670    2.8860   17.4110 C.3   316  NAP316      0.2263
     36  N1N        0.1530    2.8690   17.8130 N.pl3 316  NAP316     -0.2787
     37  C2N       -0.7360    2.2810   16.9990 C.3   316  NAP316      0.1244
     38  C3N       -2.0830    2.2460   17.3260 C.2   316  NAP316      0.0544
     39  C7N       -3.0570    1.5770   16.3970 C.2   316  NAP316      0.2818
     40  O7N       -4.2470    1.8160   16.5140 O.2   316  NAP316     -0.2670
     41  N7N       -2.6000    0.7140   15.4840 N.am  316  NAP316     -0.0839
     42  C4N       -2.5060    2.8010   18.5260 C.2   316  NAP316      0.0033
     43  C5N       -1.5790    3.3850   19.3760 C.2   316  NAP316      0.0157
     44  C6N       -0.2470    3.3970   18.9910 C.2   316  NAP316      0.0633
     45  P2B        8.8680   11.1860   24.3650 P.3   316  NAP316      1.1382
     46  O1X        8.2620   10.8760   23.0200 O.2   316  NAP316      0.3558
     47  O2X        8.5590   12.5760   24.8520 O.3   316  NAP316      0.4732
     48  O3X       10.3170   10.7720   24.5020 O.3   316  NAP316     -0.0005
@<TRIPOS>UNITY_ATOM_ATTR
2 1
charge 1
25 1
charge 1
46 1
charge 1
47 1
charge 1
@<TRIPOS>BOND
     1    41    39   am
     2    34    33    1
     3    39    40    2
     4    39    38    1
     5    37    38    1
     6    37    36    1
     7    33    35    1
     8    33    31    1
     9    38    42    2
    10    35    36    1
    11    35    30    1
    12    36    44    1
    13    32    31    1
    14    31    29    1
    15    42    43    1
    16    30    29    1
    17    29    28    1
    18    44    43    2
    19    28    27    1
    20    25    24    2
    21    27    24    1
    22    24    26    1
    23    24    23    1
    24     3     1    2
    25    46    45    2
    26    23     1    1
    27     1     4    1
    28     1     2    1
    29     5     4    1
    30     5     6    1
    31    45    48    1
    32    45    47    1
    33    45    11    1
    34     8    10    1
    35     8     6    1
    36     8     9    1
    37    10    11    1
    38    10    12    1
    39    14    15    1
    40    14    13    1
    41     6     7    1
    42    15    16    2
    43     7    12    1
    44    12    13    1
    45    13    22    1
    46    16    22    1
    47    16    17    1
    48    22    21    2
    49    18    17    1
    50    17    19    2
    51    21    20    1
    52    19    20    1
