@<TRIPOS>MOLECULE
3v36_NAP_A_1.pdb
 48 52 0 0 0
SMALL
GASTEIGER

@<TRIPOS>ATOM
      1  PA         2.5240    4.7510   23.6810 P.3   316  NAP316      0.2189
      2  O1A        2.0240    3.7120   24.6540 O.3   316  NAP316     -0.4371
      3  O2A        3.5490    4.3750   22.6430 O.2   316  NAP316     -0.5170
      4  O5B        3.1490    5.9160   24.6030 O.3   316  NAP316     -0.3112
      5  C5B        3.6560    7.1460   24.0800 C.3   316  NAP316      0.1813
      6  C4B        3.9320    8.0760   25.2610 C.3   316  NAP316      0.1820
      7  O4B        4.9520    7.4920   26.0800 O.3   316  NAP316     -0.3136
      8  C3B        4.4550    9.4400   24.8500 C.3   316  NAP316      0.2157
      9  O3B        3.9480   10.3840   25.8000 O.3   316  NAP316     -0.2175
     10  C2B        5.9530    9.3390   25.0170 C.3   316  NAP316      0.2314
     11  O2B        6.5450   10.6010   25.3400 O.3   316  NAP316     -0.2630
     12  C1B        6.0650    8.3720   26.1880 C.3   316  NAP316      0.3158
     13  N9A        7.3210    7.5940   26.1310 N.pl3 316  NAP316     -0.1439
     14  C8A        7.7970    6.9270   25.0680 C.3   316  NAP316      0.3377
     15  N7A        8.9670    6.3460   25.4080 N.2   316  NAP316     -0.2095
     16  C5A        9.2180    6.6490   26.6950 C.2   316  NAP316      0.2526
     17  C6A       10.2530    6.3350   27.5690 C.2   316  NAP316      0.4393
     18  N6A       11.3020    5.5660   27.1690 N.pl3 316  NAP316      0.2180
     19  N1A       10.2070    6.8210   28.8230 N.2   316  NAP316      0.0021
     20  C2A        9.1840    7.5840   29.2380 C.3   316  NAP316      0.5254
     21  N3A        8.1720    7.8930   28.4190 N.2   316  NAP316     -0.0055
     22  C4A        8.1740    7.4360   27.1440 C.2   316  NAP316      0.3518
     23  O3         1.2260    5.5030   23.0850 O.3   316  NAP316     -0.2703
     24  PN         0.5580    5.5510   21.6120 P.3   316  NAP316      0.2189
     25  O1N        1.1250    6.6990   20.8120 O.2   316  NAP316     -0.5170
     26  O2N       -0.9280    5.6060   21.8800 O.3   316  NAP316     -0.4371
     27  O5D        0.8780    4.1340   20.8960 O.3   316  NAP316     -0.3112
     28  C5D        2.0330    3.9560   20.0700 C.3   316  NAP316      0.1813
     29  C4D        1.6310    3.9780   18.5920 C.3   316  NAP316      0.1799
     30  O4D        0.6580    2.9790   18.2890 O.3   316  NAP316     -0.3327
     31  C3D        0.9280    5.2560   18.1770 C.3   316  NAP316      0.2158
     32  O3D        1.7770    6.4080   18.0940 O.3   316  NAP316     -0.2175
     33  C2D        0.3030    4.8130   16.8750 C.3   316  NAP316      0.2309
     34  O2D        1.3330    4.7200   15.8860 O.3   316  NAP316     -0.2158
     35  C1D       -0.1890    3.4160   17.2150 C.3   316  NAP316      0.2263
     36  N1N       -1.6210    3.4420   17.6020 N.pl3 316  NAP316     -0.2787
     37  C2N       -2.5430    2.9210   16.7710 C.3   316  NAP316      0.1244
     38  C3N       -3.9010    2.9430   17.0930 C.2   316  NAP316      0.0544
     39  C7N       -4.9060    2.3300   16.1540 C.2   316  NAP316      0.2818
     40  O7N       -6.1080    2.5560   16.2810 O.2   316  NAP316     -0.2670
     41  N7N       -4.4410    1.4960   15.2300 N.am  316  NAP316     -0.0839
     42  C4N       -4.3180    3.5100   18.2890 C.2   316  NAP316      0.0033
     43  C5N       -3.3600    4.0450   19.1460 C.2   316  NAP316      0.0157
     44  C6N       -2.0160    3.9870   18.7710 C.2   316  NAP316      0.0633
     45  P2B        7.3590   11.5030   24.2640 P.3   316  NAP316      0.5328
     46  O1X        6.7040   11.2330   22.9390 O.2   316  NAP316     -0.2224
     47  O2X        7.0880   12.9090   24.7700 O.3   316  NAP316     -0.1145
     48  O3X        8.7940   11.0480   24.3660 O.3   316  NAP316     -0.1145
@<TRIPOS>BOND
     1    41    39   am
     2    34    33    1
     3    39    40    2
     4    39    38    1
     5    37    38    1
     6    37    36    1
     7    33    35    1
     8    33    31    1
     9    38    42    2
    10    35    36    1
    11    35    30    1
    12    36    44    1
    13    32    31    1
    14    31    29    1
    15    42    43    1
    16    30    29    1
    17    29    28    1
    18    44    43    2
    19    28    27    1
    20    25    24    2
    21    27    24    1
    22    24    26    1
    23    24    23    1
    24     3     1    2
    25    46    45    2
    26    23     1    1
    27     1     4    1
    28     1     2    1
    29     5     4    1
    30     5     6    1
    31    45    48    1
    32    45    47    1
    33    45    11    1
    34     8    10    1
    35     8     6    1
    36     8     9    1
    37    10    11    1
    38    10    12    1
    39    14    15    1
    40    14    13    1
    41     6     7    1
    42    15    16    2
    43     7    12    1
    44    13    12    1
    45    13    22    1
    46    16    22    1
    47    16    17    1
    48    22    21    2
    49    18    17    1
    50    17    19    2
    51    21    20    1
    52    19    20    1
