@<TRIPOS>MOLECULE
3v3l_V3L_A_1.pdb
 36 39 0 0 0
SMALL
GASTEIGER

@<TRIPOS>ATOM
      1  N1        28.2110   58.8990   82.2450 N.2     1  V3L1        0.0021
      2  C2        28.3190   57.5520   82.3350 C.3     1  V3L1        0.5254
      3  N3        27.2570   56.7330   82.4130 N.2     1  V3L1       -0.0055
      4  C4        25.9970   57.2240   82.4030 C.2     1  V3L1        0.3518
      5  C5        25.7870   58.6670   82.3100 C.2     1  V3L1        0.2526
      6  C6        26.9940   59.5070   82.2570 C.2     1  V3L1        0.4393
      7  N6        26.8320   60.8320   82.1830 N.pl3   1  V3L1        0.2180
      8  N7        24.4610   58.8860   82.3210 N.2     1  V3L1       -0.2095
      9  C8        23.8670   57.6990   82.4230 C.3     1  V3L1        0.3377
     10  N9        24.7750   56.7120   82.4360 N.pl3   1  V3L1       -0.1440
     11  P         19.7160   56.7940   82.5430 P.3     1  V3L1        0.5327
     12  PB        24.4880   54.1080   91.2780 P.3     1  V3L1        0.5327
     13 C10        25.0410   55.3060   86.2440 C.3     1  V3L1        0.2697
     14  C1'       24.4580   55.2790   82.6130 C.3     1  V3L1        0.3153
     15  OP3       18.5170   56.0280   83.0820 O.3     1  V3L1       -0.1145
     16  O1B       25.3210   55.1690   91.9280 O.3     1  V3L1       -0.1145
     17 C12        26.4160   55.2220   86.9030 C.3     1  V3L1        0.2404
     18 O12        27.4490   55.6090   86.0080 O.3     1  V3L1       -0.2149
     19  C2'       23.9760   55.1010   84.0570 C.3     1  V3L1        0.2231
     20  O2'       25.1150   54.8480   84.8940 O.3     1  V3L1       -0.3213
     21  OP1       19.7500   56.9710   81.0340 O.2     1  V3L1       -0.2224
     22  O2B       23.0390   54.5130   91.1630 O.2     1  V3L1       -0.2224
     23 C13        26.5200   53.7550   87.3090 C.3     1  V3L1        0.2167
     24 O13        27.1720   52.9540   86.3160 O.3     1  V3L1       -0.2175
     25  C3'       22.9660   53.9520   83.9490 C.3     1  V3L1        0.2152
     26  O3'       23.5180   52.6680   84.2450 O.3     1  V3L1       -0.2176
     27  OP2       20.0390   58.0310   83.3410 O.3     1  V3L1       -0.1145
     28  O3B       24.6730   52.7080   91.8020 O.3     1  V3L1       -0.1145
     29 C14        25.0700   53.3160   87.4550 C.3     1  V3L1        0.1808
     30 O14        24.2400   54.3890   86.9870 O.3     1  V3L1       -0.3257
     31  C4'       22.4980   53.9930   82.4980 C.3     1  V3L1        0.1822
     32  O4'       23.3930   54.8600   81.7910 O.3     1  V3L1       -0.3136
     33 C15        24.7000   52.9680   88.8940 C.3     1  V3L1        0.1859
     34 O15        25.0680   54.0120   89.7940 O.3     1  V3L1       -0.2675
     35  C5'       21.0970   54.5420   82.3010 C.3     1  V3L1        0.1860
     36  O5'       20.9630   55.8490   82.8970 O.3     1  V3L1       -0.2675
@<TRIPOS>BOND
     1    21    11    2
     2    32    31    1
     3    32    14    1
     4     7     6    1
     5     1     6    2
     6     1     2    1
     7     6     5    1
     8    35    31    1
     9    35    36    1
    10     5     8    2
    11     5     4    1
    12     8     9    1
    13     2     3    1
    14     4     3    2
    15     4    10    1
    16     9    10    1
    17    10    14    1
    18    31    25    1
    19    11    36    1
    20    11    15    1
    21    11    27    1
    22    14    19    1
    23    25    19    1
    24    25    26    1
    25    19    20    1
    26    20    13    1
    27    18    17    1
    28    13    17    1
    29    13    30    1
    30    24    23    1
    31    17    23    1
    32    30    29    1
    33    23    29    1
    34    29    33    1
    35    33    34    1
    36    34    12    1
    37    22    12    2
    38    12    28    1
    39    12    16    1
