@<TRIPOS>MOLECULE
3v3n_MIY_A_1.pdb
 33 36 0 0 0
SMALL
GASTEIGER

@<TRIPOS>ATOM
      1  O8       -22.5120  -23.5530  -18.7410 O.2   2001  MIY2001    -0.2711
      2  C21      -21.7480  -24.0110  -17.9060 C.2   2001  MIY2001     0.2700
      3  N2       -21.5730  -23.4330  -16.7210 N.am  2001  MIY2001    -0.0874
      4  C2       -21.0180  -25.2290  -18.2240 C.3   2001  MIY2001     0.1715
      5  C1       -19.9760  -25.7060  -17.3480 C.2   2001  MIY2001     0.1960
      6  O1       -19.9110  -25.3660  -16.1790 O.2   2001  MIY2001    -0.2924
      7  C3       -21.2850  -25.9040  -19.3360 C.3   2001  MIY2001     0.1823
      8  O2       -21.9090  -25.3090  -20.3680 O.3   2001  MIY2001    -0.2207
      9  C4       -20.8930  -27.3540  -19.4450 C.3   2001  MIY2001     0.0922
     10  N1       -20.7830  -27.6860  -20.8800 N.3   2001  MIY2001    -0.2692
     11  C20      -20.5630  -29.1200  -21.0420 C.3   2001  MIY2001     0.0897
     12  C19      -19.6500  -26.9870  -21.4850 C.3   2001  MIY2001     0.0897
     13  C5       -19.6570  -27.7750  -18.6270 C.3   2001  MIY2001     0.0596
     14  C18      -18.9570  -26.6020  -17.9690 C.3   2001  MIY2001     0.2327
     15  O7       -18.2910  -25.8480  -18.9830 O.3   2001  MIY2001    -0.2101
     16  C17      -17.9160  -27.0360  -16.9590 C.2   2001  MIY2001     0.2063
     17  O6       -16.9400  -26.1820  -16.6510 O.2   2001  MIY2001    -0.2885
     18  C16      -17.9140  -28.2240  -16.3640 C.2   2001  MIY2001     0.0543
     19  C7       -18.7860  -29.3530  -16.8370 C.3   2001  MIY2001     0.0330
     20  C6       -20.0120  -28.8020  -17.5610 C.3   2001  MIY2001     0.0096
     21  C15      -17.0040  -28.4170  -15.2370 C.2   2001  MIY2001     0.1973
     22  O5       -16.3570  -27.4790  -14.7990 O.2   2001  MIY2001    -0.2867
     23  C14      -16.8990  -29.7790  -14.6220 C.ar  2001  MIY2001     0.0748
     24  C9       -18.0390  -30.7040  -14.8430 C.ar  2001  MIY2001    -0.0024
     25  C8       -19.2320  -30.2340  -15.6620 C.3   2001  MIY2001     0.0324
     26  C13      -15.7230  -30.2420  -13.8140 C.ar  2001  MIY2001     0.1985
     27  O4       -14.6320  -29.4420  -13.5760 O.3   2001  MIY2001    -0.2865
     28  C12      -15.7400  -31.5350  -13.2870 C.ar  2001  MIY2001     0.0434
     29  C11      -16.8140  -32.4100  -13.4880 C.ar  2001  MIY2001     0.0175
     30  C10      -17.9540  -32.0650  -14.2290 C.ar  2001  MIY2001     0.0442
     31  N7       -18.9960  -33.0060  -14.3830 N.pl3 2001  MIY2001    -0.3043
     32  CN7      -20.0750  -32.7450  -13.4210 C.3   2001  MIY2001     0.1122
     33  C71      -18.4700  -34.3470  -14.0960 C.3   2001  MIY2001     0.1122
@<TRIPOS>BOND
     1    12    10    1
     2    11    10    1
     3    10     9    1
     4     8     7    1
     5     9     7    1
     6     9    13    1
     7     7     4    1
     8    15    14    1
     9     1     2    2
    10    13    14    1
    11    13    20    1
    12     4     2    1
    13     4     5    1
    14    14     5    1
    15    14    16    1
    16     2     3   am
    17    20    19    1
    18     5     6    2
    19    16    17    1
    20    16    18    2
    21    19    18    1
    22    19    25    1
    23    18    21    1
    24    25    24    1
    25    21    22    2
    26    21    23    1
    27    24    23   ar
    28    24    30   ar
    29    23    26   ar
    30    31    30    1
    31    31    33    1
    32    31    32    1
    33    30    29   ar
    34    26    27    1
    35    26    28   ar
    36    29    28   ar
