@<TRIPOS>MOLECULE
3v3o_T1C_A_1.pdb
 42 45 0 0 0
SMALL
GASTEIGER

@<TRIPOS>ATOM
      1  C94       13.9300   39.1940    1.7750 C.3   404  T1C404      0.0175
      2  C93       13.7720   38.0610    0.8040 C.3   404  T1C404      0.0601
      3  C95       12.3380   37.6110    0.8380 C.3   404  T1C404      0.0175
      4  C96       14.6970   36.9150    1.2480 C.3   404  T1C404      0.0175
      5  N92       14.1320   38.5130   -0.5480 N.3   404  T1C404     -0.2113
      6  C92       13.5830   37.6670   -1.6130 C.3   404  T1C404      0.1756
      7  C91       14.6820   37.3660   -2.6450 C.2   404  T1C404      0.2634
      8  O91       14.9930   38.2200   -3.4730 O.2   404  T1C404     -0.2714
      9  N9        15.3480   36.0390   -2.6390 N.am  404  T1C404     -0.1747
     10  C9        16.4100   35.6360   -3.6080 C.ar  404  T1C404      0.1132
     11  C8        17.5290   36.4890   -3.8680 C.ar  404  T1C404      0.0340
     12  C7        18.5750   36.1280   -4.7860 C.ar  404  T1C404      0.0452
     13  N7        19.6880   37.1050   -4.9740 N.pl3 404  T1C404     -0.3043
     14  C71       19.4690   38.2770   -4.1480 C.3   404  T1C404      0.1122
     15  C72       20.9690   36.5590   -4.6180 C.3   404  T1C404      0.1122
     16  C61       18.4690   34.7640   -5.5210 C.ar  404  T1C404     -0.0067
     17  C6        19.5770   34.3080   -6.5570 C.3   404  T1C404      0.0317
     18  C51       19.1310   33.2380   -7.6100 C.3   404  T1C404      0.0285
     19  C5        20.3440   32.4590   -8.1020 C.3   404  T1C404      0.0093
     20  C41       19.9290   31.3670   -9.1410 C.3   404  T1C404      0.0605
     21  C4        21.1710   30.4610   -9.5230 C.3   404  T1C404      0.1228
     22  N4        21.4830   30.6650  -10.9760 N.3   404  T1C404     -0.2651
     23  C43       20.9840   31.9120  -11.5840 C.3   404  T1C404      0.0900
     24  C42       22.8970   30.4970  -11.2860 C.3   404  T1C404      0.0900
     25  C3        21.1290   28.9440   -9.1470 C.2   404  T1C404      0.1905
     26  O3        22.2920   28.1600   -9.1860 O.2   404  T1C404     -0.2900
     27  C2        19.9360   28.3140   -8.7790 C.2   404  T1C404      0.1032
     28  C21       19.8520   26.8390   -8.4510 C.2   404  T1C404      0.2855
     29  O21       20.5460   26.0200   -9.0480 O.2   404  T1C404     -0.2668
     30  N21       18.9060   26.3600   -7.4840 N.am  404  T1C404     -0.0838
     31  C1        18.6680   29.0730   -8.7430 C.3   404  T1C404      0.2163
     32  O1        17.4780   28.3420   -8.6130 O.3   404  T1C404     -0.2149
     33  C1C       18.6160   30.5750   -8.8460 C.3   404  T1C404      0.2139
     34  O1C       17.8600   30.8880   -9.9390 O.3   404  T1C404     -0.2147
     35  C12       17.8980   31.0950   -7.6260 C.2   404  T1C404      0.1980
     36  O12       16.9140   30.3000   -7.0510 O.2   404  T1C404     -0.2892
     37  C1B       18.1380   32.2790   -7.0930 C.2   404  T1C404      0.0270
     38  C11       17.2950   32.6330   -5.9480 C.3   404  T1C404      0.1983
     39  O11       16.3230   31.7150   -5.5490 O.3   404  T1C404     -0.2135
     40  C1A       17.4130   33.9380   -5.2690 C.ar  404  T1C404      0.0492
     41  C10       16.3120   34.3510   -4.2850 C.ar  404  T1C404      0.2093
     42  O10       15.2160   33.5030   -4.0270 O.3   404  T1C404     -0.2854
@<TRIPOS>BOND
     1    23    22    1
     2    24    22    1
     3    22    21    1
     4    34    33    1
     5    21    25    1
     6    21    20    1
     7    26    25    1
     8    25    27    2
     9    20    33    1
    10    20    19    1
    11    29    28    2
    12    33    31    1
    13    33    35    1
    14    27    31    1
    15    27    28    1
    16    31    32    1
    17    28    30   am
    18    19    18    1
    19    35    37    2
    20    35    36    1
    21    18    37    1
    22    18    17    1
    23    37    38    1
    24    17    16    1
    25    38    39    1
    26    38    40    1
    27    16    40   ar
    28    16    12   ar
    29    40    41   ar
    30    13    12    1
    31    13    15    1
    32    13    14    1
    33    12    11   ar
    34    41    42    1
    35    41    10   ar
    36    11    10   ar
    37    10     9    1
    38     8     7    2
    39     7     9   am
    40     7     6    1
    41     6     5    1
    42     5     2    1
    43     2     3    1
    44     2     4    1
    45     2     1    1
