@<TRIPOS>MOLECULE
3v3q_TMY_A_1.pdb
 27 27 0 0 0
SMALL
GASTEIGER

@<TRIPOS>ATOM
      1  C1       -11.1270   24.2780    5.5580 C.ar  301  TMY301      0.0289
      2  C2       -11.0360   25.4050    4.7230 C.ar  301  TMY301      0.1720
      3  C3       -11.1890   26.7030    5.2970 C.ar  301  TMY301      0.2057
      4  C4       -11.4170   26.8550    6.6590 C.ar  301  TMY301      0.1755
      5  C5       -11.5010   25.7630    7.4940 C.ar  301  TMY301      0.0428
      6  C6       -11.3660   24.4770    7.0100 C.ar  301  TMY301      0.0374
      7  C13      -11.0060   22.8700    5.1430 C.3   301  TMY301      0.1390
      8  C14      -12.0770   22.0550    5.2260 C.2   301  TMY301      0.3216
      9  O15      -13.2480   22.5660    5.6220 O.2   301  TMY301     -0.2497
     10  O16      -11.9920   20.6350    4.8820 O.3   301  TMY301     -0.4483
     11  C17      -11.3350   19.7210    5.7700 C.3   301  TMY301      0.2086
     12  C18      -11.7940   19.7960    7.2200 C.3   301  TMY301      0.0513
     13  C19      -11.5010   23.3560    8.0100 C.2   301  TMY301      0.1729
     14  C20      -12.8570   23.1060    8.6350 C.3   301  TMY301      0.0691
     15  C21      -13.1500   21.7060    9.1860 C.3   301  TMY301      0.0081
     16  C22      -14.6460   21.4270    9.0110 C.3   301  TMY301      0.0005
     17  C23      -15.5380   22.4770    9.6920 C.3   301  TMY301      0.0000
     18  C24      -16.4590   23.2130    8.7090 C.3   301  TMY301      0.0000
     19  C25      -17.2470   24.3370    9.3790 C.3   301  TMY301      0.0000
     20  C26      -17.6020   25.4100    8.3720 C.3   301  TMY301      0.0000
     21  O27      -10.5290   22.7060    8.3290 O.2   301  TMY301     -0.2913
     22  O28      -10.8040   25.2860    3.3790 O.3   301  TMY301     -0.4686
     23  O29      -11.0790   27.8450    4.5540 O.3   301  TMY301     -0.4654
     24  O30      -11.5640   28.0730    7.2190 O.3   301  TMY301     -0.4683
     25  C31      -11.6690   24.4320    2.6230 C.3   301  TMY301      0.2526
     26  C32       -9.8830   28.5460    4.7450 C.3   301  TMY301      0.2528
     27  C33      -11.0960   28.3040    8.5530 C.3   301  TMY301      0.2526
@<TRIPOS>BOND
     1    25    22    1
     2    22     2    1
     3    23    26    1
     4    23     3    1
     5     2     3   ar
     6     2     1   ar
     7    10     8    1
     8    10    11    1
     9     7     8    1
    10     7     1    1
    11     8     9    2
    12     3     4   ar
    13     1     6   ar
    14    11    12    1
    15     4    24    1
    16     4     5   ar
    17     6     5   ar
    18     6    13    1
    19    24    27    1
    20    13    21    2
    21    13    14    1
    22    20    19    1
    23    14    15    1
    24    18    19    1
    25    18    17    1
    26    16    15    1
    27    16    17    1
