@<TRIPOS>MOLECULE
3v3v_MYU_A_1.pdb
 23 25 0 0 0
SMALL
GASTEIGER

@<TRIPOS>ATOM
      1  O20       33.9820   45.1740    5.6980 O.2   401  MYU401     -0.2828
      2  C11       33.0460   44.7100    5.0410 C.ar  401  MYU401      0.2434
      3  C12       31.9470   45.5230    4.7740 C.ar  401  MYU401      0.2685
      4  O19       31.9890   46.7910    5.2910 O.3   401  MYU401     -0.2798
      5  C10       33.0380   43.3880    4.5380 C.ar  401  MYU401      0.1191
      6  C13       34.0740   42.4480    4.7650 C.ar  401  MYU401      0.2436
      7  O21       35.1760   42.8070    5.5020 O.3   401  MYU401     -0.2828
      8  C9        31.9330   42.9350    3.7830 C.ar  401  MYU401      0.1551
      9  C16       31.8680   41.6280    3.2680 C.ar  401  MYU401      0.0832
     10  C15       32.9020   40.7230    3.4930 C.ar  401  MYU401      0.2406
     11  O22       32.8950   39.4420    3.0180 O.3   401  MYU401     -0.2829
     12  C14       34.0060   41.1360    4.2420 C.ar  401  MYU401      0.2730
     13  O23       35.0300   40.2390    4.4610 O.3   401  MYU401     -0.2797
     14  O8        30.8800   43.7950    3.5400 O.2   401  MYU401     -0.4498
     15  C7        30.8460   45.0970    3.9930 C.ar  401  MYU401      0.1872
     16  C6        29.6290   45.7820    3.7750 C.ar  401  MYU401      0.0413
     17  C5        29.3570   46.9350    4.5110 C.ar  401  MYU401      0.0485
     18  C4        28.1510   47.5920    4.3460 C.ar  401  MYU401      0.2344
     19  O17       27.8480   48.7270    5.0250 O.3   401  MYU401     -0.2831
     20  C3        27.1920   47.1040    3.4650 C.ar  401  MYU401      0.2343
     21  O18       26.0510   47.8500    3.3920 O.3   401  MYU401     -0.2831
     22  C2        27.4160   45.9340    2.7260 C.ar  401  MYU401      0.0455
     23  C1        28.6360   45.2770    2.9060 C.ar  401  MYU401      0.0066
@<TRIPOS>BOND
     1    22    23   ar
     2    22    20   ar
     3    23    16   ar
     4    11    10    1
     5     9    10   ar
     6     9     8   ar
     7    21    20    1
     8    20    18   ar
     9    10    12   ar
    10    14     8   ar
    11    14    15   ar
    12    16    15    1
    13    16    17   ar
    14     8     5   ar
    15    15     3   ar
    16    12    13    1
    17    12     6   ar
    18    18    17   ar
    19    18    19    1
    20     5     6   ar
    21     5     2   ar
    22     6     7    1
    23     3     2   ar
    24     3     4    1
    25     2     1    2
