@<TRIPOS>MOLECULE
3v3x_MTN_A_1.pdb
 15 15 0 0 0
SMALL
GASTEIGER

@<TRIPOS>ATOM
      1  O1         6.9390   41.3690   38.2940 O.3    81  MTN81      -0.1176
      2  N1         7.1690   40.7290   39.3140 N.4    81  MTN81      -0.1318
      3  C1         7.7590   41.3320   40.5090 C.3    81  MTN81       0.0841
      4  C2         7.8360   40.1300   41.4300 C.2    81  MTN81      -0.0586
      5  C3         7.3760   39.0120   40.8480 C.2    81  MTN81      -0.0375
      6  C4         7.3310   37.6480   41.5140 C.3    81  MTN81       0.0269
      7  S1         6.3180   37.5870   42.9750 S.3    81  MTN81      -0.0884
      8  C5         6.9390   39.2900   39.4320 C.3    81  MTN81       0.0875
      9  C6         7.8370   38.5160   38.4680 C.3    81  MTN81       0.0227
     10  C7         5.4660   38.9150   39.2390 C.3    81  MTN81       0.0227
     11  C8         6.9450   42.4620   41.1450 C.3    81  MTN81       0.0224
     12  C9         9.1720   41.8160   40.1660 C.3    81  MTN81       0.0224
     13  H2         8.2120   40.1690   42.4380 H      81  MTN81       0.0592
     14  H41        8.3490   37.3600   41.7840 H      81  MTN81       0.0431
     15  H42        6.9640   36.9020   40.8100 H      81  MTN81       0.0431
@<TRIPOS>BOND
     1     1     2    1
     2     9     8    1
     3    10     8    1
     4     2     8    1
     5     2     3    1
     6     8     5    1
     7    12     3    1
     8     3    11    1
     9     3     4    1
    10    15     6    1
    11     5     4    2
    12     5     6    1
    13     4    13    1
    14     6    14    1
    15     6     7    1
