@<TRIPOS>MOLECULE
3v3y_U10_L_1.pdb
 48 48 0 0 0
SMALL
GASTEIGER

@<TRIPOS>ATOM
      1  C1        34.1380  -47.2750    1.0670 C.2   502  U10502      0.0142
      2  C2        34.0570  -48.3390    1.9640 C.2   502  U10502      0.1987
      3  C3        34.6470  -48.2570    3.2340 C.3   502  U10502      0.2104
      4  C4        35.2920  -47.0770    3.6430 C.3   502  U10502      0.2104
      5  C5        35.3330  -45.9880    2.7500 C.2   502  U10502      0.1987
      6  C6        34.7820  -46.0960    1.4440 C.2   502  U10502      0.0139
      7  C1M       33.5170  -47.4040   -0.3040 C.3   502  U10502      0.0339
      8  C3M       34.9480  -50.2080    4.5310 C.3   502  U10502      0.1747
      9  C4M       35.8480  -47.1260    5.9640 C.3   502  U10502      0.1747
     10  C7        34.7770  -44.9220    0.4510 C.3   502  U10502      0.0291
     11  C8        35.9310  -44.8390   -0.5480 C.3   502  U10502      0.0048
     12  C9        35.7360  -44.6000   -2.0030 C.3   502  U10502      0.0007
     13  C10       34.7000  -45.3790   -2.7680 C.3   502  U10502      0.0000
     14  C11       36.5910  -43.5900   -2.7560 C.3   502  U10502      0.0047
     15  C12       36.3750  -43.6940   -4.2790 C.3   502  U10502      0.0254
     16  C13       37.6770  -43.7230   -5.0790 C.2   502  U10502     -0.0346
     17  C14       38.0680  -44.8430   -5.9800 C.2   502  U10502     -0.0478
     18  C15       37.1950  -46.0590   -6.1180 C.3   502  U10502      0.0260
     19  C16       39.3650  -44.8010   -6.7670 C.3   502  U10502      0.0263
     20  C17       39.1260  -44.6000   -8.2660 C.3   502  U10502      0.0297
     21  C18       40.3660  -44.0060   -8.9100 C.2   502  U10502     -0.0343
     22  C19       40.3230  -42.6860   -9.5770 C.2   502  U10502     -0.0482
     23  C20       39.0080  -41.9840   -9.7860 C.3   502  U10502      0.0260
     24  C21       41.6080  -42.0330  -10.0500 C.3   502  U10502      0.0217
     25  C22       41.4040  -41.3720  -11.4140 C.3   502  U10502      0.0043
     26  C23       42.7270  -41.0180  -12.0640 C.3   502  U10502      0.0003
     27  C24       42.8740  -41.0300  -13.5330 C.3   502  U10502      0.0003
     28  C25       41.6570  -40.9450  -14.4100 C.3   502  U10502      0.0000
     29  C26       44.2440  -41.1140  -14.1670 C.3   502  U10502      0.0046
     30  C27       44.8460  -42.5060  -13.9830 C.3   502  U10502      0.0254
     31  C28       45.4040  -43.0250  -15.2950 C.2   502  U10502     -0.0346
     32  C29       46.4410  -44.0780  -15.3390 C.2   502  U10502     -0.0482
     33  C30       47.0940  -44.5710  -14.0770 C.3   502  U10502      0.0260
     34  C31       46.8660  -44.6600  -16.6710 C.3   502  U10502      0.0217
     35  C32       47.8390  -43.7020  -17.3550 C.3   502  U10502      0.0043
     36  C33       48.4410  -44.3090  -18.6070 C.3   502  U10502      0.0003
     37  C34       49.6500  -45.1530  -18.5400 C.3   502  U10502      0.0000
     38  C35       49.5430  -46.6440  -18.7090 C.3   502  U10502      0.0000
     39  C36       51.0100  -44.5220  -18.3130 C.3   502  U10502      0.0000
     40  C37       51.2390  -43.2710  -19.1650 C.3   502  U10502      0.0000
     41  C38       51.0550  -41.9960  -18.3620 C.3   502  U10502      0.0000
     42  C39       51.2160  -40.6710  -18.9990 C.3   502  U10502      0.0000
     43  C40       50.5410  -39.4520  -18.4350 C.3   502  U10502      0.0000
     44  C41       52.0770  -40.5400  -20.2370 C.3   502  U10502      0.0000
     45  O2        33.0330  -49.0220    1.8840 O.2   502  U10502     -0.2890
     46  O3        34.2510  -49.0500    4.1110 O.3   502  U10502     -0.3429
     47  O4        36.1470  -47.1300    4.5700 O.3   502  U10502     -0.3429
     48  O5        35.2410  -44.8910    3.3170 O.2   502  U10502     -0.2890
@<TRIPOS>BOND
     1    44    42    1
     2    40    41    1
     3    40    39    1
     4    42    43    1
     5    42    41    1
     6    38    37    1
     7    36    37    1
     8    36    35    1
     9    37    39    1
    10    35    34    1
    11    34    32    1
    12    32    31    2
    13    32    33    1
    14    31    30    1
    15    28    27    1
    16    29    30    1
    17    29    27    1
    18    27    26    1
    19    26    25    1
    20    25    24    1
    21    24    22    1
    22    23    22    1
    23    22    21    2
    24    21    20    1
    25    20    19    1
    26    19    17    1
    27    18    17    1
    28    17    16    2
    29    16    15    1
    30    15    14    1
    31    13    12    1
    32    14    12    1
    33    12    11    1
    34    11    10    1
    35     7     1    1
    36    10     6    1
    37     1     6    2
    38     1     2    1
    39     6     5    1
    40    45     2    2
    41     2     3    1
    42     5    48    2
    43     5     4    1
    44     3     4    1
    45     3    46    1
    46     4    47    1
    47    46     8    1
    48    47     9    1
