@<TRIPOS>MOLECULE
3v3y_SPN_M_1.pdb
 43 42 0 0 0
SMALL
GASTEIGER

@<TRIPOS>ATOM
      1  CMA       27.0570  -37.2550  -24.9530 C.3   600  SPN600      0.1745
      2  O1        26.8110  -36.6470  -23.7350 O.3   600  SPN600     -0.3489
      3  CM1       24.5730  -35.8070  -24.0280 C.3   600  SPN600      0.0372
      4  CM2       25.0380  -37.8010  -22.6660 C.3   600  SPN600      0.0372
      5  C1        25.5770  -36.4820  -23.1400 C.3   600  SPN600      0.1440
      6  C2        25.8480  -35.6150  -21.9440 C.2   600  SPN600      0.1791
      7  O2        24.9470  -35.0380  -21.3600 O.2   600  SPN600     -0.2933
      8  C3        27.2650  -35.4630  -21.4900 C.3   600  SPN600      0.0923
      9  C4        27.4490  -34.2620  -20.5930 C.2   600  SPN600     -0.0267
     10  C5        28.7030  -33.7080  -20.5060 C.2   600  SPN600     -0.0477
     11  CM3       29.8590  -34.4220  -21.1370 C.3   600  SPN600      0.0260
     12  C6        28.9300  -32.6840  -19.4100 C.3   600  SPN600      0.0217
     13  C7        30.3290  -32.3910  -18.9010 C.3   600  SPN600      0.0043
     14  C8        30.2650  -31.6280  -17.6010 C.3   600  SPN600      0.0003
     15  C9        31.4030  -30.9940  -17.1110 C.3   600  SPN600      0.0003
     16  CM4       32.5780  -30.7420  -18.0050 C.3   600  SPN600      0.0000
     17  C10       31.5360  -30.6870  -15.6400 C.3   600  SPN600      0.0046
     18  C11       32.4290  -29.5300  -15.2810 C.3   600  SPN600      0.0254
     19  C12       32.1020  -29.0180  -13.8920 C.2   600  SPN600     -0.0346
     20  C13       33.0670  -28.4920  -13.0610 C.2   600  SPN600     -0.0482
     21  CM5       34.4780  -28.2900  -13.5220 C.3   600  SPN600      0.0260
     22  C14       32.6680  -27.9940  -11.7050 C.3   600  SPN600      0.0217
     23  C15       33.5660  -26.9600  -11.0700 C.3   600  SPN600      0.0043
     24  C16       33.0050  -26.0830   -9.9890 C.3   600  SPN600      0.0003
     25  C17       31.5310  -25.8690  -10.0490 C.3   600  SPN600      0.0000
     26  C18       31.0320  -25.1700   -8.8190 C.3   600  SPN600      0.0000
     27  CM6       32.0070  -24.6010   -7.8360 C.3   600  SPN600      0.0000
     28  C19       29.6760  -24.8780   -8.7640 C.3   600  SPN600      0.0000
     29  C20       28.9900  -24.5950   -7.4530 C.3   600  SPN600      0.0000
     30  C21       27.5010  -24.6340   -7.6860 C.3   600  SPN600      0.0000
     31  C22       26.6940  -23.7300   -6.7910 C.3   600  SPN600      0.0000
     32  CM7       26.8990  -24.0400   -5.3460 C.3   600  SPN600      0.0000
     33  C23       25.2290  -23.7730   -7.1460 C.3   600  SPN600      0.0000
     34  C24       24.4960  -22.4750   -6.9040 C.3   600  SPN600      0.0003
     35  C25       23.1560  -22.4780   -7.5980 C.3   600  SPN600      0.0043
     36  C26       22.7390  -21.3760   -8.3480 C.3   600  SPN600      0.0217
     37  CM8       23.6620  -20.2260   -8.5790 C.3   600  SPN600      0.0047
     38  C27       21.2840  -21.1700   -8.5500 C.2   600  SPN600     -0.0310
     39  C28       20.5210  -20.7120   -7.3620 C.2   600  SPN600     -0.0307
     40  C29       19.1250  -20.2330   -7.5680 C.3   600  SPN600      0.0257
     41  C30       18.1770  -20.4000   -6.5860 C.3   600  SPN600      0.0043
     42  CM9       18.3530  -21.4170   -5.5130 C.3   600  SPN600      0.0003
     43  CMB       17.1990  -19.2980   -6.3560 C.3   600  SPN600      0.0003
@<TRIPOS>BOND
     1     1     2    1
     2     3     5    1
     3     2     5    1
     4     5     4    1
     5     5     6    1
     6     6     8    1
     7     6     7    2
     8     8     9    1
     9    11    10    1
    10     9    10    2
    11    10    12    1
    12    12    13    1
    13    13    14    1
    14    16    15    1
    15    14    15    1
    16    15    17    1
    17    17    18    1
    18    18    19    1
    19    19    20    2
    20    21    20    1
    21    20    22    1
    22    22    23    1
    23    23    24    1
    24    25    24    1
    25    25    26    1
    26    26    28    1
    27    26    27    1
    28    28    29    1
    29    37    36    1
    30    38    36    1
    31    38    39    2
    32    36    35    1
    33    30    29    1
    34    30    31    1
    35    35    34    1
    36    40    39    1
    37    40    41    1
    38    33    34    1
    39    33    31    1
    40    31    32    1
    41    41    43    1
    42    41    42    1
