@<TRIPOS>MOLECULE
3v3z_SPN_M_1.pdb
 43 42 0 0 0
SMALL
GASTEIGER

@<TRIPOS>ATOM
      1  CMA      -27.1190   37.4580  -24.7140 C.3   600  SPN600      0.1745
      2  O1       -26.2890   36.3100  -24.4940 O.3   600  SPN600     -0.3489
      3  CM1      -24.2020   35.2350  -23.9630 C.3   600  SPN600      0.0372
      4  CM2      -24.5670   37.5930  -23.2840 C.3   600  SPN600      0.0372
      5  C1       -25.2500   36.2410  -23.4980 C.3   600  SPN600      0.1440
      6  C2       -25.8020   35.7380  -22.1790 C.2   600  SPN600      0.1791
      7  O2       -25.0620   35.6400  -21.2090 O.2   600  SPN600     -0.2933
      8  C3       -27.2610   35.3440  -22.0480 C.3   600  SPN600      0.0923
      9  C4       -27.4810   34.2840  -20.9800 C.2   600  SPN600     -0.0267
     10  C5       -28.6650   33.6520  -20.8280 C.2   600  SPN600     -0.0474
     11  CM3      -29.8140   33.9850  -21.7470 C.3   600  SPN600      0.0260
     12  C6       -28.8120   32.6010  -19.7350 C.3   600  SPN600      0.0264
     13  C7       -30.0730   32.8200  -18.8990 C.3   600  SPN600      0.0297
     14  C8       -30.0620   31.9480  -17.6560 C.2   600  SPN600     -0.0342
     15  C9       -31.0960   31.1800  -17.2350 C.2   600  SPN600     -0.0478
     16  CM4      -32.3950   31.1080  -17.9990 C.3   600  SPN600      0.0260
     17  C10      -30.8950   30.3860  -15.9590 C.3   600  SPN600      0.0263
     18  C11      -32.0950   29.5240  -15.5640 C.3   600  SPN600      0.0297
     19  C12      -31.8300   28.9810  -14.1800 C.2   600  SPN600     -0.0343
     20  C13      -32.7930   28.6320  -13.3170 C.2   600  SPN600     -0.0482
     21  CM5      -34.2400   28.7560  -13.6930 C.3   600  SPN600      0.0260
     22  C14      -32.3720   28.1230  -11.9540 C.3   600  SPN600      0.0217
     23  C15      -33.2670   27.0150  -11.4100 C.3   600  SPN600      0.0047
     24  C16      -32.7560   26.3950  -10.1110 C.3   600  SPN600      0.0047
     25  C17      -31.2570   26.1230  -10.1110 C.3   600  SPN600      0.0217
     26  C18      -30.8250   25.2750   -8.9340 C.2   600  SPN600     -0.0482
     27  CM6      -31.8430   24.6540   -8.0130 C.3   600  SPN600      0.0260
     28  C19      -29.4960   25.0970   -8.7570 C.2   600  SPN600     -0.0346
     29  C20      -28.8530   24.2920   -7.6450 C.3   600  SPN600      0.0254
     30  C21      -27.3430   24.5240   -7.6610 C.3   600  SPN600      0.0047
     31  C22      -26.6260   23.6130   -6.6750 C.3   600  SPN600      0.0007
     32  CM7      -26.9130   23.9770   -5.2210 C.3   600  SPN600      0.0000
     33  C23      -25.1310   23.6220   -6.9560 C.3   600  SPN600      0.0047
     34  C24      -24.6360   22.1900   -7.0920 C.3   600  SPN600      0.0254
     35  C25      -23.1300   22.1120   -7.2530 C.2   600  SPN600     -0.0346
     36  C26      -22.5190   21.3750   -8.2130 C.2   600  SPN600     -0.0478
     37  CM8      -23.3060   20.5680   -9.2120 C.3   600  SPN600      0.0260
     38  C27      -21.0050   21.3320   -8.2850 C.3   600  SPN600      0.0263
     39  C28      -20.5230   20.2220   -7.3460 C.3   600  SPN600      0.0297
     40  C29      -19.0120   20.0990   -7.2580 C.2   600  SPN600     -0.0342
     41  C30      -18.2340   20.6830   -6.3090 C.2   600  SPN600     -0.0478
     42  CM9      -18.7860   21.5720   -5.2100 C.3   600  SPN600      0.0260
     43  CMB      -16.7490   20.4430   -6.3680 C.3   600  SPN600      0.0260
@<TRIPOS>BOND
     1     1     2    1
     2     2     5    1
     3     3     5    1
     4     5     4    1
     5     5     6    1
     6     6     8    1
     7     6     7    2
     8     8     9    1
     9    11    10    1
    10     9    10    2
    11    10    12    1
    12    12    13    1
    13    13    14    1
    14    16    15    1
    15    14    15    2
    16    15    17    1
    17    17    18    1
    18    18    19    1
    19    19    20    2
    20    21    20    1
    21    20    22    1
    22    22    23    1
    23    23    24    1
    24    24    25    1
    25    25    26    1
    26    37    36    1
    27    26    28    2
    28    26    27    1
    29    28    29    1
    30    38    36    1
    31    38    39    1
    32    36    35    2
    33    30    29    1
    34    30    31    1
    35    39    40    1
    36    40    41    2
    37    35    34    1
    38    34    33    1
    39    33    31    1
    40    31    32    1
    41    43    41    1
    42    41    42    1
