@<TRIPOS>MOLECULE
3v3z_U10_L_1.pdb
 48 48 0 0 0
SMALL
GASTEIGER

@<TRIPOS>ATOM
      1  C1       -34.4180   47.3750   -0.1110 C.3   502  U10502      0.0712
      2  C2       -33.9990   48.2190    0.9350 C.2   502  U10502      0.1807
      3  C3       -34.4900   48.0510    2.2360 C.3   502  U10502      0.2061
      4  C4       -35.3640   46.9800    2.5100 C.3   502  U10502      0.2064
      5  C5       -35.7550   46.1110    1.4650 C.2   502  U10502      0.1844
      6  C6       -35.2980   46.3010    0.1310 C.3   502  U10502      0.0887
      7  C1M      -33.8780   47.6210   -1.4950 C.3   502  U10502      0.0086
      8  C3M      -34.8870   49.9130    3.6360 C.3   502  U10502      0.1747
      9  C4M      -35.7310   46.4300    4.7890 C.3   502  U10502      0.1747
     10  C7       -35.1250   45.0550   -0.7790 C.2   502  U10502     -0.0232
     11  C8       -35.8890   45.0760   -2.1130 C.2   502  U10502     -0.0306
     12  C9       -35.9180   43.9280   -3.0690 C.3   502  U10502      0.0217
     13  C10      -34.7950   42.9230   -3.1420 C.3   502  U10502      0.0047
     14  C11      -37.1020   43.7390   -4.0080 C.3   502  U10502      0.0043
     15  C12      -36.7470   44.1250   -5.4500 C.3   502  U10502      0.0003
     16  C13      -37.9460   44.0240   -6.3810 C.3   502  U10502      0.0000
     17  C14      -38.5290   45.1640   -7.1380 C.3   502  U10502      0.0000
     18  C15      -37.7750   46.4590   -7.3230 C.3   502  U10502      0.0000
     19  C16      -39.9250   45.0230   -7.7270 C.3   502  U10502      0.0000
     20  C17      -39.9140   45.0420   -9.2550 C.3   502  U10502      0.0000
     21  C18      -41.0480   44.2090   -9.8090 C.3   502  U10502      0.0000
     22  C19      -40.8120   42.8520  -10.3320 C.3   502  U10502      0.0003
     23  C20      -41.2650   41.6720   -9.5250 C.3   502  U10502      0.0000
     24  C21      -40.1420   42.6430  -11.6790 C.3   502  U10502      0.0046
     25  C22      -38.7240   42.0720  -11.5580 C.3   502  U10502      0.0254
     26  C23      -38.6350   40.6880  -12.1860 C.2   502  U10502     -0.0346
     27  C24      -38.1890   40.3910  -13.5740 C.2   502  U10502     -0.0482
     28  C25      -37.6150   41.4720  -14.4590 C.3   502  U10502      0.0260
     29  C26      -38.3010   38.9610  -14.0980 C.3   502  U10502      0.0217
     30  C27      -39.3400   38.7890  -15.2140 C.3   502  U10502      0.0043
     31  C28      -40.4960   37.9170  -14.7560 C.3   502  U10502      0.0003
     32  C29      -41.8870   38.4160  -14.6730 C.3   502  U10502      0.0000
     33  C30      -42.9550   37.5800  -15.3280 C.3   502  U10502      0.0000
     34  C31      -42.1930   39.7220  -13.9270 C.3   502  U10502      0.0000
     35  C32      -43.5390   40.3980  -14.2460 C.3   502  U10502      0.0000
     36  C33      -43.4360   41.9190  -14.2500 C.3   502  U10502      0.0000
     37  C34      -44.5930   42.8450  -14.3870 C.3   502  U10502      0.0000
     38  C35      -44.8370   43.8470  -13.2900 C.3   502  U10502      0.0000
     39  C36      -45.5150   42.8010  -15.6030 C.3   502  U10502      0.0000
     40  C37      -46.2300   44.1280  -15.8940 C.3   502  U10502      0.0000
     41  C38      -47.4890   43.8940  -16.7080 C.3   502  U10502      0.0000
     42  C39      -47.7630   44.5860  -17.9870 C.3   502  U10502      0.0000
     43  C40      -47.5020   43.8970  -19.2970 C.3   502  U10502      0.0000
     44  C41      -48.3210   45.9930  -17.9960 C.3   502  U10502      0.0000
     45  O2       -32.8250   48.5960    0.8840 O.2   502  U10502     -0.2934
     46  O3       -34.1100   48.8320    3.1400 O.3   502  U10502     -0.3432
     47  O4       -36.0730   47.0460    3.5500 O.3   502  U10502     -0.3432
     48  O5       -35.8790   44.9190    1.8650 O.2   502  U10502     -0.2931
@<TRIPOS>BOND
     1    43    42    1
     2    44    42    1
     3    42    41    1
     4    41    40    1
     5    40    39    1
     6    39    37    1
     7    33    32    1
     8    30    31    1
     9    30    29    1
    10    31    32    1
    11    32    34    1
    12    28    27    1
    13    37    36    1
    14    37    38    1
    15    36    35    1
    16    35    34    1
    17    29    27    1
    18    27    26    2
    19    26    25    1
    20    24    25    1
    21    24    22    1
    22    22    21    1
    23    22    23    1
    24    21    20    1
    25    20    19    1
    26    19    17    1
    27    18    17    1
    28    17    16    1
    29    16    15    1
    30    15    14    1
    31    14    12    1
    32    13    12    1
    33    12    11    1
    34    11    10    2
    35     7     1    1
    36    10     6    1
    37     1     6    1
    38     1     2    1
    39     6     5    1
    40    45     2    2
    41     2     3    1
    42     5    48    2
    43     5     4    1
    44     3     4    1
    45     3    46    1
    46     4    47    1
    47    46     8    1
    48    47     9    1
