@<TRIPOS>MOLECULE
3v49_PK0_A_1.pdb
 28 30 0 0 0
SMALL
GASTEIGER

@<TRIPOS>ATOM
      1  N4        28.8800   -0.1250    3.4150 N.am  950  PK0950     -0.2535
      2  C31       31.0210    0.8540    3.7490 C.3   950  PK0950      0.0340
      3  C4        29.0160   -1.4320    2.7480 C.3   950  PK0950      0.1171
      4  O2        29.7270    2.6550    5.3940 O.2   950  PK0950     -0.2720
      5  C2        29.2620    1.8410    4.6850 C.2   950  PK0950      0.2564
      6  O5        26.9340    0.6940    2.3810 O.2   950  PK0950     -0.2516
      7  C5        27.8920    0.8500    3.0940 C.2   950  PK0950      0.3174
      8  C3        29.7090    0.4640    4.4360 C.3   950  PK0950      0.1502
      9  C1B       29.7180   -0.2290    5.7660 C.ar  950  PK0950      0.0024
     10  C2B       30.7980   -0.1350    6.6420 C.ar  950  PK0950      0.0010
     11  C3B       30.7290   -0.8260    7.8520 C.ar  950  PK0950      0.0418
     12  C4B       29.6280   -1.5550    8.2690 C.ar  950  PK0950      0.1957
     13  C5B       28.5580   -1.6410    7.3670 C.ar  950  PK0950      0.0418
     14  C6B       28.6120   -0.9800    6.1510 C.ar  950  PK0950      0.0010
     15  O4        29.6210   -2.2520    9.4890 O.3   950  PK0950     -0.2866
     16  N1        28.3030    2.0430    3.7420 N.am  950  PK0950     -0.1908
     17  C1A       27.4050    3.1250    3.7130 C.ar  950  PK0950      0.0622
     18  C2A       27.9180    4.4260    3.5800 C.ar  950  PK0950      0.0160
     19  C3A       27.1080    5.5460    3.5580 C.ar  950  PK0950      0.0115
     20  C4A       25.7240    5.3740    3.6490 C.ar  950  PK0950      0.0724
     21  C5A       25.1930    4.1120    3.7780 C.ar  950  PK0950      0.0823
     22  C6A       26.0170    2.9880    3.8080 C.ar  950  PK0950      0.0199
     23  C41       24.8800    6.6060    3.5210 C.1   950  PK0950      0.1004
     24  N41       24.3950    7.7410    3.5160 N.1   950  PK0950     -0.1908
     25  C51       23.7290    3.9800    3.9090 C.3   950  PK0950      0.4192
     26  F1        23.0130    4.6640    3.1690 F     950  PK0950     -0.1658
     27  F2        23.2030    4.2520    4.9990 F     950  PK0950     -0.1658
     28  F3        23.2040    2.8810    3.6770 F     950  PK0950     -0.1658
@<TRIPOS>BOND
     1     6     7    2
     2     3     1    1
     3     7     1   am
     4     7    16   am
     5    26    25    1
     6     1     8    1
     7    24    23    3
     8    23    20    1
     9    19    18   ar
    10    19    20   ar
    11    18    17   ar
    12    20    21   ar
    13    28    25    1
    14    17    16    1
    15    17    22   ar
    16    16     5   am
    17     2     8    1
    18    21    22   ar
    19    21    25    1
    20    25    27    1
    21     8     5    1
    22     8     9    1
    23     5     4    2
    24     9    14   ar
    25     9    10   ar
    26    14    13   ar
    27    10    11   ar
    28    13    12   ar
    29    11    12   ar
    30    12    15    1
