@<TRIPOS>MOLECULE
3v4a_PK1_A_1.pdb
 24 26 0 0 0
SMALL
GASTEIGER

@<TRIPOS>ATOM
      1  N4        28.2210   -0.0100    3.5200 N.am  950  PK1950     -0.2809
      2  C31       30.6190    0.5980    3.8530 C.3   950  PK1950      0.0339
      3  C4        28.3000   -1.3720    2.9440 C.3   950  PK1950      0.1145
      4  O2        29.3260    2.6340    5.4460 O.2   950  PK1950     -0.2721
      5  C2        28.7300    1.8880    4.7210 C.2   950  PK1950      0.2544
      6  S5        26.0430    0.8710    2.4310 S.2   950  PK1950     -0.0177
      7  C5        27.2160    0.9860    3.2720 C.2   950  PK1950      0.1481
      8  C3        29.1860    0.5440    4.4550 C.3   950  PK1950      0.1481
      9  C1B       29.2090   -0.1930    5.8070 C.ar  950  PK1950      0.0024
     10  C2B       30.3040   -0.0430    6.6470 C.ar  950  PK1950      0.0010
     11  C3B       30.3400   -0.7020    7.8650 C.ar  950  PK1950      0.0418
     12  C4B       29.2960   -1.5430    8.2710 C.ar  950  PK1950      0.1957
     13  C5B       28.1830   -1.6500    7.4170 C.ar  950  PK1950      0.0418
     14  C6B       28.1360   -0.9700    6.2100 C.ar  950  PK1950      0.0010
     15  O4        29.3400   -2.1980    9.5050 O.3   950  PK1950     -0.2866
     16  N1        27.5510    2.1840    4.0190 N.am  950  PK1950     -0.2183
     17  C1A       26.9620    3.4750    3.9960 C.ar  950  PK1950      0.0606
     18  C2A       27.7050    4.6320    3.7750 C.ar  950  PK1950      0.0162
     19  C3A       27.0230    5.8370    3.7890 C.ar  950  PK1950      0.0135
     20  C4A       25.6460    5.8690    3.9470 C.ar  950  PK1950      0.0683
     21  C5A       24.9240    4.7420    4.2340 C.ar  950  PK1950      0.0694
     22  C6A       25.5840    3.5370    4.1770 C.ar  950  PK1950      0.0275
     23 CL1        23.2260    4.7600    4.4840 Cl    950  PK1950     -0.0813
     24 CL2        24.8490    7.4010    3.9600 Cl    950  PK1950     -0.0814
@<TRIPOS>BOND
     1     6     7    2
     2     3     1    1
     3     7     1    1
     4     7    16    1
     5     1     8    1
     6    18    19   ar
     7    18    17   ar
     8    19    20   ar
     9     2     8    1
    10    20    24    1
    11    20    21   ar
    12    17    16    1
    13    17    22   ar
    14    16     5   am
    15    22    21   ar
    16    21    23    1
    17     8     5    1
    18     8     9    1
    19     5     4    2
    20     9    14   ar
    21     9    10   ar
    22    14    13   ar
    23    10    11   ar
    24    13    12   ar
    25    11    12   ar
    26    12    15    1
