@<TRIPOS>MOLECULE
3v4e_COA_A_1.pdb
 48 50 0 0 0
SMALL
GASTEIGER

@<TRIPOS>ATOM
      1  N1A        7.4440    2.6210   13.5710 N.2   202  COA202      0.0021
      2  C2A        7.9710    3.6940   14.1840 C.3   202  COA202      0.5254
      3  N3A        8.1470    3.7200   15.5070 N.2   202  COA202     -0.0055
      4  C4A        7.8250    2.6440   16.2560 C.2   202  COA202      0.3518
      5  C5A        7.2540    1.4510   15.6360 C.2   202  COA202      0.2526
      6  C6A        7.0480    1.5090   14.2260 C.2   202  COA202      0.4393
      7  N6A        6.5410    0.4120   13.6090 N.pl3 202  COA202      0.2180
      8  N7A        7.0210    0.5530   16.6050 N.2   202  COA202     -0.2095
      9  C8A        7.4140    1.1180   17.7730 C.3   202  COA202      0.3377
     10  N9A        7.8760    2.3740   17.5380 N.pl3 202  COA202     -0.1439
     11  C1B        8.4340    3.3350   18.4920 C.3   202  COA202      0.3185
     12  C2B        7.4840    3.6570   19.6290 C.3   202  COA202      0.2543
     13  O2B        6.7250    4.8500   19.3640 O.3   202  COA202     -0.2131
     14  C3B        8.4370    3.7970   20.8050 C.3   202  COA202      0.1928
     15  O3B        8.6460    5.1600   21.1080 O.3   202  COA202     -0.2673
     16  P3B        9.1040    5.6070   22.5980 P.3   202  COA202      0.5327
     17  O7A        7.8160    5.5180   23.3870 O.3   202  COA202     -0.1145
     18  O8A       10.1840    4.6230   23.0200 O.3   202  COA202     -0.1145
     19  O9A        9.5960    7.0200   22.3560 O.2   202  COA202     -0.2224
     20  C4B        9.7670    3.1630   20.3930 C.3   202  COA202      0.1795
     21  O4B        9.6100    2.7400   19.0300 O.3   202  COA202     -0.3136
     22  C5B       10.1890    1.9760   21.2560 C.3   202  COA202      0.1812
     23  O5B       10.0040    0.7660   20.5200 O.3   202  COA202     -0.3112
     24  P1A        9.3260   -0.5480   21.1710 P.3   202  COA202      0.2189
     25  O1A        8.1640   -0.1700   22.0660 O.3   202  COA202     -0.4371
     26  O2A       10.4910   -1.3600   21.6940 O.2   202  COA202     -0.5170
     27  O3A        8.6620   -1.3370   19.9330 O.3   202  COA202     -0.2703
     28  P2A        7.6830   -2.6140   20.1480 P.3   202  COA202      0.2188
     29  O4A        8.3810   -3.5230   21.1320 O.3   202  COA202     -0.4371
     30  O5A        6.2570   -2.1480   20.3520 O.2   202  COA202     -0.5170
     31  O6A        7.7540   -3.4080   18.7400 O.3   202  COA202     -0.3138
     32  CBP        6.9110   -3.5040   16.5400 C.3   202  COA202      0.0645
     33  CCP        6.6260   -3.8580   17.9980 C.3   202  COA202      0.1519
     34  CDP        8.0760   -2.5370   16.5100 C.3   202  COA202      0.0056
     35  CEP        7.3040   -4.7920   15.8050 C.3   202  COA202      0.0056
     36  CAP        5.6610   -2.8460   15.8970 C.3   202  COA202      0.2312
     37  OAP        5.7760   -2.4210   14.4950 O.3   202  COA202     -0.2131
     38  C9P        4.6180   -3.8770   15.7260 C.2   202  COA202      0.2719
     39  O9P        3.6700   -4.0470   16.4810 O.2   202  COA202     -0.2706
     40  N8P        4.8360   -4.5490   14.6400 N.am  202  COA202     -0.2028
     41  C7P        3.9330   -5.5060   14.0980 C.3   202  COA202      0.1248
     42  C6P        2.6480   -4.8180   13.6750 C.3   202  COA202      0.1102
     43  C5P        2.2420   -5.4590   12.3760 C.2   202  COA202      0.2432
     44  O5P        2.6280   -4.9400   11.3510 O.2   202  COA202     -0.2733
     45  N4P        1.4430   -6.5120   12.3810 N.am  202  COA202     -0.2044
     46  C3P        0.9850   -7.0330   11.1020 C.3   202  COA202      0.1276
     47  C2P        1.9610   -8.1250   10.6150 C.3   202  COA202      0.0920
     48  S1P        1.7620   -9.4910   11.7810 S.3   202  COA202     -0.0802
@<TRIPOS>BOND
     1    47    46    1
     2    47    48    1
     3    46    45    1
     4    44    43    2
     5    43    45   am
     6    43    42    1
     7     1     2    1
     8     1     6    2
     9     7     6    1
    10    42    41    1
    11    41    40    1
    12     2     3    1
    13     6     5    1
    14    37    36    1
    15    40    38   am
    16     3     4    2
    17     5     4    1
    18     5     8    2
    19    38    36    1
    20    38    39    2
    21    35    32    1
    22    36    32    1
    23     4    10    1
    24    34    32    1
    25    32    33    1
    26     8     9    1
    27    10     9    1
    28    10    11    1
    29    33    31    1
    30    11    21    1
    31    11    12    1
    32    31    28    1
    33    21    20    1
    34    13    12    1
    35    12    14    1
    36    27    28    1
    37    27    24    1
    38    28    30    2
    39    28    29    1
    40    20    14    1
    41    20    22    1
    42    23    24    1
    43    23    22    1
    44    14    15    1
    45    15    16    1
    46    24    26    2
    47    24    25    1
    48    19    16    2
    49    16    18    1
    50    16    17    1
