@<TRIPOS>MOLECULE
3v4f_GNP_A_1.pdb
 32 34 0 0 0
SMALL
GASTEIGER

@<TRIPOS>ATOM
      1  PG        -9.9220   64.4810  -66.9580 P.3   190  GNP190      0.4884
      2  O1G       -8.9740   64.0790  -65.8530 O.3   190  GNP190     -0.1240
      3  O2G      -10.8210   65.5860  -66.5180 O.3   190  GNP190     -0.1240
      4  O3G      -10.6630   63.2450  -67.4240 O.2   190  GNP190     -0.2331
      5  N3B       -9.0300   65.0140  -68.2090 N.3   190  GNP190     -0.0163
      6  PB        -9.5430   65.6960  -69.6050 P.3   190  GNP190      0.4669
      7  O1B       -9.9070   64.6600  -70.6030 O.2   190  GNP190     -0.2351
      8  O2B      -10.6150   66.6790  -69.3480 O.3   190  GNP190     -0.1253
      9  O3A       -8.3100   66.4670  -70.1850 O.3   190  GNP190     -0.2360
     10  PA        -7.9900   68.0260  -70.2070 P.3   190  GNP190      0.2220
     11  O1A       -8.9140   68.7040  -71.1210 O.2   190  GNP190     -0.5170
     12  O2A       -7.8340   68.4860  -68.8150 O.3   190  GNP190     -0.4370
     13  O5'       -6.6000   68.0950  -70.9500 O.3   190  GNP190     -0.3111
     14  C5'       -5.4980   67.3570  -70.4360 C.3   190  GNP190      0.1813
     15  C4'       -4.2190   67.9900  -70.9330 C.3   190  GNP190      0.1799
     16  O4'       -4.1300   67.8070  -72.3700 O.3   190  GNP190     -0.3326
     17  C3'       -4.0930   69.4960  -70.7110 C.3   190  GNP190      0.2158
     18  O3'       -2.7110   69.8050  -70.4330 O.3   190  GNP190     -0.2175
     19  C2'       -4.5300   70.1050  -72.0410 C.3   190  GNP190      0.2310
     20  O2'       -3.9180   71.3420  -72.3570 O.3   190  GNP190     -0.2158
     21  C1'       -4.0140   69.0550  -73.0180 C.3   190  GNP190      0.2293
     22  N9        -4.7850   69.0150  -74.2530 N.pl3 190  GNP190     -0.2354
     23  C8        -6.1530   68.8230  -74.3400 C.3   190  GNP190      0.2246
     24  N7        -6.5840   68.8720  -75.5690 N.2   190  GNP190     -0.2322
     25  C5        -5.4390   69.0970  -76.3330 C.2   190  GNP190      0.2182
     26  C6        -5.2890   69.2180  -77.7260 C.1   190  GNP190      0.2372
     27  O6        -6.1690   69.1430  -78.6010 O.2   190  GNP190     -0.2069
     28  N1        -3.9640   69.4400  -78.1070 N.2   190  GNP190     -0.2485
     29  C2        -2.9190   69.5290  -77.2180 C.1   190  GNP190      0.2531
     30  N2        -1.7050   69.7500  -77.7550 N.pl3 190  GNP190     -0.0226
     31  N3        -3.0460   69.3990  -75.9010 N.2   190  GNP190     -0.3074
     32  C4        -4.3270   69.1800  -75.5310 C.2   190  GNP190      0.2300
@<TRIPOS>BOND
     1    27    26    2
     2    28    26    2
     3    28    29    2
     4    30    29    1
     5    26    25    1
     6    29    31    2
     7    25    24    2
     8    25    32    1
     9    31    32    2
    10    24    23    1
    11    32    22    1
    12    23    22    1
    13    22    21    1
    14    21    16    1
    15    21    19    1
    16    16    15    1
    17    20    19    1
    18    19    17    1
    19    11    10    2
    20    13    14    1
    21    13    10    1
    22    15    17    1
    23    15    14    1
    24    17    18    1
    25     7     6    2
    26    10     9    1
    27    10    12    1
    28     9     6    1
    29     6     8    1
    30     6     5    1
    31     5     1    1
    32     4     1    2
    33     1     3    1
    34     1     2    1
