@<TRIPOS>MOLECULE
3v4i_AZT_A_1.pdb
 31 32 0 0 0
SMALL
GASTEIGER

@<TRIPOS>ATOM
      1  PA        -8.0170   27.3890   35.1720 P.3   823  AZT823      0.2189
      2  O1A       -6.8750   26.9010   36.0280 O.2   823  AZT823     -0.5170
      3  O2A       -8.9110   28.0310   36.1620 O.3   823  AZT823     -0.4371
      4  O3A       -7.5440   28.4490   34.0700 O.3   823  AZT823     -0.2700
      5  PB        -6.7860   28.0630   32.7190 P.3   823  AZT823      0.2277
      6  O1B       -7.8020   27.6690   31.6950 O.2   823  AZT823     -0.5168
      7  O2B       -5.8990   26.8510   32.8100 O.3   823  AZT823     -0.4368
      8  O3B       -5.9190   29.2920   32.2200 O.3   823  AZT823     -0.2258
      9  PG        -5.2960   30.3760   33.2250 P.3   823  AZT823      0.5373
     10  O1G       -6.3090   31.3060   33.8390 O.3   823  AZT823     -0.1143
     11  O2G       -4.4950   29.7950   34.3670 O.3   823  AZT823     -0.1143
     12  O3G       -4.3120   31.2960   32.5560 O.2   823  AZT823     -0.2221
     13  O5'       -8.6910   26.1570   34.4930 O.3   823  AZT823     -0.3112
     14  C5'       -7.9010   25.0010   34.4150 C.3   823  AZT823      0.1806
     15  C4'       -8.6600   23.8760   33.7630 C.3   823  AZT823      0.1722
     16  O4'       -9.8340   23.5110   34.5260 O.3   823  AZT823     -0.3345
     17  C3'       -9.0840   24.2680   32.3740 C.3   823  AZT823      0.1731
     18  N3'       -8.0870   23.8280   31.4460 N.2   823  AZT823     -0.0969
     19  N4'       -8.0160   24.5260   30.4090 N.2   823  AZT823     -0.1663
     20  N5'       -7.9210   25.1990   29.3600 N.2   823  AZT823      0.0678
     21  C2'      -10.3740   23.4950   32.2190 C.3   823  AZT823      0.0819
     22  C1'      -10.8950   23.2640   33.6210 C.3   823  AZT823      0.2085
     23  N1       -12.0700   24.0680   33.9880 N.am  823  AZT823     -0.1794
     24  C2       -13.3130   23.8190   33.3490 C.1   823  AZT823      0.2844
     25  O2       -13.3850   22.8390   32.3790 O.2   823  AZT823     -0.1918
     26  N3       -14.4710   24.5730   33.7090 N.2   823  AZT823     -0.2455
     27  C4       -14.3700   25.5810   34.7320 C.1   823  AZT823      0.2134
     28  O4       -15.5050   26.3380   35.0970 O.2   823  AZT823     -0.2088
     29  C5       -13.1090   25.8150   35.3720 C.2   823  AZT823      0.0891
     30  C5A      -12.9950   26.8670   36.4340 C.3   823  AZT823      0.0462
     31  C6       -11.9630   25.0580   35.0040 C.2   823  AZT823      0.0877
@<TRIPOS>BOND
     1    20    19    2
     2    19    18    2
     3    18    17    1
     4     6     5    2
     5    21    17    1
     6    21    22    1
     7     8     5    1
     8     8     9    1
     9    17    15    1
    10    25    24    2
    11    12     9    2
    12     5     7    1
    13     5     4    1
    14     9    10    1
    15     9    11    1
    16    24    26    2
    17    24    23   am
    18    22    23    1
    19    22    16    1
    20    26    27    2
    21    15    14    1
    22    15    16    1
    23    23    31    1
    24     4     1    1
    25    14    13    1
    26    13     1    1
    27    27    28    2
    28    27    29    1
    29    31    29    2
    30     1     2    2
    31     1     3    1
    32    29    30    1
