@<TRIPOS>MOLECULE
3v4j_PQR_A_1.pdb
 12 12 0 0 0
SMALL
GASTEIGER

@<TRIPOS>ATOM
      1  O5       -17.2370  -23.1440    1.1680 O.2   403  PQR403     -0.2831
      2  C6       -16.3760  -22.6920    0.3860 C.2   403  PQR403      0.2343
      3  C7       -16.6710  -22.6610   -1.0640 C.2   403  PQR403      0.2355
      4  O4       -17.7850  -23.0360   -1.4930 O.2   403  PQR403     -0.2831
      5  C8       -15.7170  -22.2050   -1.9460 C.2   403  PQR403      0.0613
      6  C9       -14.4840  -21.7550   -1.4740 C.2   403  PQR403      0.0692
      7  N2       -13.5740  -21.3380   -2.4510 N.pl3 403  PQR403     -0.2080
      8  N3       -12.2790  -21.2810   -2.1860 N.4   403  PQR403      0.0507
      9  O3       -11.3780  -20.8800   -3.1810 O.3   403  PQR403     -0.0786
     10  C10      -14.0100  -21.0380   -3.8220 C.3   403  PQR403      0.1356
     11  C5       -15.1510  -22.2320    0.8830 C.2   403  PQR403      0.0467
     12  C4       -14.1690  -21.7800    0.0020 C.2   403  PQR403      0.0194
@<TRIPOS>BOND
     1    10     7    1
     2     9     8    1
     3     7     8    1
     4     7     6    1
     5     5     6    2
     6     5     3    1
     7     4     3    2
     8     6    12    1
     9     3     2    1
    10    12    11    2
    11     2    11    1
    12     2     1    2
