@<TRIPOS>MOLECULE
3v4l_III_B_1.pdb
 47 48 0 0 0
SMALL
GASTEIGER

@<TRIPOS>ATOM
      1  C1        11.5370   56.0180   25.7010 C.2     1  PHQ1        0.4218
      2  O1        10.3180   55.9790   25.7810 O.2     1  PHQ1       -0.2245
      3  O2        12.3230   55.9590   26.7780 O.3     1  PHQ1       -0.4285
      4  C2        11.9160   55.0260   27.8020 C.3     1  PHQ1        0.2368
      5  C3        13.0600   55.0510   28.8280 C.ar    1  PHQ1        0.0213
      6  C4        14.1950   54.2230   28.6870 C.ar    1  PHQ1       -0.0007
      7  C5        15.2370   54.2890   29.6160 C.ar    1  PHQ1       -0.0002
      8  C6        15.1450   55.1780   30.6950 C.ar    1  PHQ1       -0.0000
      9  C7        14.0240   56.0000   30.8520 C.ar    1  PHQ1       -0.0002
     10  C8        12.9790   55.9300   29.9240 C.ar    1  PHQ1       -0.0007
     11  N         12.2080   56.1290   24.5300 N.am    2  VAL2       -0.1611
     12  CA        11.3700   56.1630   23.3320 C.3     2  VAL2        0.1760
     13  C         11.3090   54.7430   22.8240 C.2     2  VAL2        0.2617
     14  O         12.3190   54.1570   22.4350 O.2     2  VAL2       -0.2715
     15  CB        11.5940   57.3560   22.3760 C.3     2  VAL2        0.0291
     16  CG1       12.4750   58.4710   23.0000 C.3     2  VAL2        0.0023
     17  CG2       12.0740   56.9060   20.9760 C.3     2  VAL2        0.0023
     18  N         10.0750   54.2060   22.9740 N.am    3  ARG3       -0.1964
     19  CA         9.8350   52.8320   22.6070 C.3     3  ARG3        0.1714
     20  C          8.7770   52.6820   21.5430 C.2     3  ARG3        0.2458
     21  O          7.8860   53.5170   21.3810 O.2     3  ARG3       -0.2730
     22  CB         9.7180   51.8700   23.8280 C.3     3  ARG3        0.0347
     23  CG         9.2000   52.5810   25.0910 C.3     3  ARG3        0.0492
     24  CD        10.4000   52.8540   26.0230 C.3     3  ARG3        0.2205
     25  NE        10.4690   51.8880   27.1180 N.pl3   3  ARG3       -0.0865
     26  CZ        11.6320   51.3930   27.4570 C.cat   3  ARG3        0.5346
     27  NH1       12.2930   50.6640   26.6380 N.pl3   3  ARG3        0.1354
     28  NH2       12.1040   51.6760   28.6490 N.pl3   3  ARG3        0.1354
     29  N          8.8440   51.5890   20.7790 N.am    4  PRO4       -0.2716
     30  CA         7.8880   51.3610   19.7160 C.3     4  PRO4        0.1536
     31  C          6.4880   50.9200   20.1020 C.2     4  PRO4        0.2598
     32  O          6.2250   50.4850   21.2080 O.2     4  PRO4       -0.2715
     33  CB         8.6150   50.2000   18.9810 C.3     4  PRO4        0.0310
     34  CG         9.2850   49.4320   20.1410 C.3     4  PRO4        0.0237
     35  CD         9.8940   50.6010   20.9450 C.3     4  PRO4        0.0939
     36  N          5.5790   51.0290   19.1190 N.am    5  ARG5       -0.1983
     37  CA         4.2020   50.5880   19.2340 C.3     5  ARG5        0.1524
     38  C          4.0360   49.4060   18.2800 C.2     5  ARG5        0.1707
     39  O          2.9300   48.9590   18.0320 O.2     5  ARG5       -0.2943
     40  CB         3.2780   51.7510   18.7800 C.3     5  ARG5        0.0329
     41  CG         3.2410   52.8950   19.8190 C.3     5  ARG5        0.0491
     42  CD         2.3840   54.0880   19.3370 C.3     5  ARG5        0.2205
     43  NE         1.8460   54.8080   20.4970 N.pl3   5  ARG5       -0.0865
     44  CZ         1.0660   55.8600   20.3570 C.cat   5  ARG5        0.5346
     45  NH1        0.4460   56.0390   19.2670 N.pl3   5  ARG5        0.1354
     46  NH2        0.9320   56.7170   21.3420 N.pl3   5  ARG5        0.1354
     47  C1         5.2200   48.7950   17.5520 C.3     6  CF06        0.0741
@<TRIPOS>BOND
     1    47    38    1
     2    39    38    2
     3    38    37    1
     4    40    37    1
     5    40    41    1
     6    33    30    1
     7    33    34    1
     8    36    37    1
     9    36    31   am
    10    45    44    1
    11    42    41    1
    12    42    43    1
    13    30    31    1
    14    30    29    1
    15    31    32    2
    16    34    35    1
    17    44    43    2
    18    44    46    1
    19    29    35    1
    20    29    20   am
    21    17    15    1
    22    21    20    2
    23    20    19    1
    24    15    16    1
    25    15    12    1
    26    14    13    2
    27    19    18    1
    28    19    22    1
    29    13    18   am
    30    13    12    1
    31    12    11    1
    32    22    23    1
    33    11     1   am
    34    23    24    1
    35     1     2    2
    36     1     3    1
    37    24    25    1
    38    27    26    1
    39     3     4    1
    40    25    26    2
    41    26    28    1
    42     4     5    1
    43     6     5   ar
    44     6     7   ar
    45     5    10   ar
    46     7     8   ar
    47    10     9   ar
    48     8     9   ar
