@<TRIPOS>MOLECULE
3v4o_III_B_1.pdb
 47 48 0 0 0
SMALL
GASTEIGER

@<TRIPOS>ATOM
      1  C1       -20.5940    1.7100   17.9030 C.2     1  PHQ1        0.4218
      2  O1       -21.2610    1.3200   16.9470 O.2     1  PHQ1       -0.2245
      3  O2       -20.2180    0.9250   18.9200 O.3     1  PHQ1       -0.4285
      4  C2       -20.9250   -0.3430   18.9410 C.3     1  PHQ1        0.2368
      5  C3       -20.0050   -1.3130   18.1710 C.ar    1  PHQ1        0.0213
      6  C4       -20.4840   -1.9540   17.0170 C.ar    1  PHQ1       -0.0007
      7  C5       -19.6520   -2.8390   16.3110 C.ar    1  PHQ1       -0.0002
      8  C6       -18.3360   -3.0830   16.7430 C.ar    1  PHQ1       -0.0000
      9  C7       -17.8520   -2.4260   17.8940 C.ar    1  PHQ1       -0.0002
     10  C8       -18.6890   -1.5440   18.6090 C.ar    1  PHQ1       -0.0007
     11  N        -20.1530    2.9690   18.0570 N.am    2  VAL2       -0.1611
     12  CA       -20.5600    3.9040   17.0370 C.3     2  VAL2        0.1760
     13  C        -19.3040    4.4620   16.4550 C.2     2  VAL2        0.2617
     14  O        -18.2760    4.3990   17.0960 O.2     2  VAL2       -0.2715
     15  CB       -21.3630    5.0220   17.7750 C.3     2  VAL2        0.0291
     16  CG1      -22.6440    4.4460   18.4090 C.3     2  VAL2        0.0023
     17  CG2      -20.5070    5.6870   18.9120 C.3     2  VAL2        0.0023
     18  N        -19.4170    5.0280   15.2350 N.am    3  ARG3       -0.1964
     19  CA       -18.2870    5.6920   14.5960 C.3     3  ARG3        0.1714
     20  C        -18.8140    7.1090   14.2930 C.2     3  ARG3        0.2458
     21  O        -19.8730    7.2300   13.6640 O.2     3  ARG3       -0.2730
     22  CB       -17.8670    4.9230   13.3060 C.3     3  ARG3        0.0347
     23  CG       -16.8760    5.7650   12.4430 C.3     3  ARG3        0.0492
     24  CD       -16.6130    5.0670   11.0660 C.3     3  ARG3        0.2205
     25  NE       -15.6160    3.9930   11.1630 N.pl3   3  ARG3       -0.0865
     26  CZ       -14.3360    4.2730   11.4110 C.cat   3  ARG3        0.5346
     27  NH1      -13.6930    5.1940   10.7490 N.pl3   3  ARG3        0.1354
     28  NH2      -13.7460    3.5720   12.3580 N.pl3   3  ARG3        0.1354
     29  N        -18.1580    8.2220   14.6920 N.am    4  PRO4       -0.2716
     30  CA       -18.7470    9.5150   14.3700 C.3     4  PRO4        0.1536
     31  C        -18.5180   10.0050   12.9480 C.2     4  PRO4        0.2598
     32  O        -17.5930    9.5780   12.2520 O.2     4  PRO4       -0.2715
     33  CB       -17.9720   10.4320   15.3580 C.3     4  PRO4        0.0310
     34  CG       -16.6010    9.7230   15.5520 C.3     4  PRO4        0.0237
     35  CD       -16.8980    8.1920   15.4730 C.3     4  PRO4        0.0939
     36  N        -19.3790   10.9470   12.5270 N.am    5  ARG5       -0.1983
     37  CA       -19.2980   11.5740   11.2130 C.3     5  ARG5        0.1524
     38  C        -18.8410   13.0190   11.4250 C.2     5  ARG5        0.1707
     39  O        -19.2230   13.8980   10.6590 O.2     5  ARG5       -0.2943
     40  CB       -20.7030   11.5260   10.5350 C.3     5  ARG5        0.0329
     41  CG       -21.0110   10.1250    9.9700 C.3     5  ARG5        0.0491
     42  CD       -22.4980    9.9700    9.5400 C.3     5  ARG5        0.2205
     43  NE       -22.7230    8.6400    8.9450 N.pl3   5  ARG5       -0.0865
     44  CZ       -23.7780    8.4010    8.2110 C.cat   5  ARG5        0.5346
     45  NH1      -23.8840    7.2100    7.6630 N.pl3   5  ARG5        0.1354
     46  NH2      -24.6790    9.3020    8.0330 N.pl3   5  ARG5        0.1354
     47  C1       -18.0180   13.4440   12.6170 C.3     6  CF06        0.0741
@<TRIPOS>BOND
     1    45    44    1
     2    46    44    1
     3    44    43    2
     4    43    42    1
     5    42    41    1
     6    41    40    1
     7    40    37    1
     8    39    38    2
     9    27    26    1
    10    24    25    1
    11    24    23    1
    12    25    26    2
    13    37    38    1
    14    37    36    1
    15    26    28    1
    16    38    47    1
    17    32    31    2
    18    23    22    1
    19    36    31   am
    20    31    30    1
    21    22    19    1
    22    21    20    2
    23    20    19    1
    24    20    29   am
    25    30    29    1
    26    30    33    1
    27    19    18    1
    28    29    35    1
    29    18    13   am
    30    33    34    1
    31    35    34    1
    32     7     8   ar
    33     7     6   ar
    34    13    12    1
    35    13    14    2
    36     8     9   ar
    37     2     1    2
    38     6     5   ar
    39    12    15    1
    40    12    11    1
    41    15    16    1
    42    15    17    1
    43     9    10   ar
    44     1    11   am
    45     1     3    1
    46     5    10   ar
    47     5     4    1
    48     3     4    1
