@<TRIPOS>MOLECULE
3v4r_ADP_A_1.pdb
 27 29 0 0 0
SMALL
GASTEIGER

@<TRIPOS>ATOM
      1  PB        -0.8300    8.0660  -36.8550 P.3   701  ADP701      0.5373
      2  O1B       -0.2690    9.4890  -36.6080 O.3   701  ADP701     -0.1143
      3  O2B       -0.2230    7.0820  -35.8150 O.3   701  ADP701     -0.1143
      4  O3B       -0.4610    7.6190  -38.2850 O.2   701  ADP701     -0.2221
      5  PA        -3.3650    7.9440  -35.3690 P.3   701  ADP701      0.2231
      6  O1A       -4.6460    7.2850  -35.7240 O.2   701  ADP701     -0.5169
      7  O2A       -2.6300    7.0660  -34.3260 O.3   701  ADP701     -0.4370
      8  O3A       -2.4250    8.0520  -36.6680 O.3   701  ADP701     -0.2261
      9  O5'       -3.6540    9.4320  -34.8410 O.3   701  ADP701     -0.3111
     10  C5'       -4.7410   10.2630  -35.3330 C.3   701  ADP701      0.1813
     11  C4'       -4.4040   11.6620  -35.8270 C.3   701  ADP701      0.1821
     12  O4'       -3.9410   12.5310  -34.7660 O.3   701  ADP701     -0.3135
     13  C3'       -3.4630   11.8690  -37.0220 C.3   701  ADP701      0.2184
     14  O3'       -4.1190   12.5880  -38.0650 O.3   701  ADP701     -0.2174
     15  C2'       -2.3100   12.6980  -36.4290 C.3   701  ADP701      0.2570
     16  O2'       -1.6560   13.5270  -37.3880 O.3   701  ADP701     -0.2130
     17  C1'       -3.0390   13.4700  -35.3210 C.3   701  ADP701      0.3186
     18  N9        -2.2020   14.0100  -34.2440 N.pl3 701  ADP701     -0.1439
     19  C8        -1.1010   13.4170  -33.6820 C.3   701  ADP701      0.3377
     20  N7        -0.6320   14.0430  -32.6310 N.2   701  ADP701     -0.2095
     21  C5        -1.4720   15.1380  -32.4980 C.2   701  ADP701      0.2526
     22  C6        -1.5320   16.1820  -31.5460 C.2   701  ADP701      0.4393
     23  N6        -0.6620   16.3250  -30.5410 N.pl3 701  ADP701      0.2180
     24  N1        -2.5280   17.0890  -31.6710 N.2   701  ADP701      0.0021
     25  C2        -3.3930   16.9640  -32.6860 C.3   701  ADP701      0.5254
     26  N3        -3.4250   16.0350  -33.6500 N.2   701  ADP701     -0.0055
     27  C4        -2.4380   15.1380  -33.4920 C.2   701  ADP701      0.3518
@<TRIPOS>BOND
     1     4     1    2
     2    14    13    1
     3    16    15    1
     4    13    15    1
     5    13    11    1
     6     1     8    1
     7     1     2    1
     8     1     3    1
     9     8     5    1
    10    15    17    1
    11    11    10    1
    12    11    12    1
    13     6     5    2
    14     5     9    1
    15     5     7    1
    16    10     9    1
    17    17    12    1
    18    17    18    1
    19    18    19    1
    20    18    27    1
    21    19    20    1
    22    26    27    2
    23    26    25    1
    24    27    21    1
    25    25    24    1
    26    20    21    2
    27    21    22    1
    28    24    22    2
    29    22    23    1
