@<TRIPOS>MOLECULE
3v4s_ADP_A_1.pdb
 27 29 0 0 0
SMALL
GASTEIGER

@<TRIPOS>ATOM
      1  PB        -9.6860    6.4950   -8.9500 P.3   401  ADP401      0.5373
      2  O1B      -10.8910    5.6660   -9.3240 O.2   401  ADP401     -0.2221
      3  O2B       -9.9820    7.6350   -8.0200 O.3   401  ADP401     -0.1143
      4  O3B       -8.4890    5.6740   -8.5100 O.3   401  ADP401     -0.1143
      5  PA        -7.8320    7.8260  -10.7140 P.3   401  ADP401      0.2231
      6  O1A       -6.8030    7.1930   -9.7990 O.3   401  ADP401     -0.4370
      7  O2A       -7.9440    9.3260  -10.8030 O.2   401  ADP401     -0.5169
      8  O3A       -9.2760    7.1810  -10.3580 O.3   401  ADP401     -0.2261
      9  O5'       -7.5200    7.2830  -12.2070 O.3   401  ADP401     -0.3111
     10  C5'       -7.3900    5.8660  -12.4000 C.3   401  ADP401      0.1813
     11  C4'       -6.2940    5.4790  -13.3870 C.3   401  ADP401      0.1821
     12  O4'       -6.4720    6.1750  -14.6310 O.3   401  ADP401     -0.3135
     13  C3'       -4.8980    5.8410  -12.9070 C.3   401  ADP401      0.2184
     14  O3'       -4.2910    4.7580  -12.2130 O.3   401  ADP401     -0.2174
     15  C2'       -4.1600    6.1500  -14.1900 C.3   401  ADP401      0.2570
     16  O2'       -3.7290    4.9360  -14.8050 O.3   401  ADP401     -0.2130
     17  C1'       -5.2200    6.6750  -15.1160 C.3   401  ADP401      0.3186
     18  N9        -5.2520    8.1540  -15.1090 N.pl3 401  ADP401     -0.1439
     19  C8        -6.0830    8.9260  -14.3740 C.3   401  ADP401      0.3377
     20  N7        -5.8740   10.2400  -14.6250 N.2   401  ADP401     -0.2095
     21  C5        -4.8920   10.3360  -15.5380 C.2   401  ADP401      0.2526
     22  C6        -4.1770   11.4320  -16.2450 C.2   401  ADP401      0.4393
     23  N6        -4.4620   12.7460  -16.0380 N.pl3 401  ADP401      0.2180
     24  N1        -3.2070   11.0720  -17.1190 N.2   401  ADP401      0.0021
     25  C2        -2.8850    9.7850  -17.3560 C.3   401  ADP401      0.5254
     26  N3        -3.4930    8.7530  -16.7540 N.2   401  ADP401     -0.0055
     27  C4        -4.4880    8.9540  -15.8570 C.2   401  ADP401      0.3518
@<TRIPOS>BOND
     1    25    24    1
     2    25    26    1
     3    24    22    2
     4    26    27    2
     5    22    23    1
     6    22    21    1
     7    27    21    1
     8    27    18    1
     9    21    20    2
    10    17    18    1
    11    17    12    1
    12    17    15    1
    13    18    19    1
    14    16    15    1
    15    12    11    1
    16    20    19    1
    17    15    13    1
    18    11    13    1
    19    11    10    1
    20    13    14    1
    21    10     9    1
    22     9     5    1
    23     7     5    2
    24     5     8    1
    25     5     6    1
    26     8     1    1
    27     2     1    2
    28     1     4    1
    29     1     3    1
