@<TRIPOS>MOLECULE
3v4s_ATP_B_1.pdb
 31 33 0 0 0
SMALL
GASTEIGER

@<TRIPOS>ATOM
      1  PG        11.0340  -17.1490   35.6930 P.3   401  ATP401      0.5373
      2  O1G       11.8840  -16.9790   34.4590 O.2   401  ATP401     -0.2221
      3  O2G       10.2650  -15.9200   36.1300 O.3   401  ATP401     -0.1143
      4  O3G       10.2060  -18.4040   35.6800 O.3   401  ATP401     -0.1143
      5  PB        12.2050  -18.5400   37.9570 P.3   401  ATP401      0.2277
      6  O1B       11.2940  -18.1780   39.0950 O.3   401  ATP401     -0.4368
      7  O2B       12.1140  -19.8930   37.3270 O.2   401  ATP401     -0.5168
      8  O3B       12.1680  -17.3400   36.8540 O.3   401  ATP401     -0.2258
      9  PA        15.0400  -18.9010   37.6900 P.3   401  ATP401      0.2189
     10  O1A       14.8680  -18.5410   36.2310 O.2   401  ATP401     -0.5170
     11  O2A       15.4790  -20.2930   38.0660 O.3   401  ATP401     -0.4371
     12  O3A       13.7160  -18.4800   38.5280 O.3   401  ATP401     -0.2700
     13  O5'       16.0690  -17.8620   38.3330 O.3   401  ATP401     -0.3112
     14  C5'       15.7830  -16.4660   38.2850 C.3   401  ATP401      0.1813
     15  C4'       17.1320  -15.7680   38.2100 C.3   401  ATP401      0.1821
     16  O4'       17.9380  -16.1260   39.3500 O.3   401  ATP401     -0.3135
     17  C3'       17.9480  -16.2060   36.9970 C.3   401  ATP401      0.2184
     18  O3'       17.5790  -15.5620   35.7640 O.3   401  ATP401     -0.2174
     19  C2'       19.3680  -15.9380   37.4750 C.3   401  ATP401      0.2570
     20  O2'       19.7160  -14.5600   37.3100 O.3   401  ATP401     -0.2130
     21  C1'       19.3120  -16.2760   38.9690 C.3   401  ATP401      0.3186
     22  N9        19.7600  -17.6840   39.1390 N.pl3 401  ATP401     -0.1439
     23  C8        18.9690  -18.7820   39.1820 C.3   401  ATP401      0.3377
     24  N7        19.7140  -19.9100   39.3080 N.2   401  ATP401     -0.2095
     25  C5        21.0130  -19.5430   39.3630 C.2   401  ATP401      0.2526
     26  C6        22.3260  -20.2200   39.5030 C.2   401  ATP401      0.4393
     27  N6        22.4240  -21.5660   39.6250 N.pl3 401  ATP401      0.2180
     28  N1        23.4410  -19.4450   39.5110 N.2   401  ATP401      0.0021
     29  C2        23.3930  -18.1010   39.3980 C.3   401  ATP401      0.5254
     30  N3        22.2390  -17.4290   39.2640 N.2   401  ATP401     -0.0055
     31  C4        21.0380  -18.0730   39.2460 C.2   401  ATP401      0.3518
@<TRIPOS>BOND
     1     2     1    2
     2     4     1    1
     3     1     3    1
     4     1     8    1
     5    18    17    1
     6    10     9    2
     7     8     5    1
     8    17    19    1
     9    17    15    1
    10    20    19    1
    11     7     5    2
    12    19    21    1
    13     9    11    1
    14     9    13    1
    15     9    12    1
    16     5    12    1
    17     5     6    1
    18    15    14    1
    19    15    16    1
    20    14    13    1
    21    21    22    1
    22    21    16    1
    23    22    23    1
    24    22    31    1
    25    23    24    1
    26    31    30    2
    27    31    25    1
    28    30    29    1
    29    24    25    2
    30    25    26    1
    31    29    28    1
    32    26    28    2
    33    26    27    1
