@<TRIPOS>MOLECULE
3v4t_UD1_A_1.pdb
 39 41 0 0 0
SMALL
GASTEIGER

@<TRIPOS>ATOM
      1  C1'      -39.6560    3.2280   10.6440 C.3   501  UD1501      0.2633
      2  C2'      -39.5700    2.2520    9.4450 C.3   501  UD1501      0.1845
      3  C3'      -38.3730    2.5650    8.5760 C.3   501  UD1501      0.2094
      4  C4'      -38.5150    4.0000    8.0330 C.3   501  UD1501      0.2136
      5  C5'      -38.5520    4.9810    9.2360 C.3   501  UD1501      0.1834
      6  C6'      -38.7170    6.4400    8.7810 C.3   501  UD1501      0.2142
      7  C7'      -40.4780    0.0830   10.3780 C.2   501  UD1501      0.2420
      8  C8'      -40.0610   -1.3350   10.8480 C.3   501  UD1501      0.0964
      9  N2'      -39.4560    0.8580    9.9600 N.am  501  UD1501     -0.1992
     10  O1'      -38.5320    3.0060   11.5250 O.3   501  UD1501     -0.2864
     11  O3'      -38.3520    1.6250    7.4460 O.3   501  UD1501     -0.2183
     12  O4'      -37.3720    4.4430    7.1910 O.3   501  UD1501     -0.2176
     13  O5'      -39.7060    4.5740   10.1400 O.3   501  UD1501     -0.3260
     14  O6'      -39.9780    6.6980    8.0500 O.3   501  UD1501     -0.2176
     15  O7'      -41.6180    0.5060   10.3590 O.2   501  UD1501     -0.2733
     16  N1       -35.6660    8.5570   16.9260 N.am  501  UD1501     -0.1766
     17  C2       -35.1750    8.9820   18.1750 C.1   501  UD1501      0.2845
     18  N3       -35.6580    8.3650   19.3020 N.2   501  UD1501     -0.2452
     19  C4       -36.6070    7.3410   19.3240 C.1   501  UD1501      0.2182
     20  C5       -37.1050    6.9240   18.0190 C.2   501  UD1501      0.1242
     21  C6       -36.6300    7.5270   16.8770 C.2   501  UD1501      0.0929
     22  O2       -34.3050    9.9070   18.2720 O.2   501  UD1501     -0.1918
     23  O4       -36.9880    6.8320   20.3630 O.2   501  UD1501     -0.2085
     24  C1B      -35.1650    9.1850   15.6470 C.3   501  UD1501      0.2401
     25  C2B      -34.3670    8.2810   14.7660 C.3   501  UD1501      0.2319
     26  O2'      -33.1030    7.6670   15.2660 O.3   501  UD1501     -0.2157
     27  C3B      -34.4030    9.1040   13.4410 C.3   501  UD1501      0.2158
     28  C4B      -35.9030    9.5510   13.4750 C.3   501  UD1501      0.1799
     29  O4B      -36.2790    9.5760   14.8610 O.3   501  UD1501     -0.3320
     30  O3B      -33.3280   10.1240   13.5240 O.3   501  UD1501     -0.2175
     31  C5B      -36.9230    8.6110   12.7810 C.3   501  UD1501      0.1813
     32  O5B      -37.0340    7.2930   13.3990 O.3   501  UD1501     -0.3112
     33  PA       -38.3760    6.5320   13.5120 P.3   501  UD1501      0.2189
     34  O1A      -39.4360    7.3450   12.9320 O.2   501  UD1501     -0.5170
     35  O2A      -38.6530    6.2450   14.9120 O.3   501  UD1501     -0.4371
     36  O3A      -38.4250    5.3470   12.5760 O.3   501  UD1501     -0.2703
     37  PB       -38.3780    3.7970   12.8940 P.3   501  UD1501      0.2208
     38  O1B      -39.5700    3.5020   13.6370 O.3   501  UD1501     -0.4371
     39  O2B      -37.1770    3.3390   13.5340 O.2   501  UD1501     -0.5170
@<TRIPOS>BOND
     1    12     4    1
     2    11     3    1
     3     4     3    1
     4     4     5    1
     5    14     6    1
     6     3     2    1
     7     6     5    1
     8     5    13    1
     9     2     9    1
    10     2     1    1
    11     9     7   am
    12    13     1    1
    13    15     7    2
    14     7     8    1
    15     1    10    1
    16    10    37    1
    17    36    37    1
    18    36    33    1
    19    31    32    1
    20    31    28    1
    21    37    39    2
    22    37    38    1
    23    34    33    2
    24    32    33    1
    25    27    28    1
    26    27    30    1
    27    27    25    1
    28    28    29    1
    29    33    35    1
    30    25    26    1
    31    25    24    1
    32    29    24    1
    33    24    16    1
    34    21    16    1
    35    21    20    2
    36    16    17   am
    37    20    19    1
    38    17    22    2
    39    17    18    2
    40    18    19    2
    41    19    23    2
