@<TRIPOS>MOLECULE
3v50_SA2_A_1.pdb
 24 23 0 0 0
SMALL
GASTEIGER

@<TRIPOS>ATOM
      1  O23      -15.0240   -3.9130   -3.1270 O.co2 301  SA2301     -0.2457
      2  C20      -16.2470   -4.0660   -2.9270 C.2   301  SA2301      0.3649
      3  O22      -17.0650   -3.2100   -3.3660 O.co2 301  SA2301     -0.2457
      4  C19      -16.7210   -5.2850   -2.1440 C.3   301  SA2301      0.1146
      5  C18      -15.8520   -5.4080   -0.8960 C.3   301  SA2301      0.0235
      6  C17      -16.0390   -6.7010   -0.0980 C.3   301  SA2301      0.1101
      7  C16      -15.7090   -7.9530   -0.8850 C.2   301  SA2301      0.3170
      8  O24      -14.8090   -7.9730   -1.7170 O.2   301  SA2301     -0.2501
      9  O15      -16.5010   -9.1380   -0.6090 O.3   301  SA2301     -0.4466
     10  C14      -16.1840  -10.4080   -1.1730 C.3   301  SA2301      0.2317
     11  C2       -17.3510  -10.8830   -2.0260 C.3   301  SA2301      0.1732
     12  S1       -16.8810  -12.5390   -2.6500 S.3   301  SA2301     -0.0161
     13  O13      -15.5520  -12.4170   -3.3490 O.3   301  SA2301     -0.0781
     14  O12      -16.7050  -13.4580   -1.4740 O.3   301  SA2301     -0.0781
     15  C21      -18.6280  -11.0060   -1.1950 C.3   301  SA2301      0.0292
     16  C3       -17.5800   -9.9040   -3.1910 C.3   301  SA2301      0.1994
     17  C9       -18.7100  -10.3540   -4.0820 C.2   301  SA2301      0.3820
     18  O10      -19.7680   -9.6910   -4.0840 O.co2 301  SA2301     -0.2440
     19  O11      -18.6120  -11.3800   -4.8040 O.co2 301  SA2301     -0.2440
     20  N4       -16.3260   -9.7230   -3.9370 N.3   301  SA2301     -0.2064
     21  C5       -16.3610   -8.7140   -4.9860 C.3   301  SA2301      0.0975
     22  C6       -16.8390   -7.5920   -4.8650 C.3   301  SA2301      0.0910
     23  C7       -16.3120   -6.4820   -5.7670 C.2   301  SA2301      0.2089
     24  O8       -15.2840   -6.5960   -6.4100 O.2   301  SA2301     -0.2882
@<TRIPOS>BOND
     1    24    23    2
     2    23    22    1
     3    21    22    1
     4    21    20    1
     5    19    17   ar
     6    18    17   ar
     7    17    16    1
     8    20    16    1
     9     3     2   ar
    10    13    12    1
    11    16    11    1
    12     1     2   ar
    13     2     4    1
    14    12    11    1
    15    12    14    1
    16     4     5    1
    17    11    15    1
    18    11    10    1
    19     8     7    2
    20    10     9    1
    21     5     6    1
    22     7     9    1
    23     7     6    1
