@<TRIPOS>MOLECULE
3v50_MA4_A_1.pdb
 35 37 0 0 0
SMALL
GASTEIGER

@<TRIPOS>ATOM
      1  C1        10.7930    2.3870   -2.2710 C.3   302  MA4302      0.2695
      2  C2        11.3870    3.0160   -1.0130 C.3   302  MA4302      0.2406
      3  C3        11.0620    4.5110   -0.9420 C.3   302  MA4302      0.2198
      4  C4        11.4010    5.2360   -2.2480 C.3   302  MA4302      0.2144
      5  C5        10.8560    4.4810   -3.4730 C.3   302  MA4302      0.1835
      6  C6        11.3390    5.0850   -4.7860 C.3   302  MA4302      0.2142
      7  O2        10.8300    2.3890    0.1380 O.3   302  MA4302     -0.2149
      8  O3        11.7460    5.0840    0.1920 O.3   302  MA4302     -0.2174
      9  O5        11.2270    3.0920   -3.4270 O.3   302  MA4302     -0.3256
     10  O6        12.7710    5.0120   -4.7970 O.3   302  MA4302     -0.2176
     11  O1         9.3720    2.4840   -2.1870 O.3   302  MA4302     -0.3257
     12  O4        10.8620    6.5740   -2.1780 O.3   302  MA4302     -0.2176
     13  C10        6.0970    0.0460   -2.6870 C.3   302  MA4302      0.2695
     14  C20        6.9090   -0.2260   -1.4240 C.3   302  MA4302      0.2404
     15  C30        7.8050    0.9850   -1.1590 C.3   302  MA4302      0.2167
     16  C40        8.6600    1.2640   -2.4000 C.3   302  MA4302      0.1804
     17  C50        7.8230    1.4020   -3.6800 C.3   302  MA4302      0.1803
     18  C60        8.6710    1.4690   -4.9440 C.3   302  MA4302      0.2141
     19  O10        5.2840   -1.0990   -2.9460 O.3   302  MA4302     -0.3286
     20  O20        6.0860   -0.4920   -0.2830 O.3   302  MA4302     -0.2149
     21  O30        8.6520    0.6970   -0.0370 O.3   302  MA4302     -0.2175
     22  O50        6.9580    0.2640   -3.8090 O.3   302  MA4302     -0.3257
     23  O60        9.4870    0.2860   -5.0330 O.3   302  MA4302     -0.2176
     24  C11        4.2820   -0.8120   -3.9200 C.3   302  MA4302      0.1449
     25  C21        2.9750   -0.5520   -3.1900 C.3   302  MA4302      0.0322
     26  C31        1.8620   -0.2880   -4.1910 C.3   302  MA4302      0.0026
     27  C41        0.4950   -0.3600   -3.5260 C.3   302  MA4302      0.0001
     28  C51       -0.6160   -0.4570   -4.5630 C.3   302  MA4302      0.0000
     29  C61       -0.3620    0.4810   -5.7340 C.3   302  MA4302      0.0000
     30  C12       -1.6260    0.7430   -6.5280 C.3   302  MA4302      0.0000
     31  C22       -1.6810   -0.2900   -7.6620 C.3   302  MA4302      0.0000
     32  C32       -1.6050    0.3410   -9.0390 C.3   302  MA4302      0.0000
     33  C42       -2.6920    1.4030   -9.1340 C.3   302  MA4302      0.0000
     34  C52       -2.3680    2.5800   -8.2200 C.3   302  MA4302      0.0000
     35  C62       -1.5700    2.2130   -6.9730 C.3   302  MA4302      0.0000
@<TRIPOS>BOND
     1    33    32    1
     2    33    34    1
     3    32    31    1
     4    34    35    1
     5    31    30    1
     6    35    30    1
     7    30    29    1
     8    29    28    1
     9    23    18    1
    10    18    17    1
    11    10     6    1
    12     6     5    1
    13    28    27    1
    14    26    27    1
    15    26    25    1
    16    24    25    1
    17    24    19    1
    18    22    17    1
    19    22    13    1
    20    17    16    1
    21     5     9    1
    22     5     4    1
    23     9     1    1
    24    19    13    1
    25    13    14    1
    26    16    11    1
    27    16    15    1
    28     1    11    1
    29     1     2    1
    30     4    12    1
    31     4     3    1
    32    14    15    1
    33    14    20    1
    34    15    21    1
    35     2     3    1
    36     2     7    1
    37     3     8    1
