@<TRIPOS>MOLECULE
3v51_I76_A_1.pdb
 32 36 0 0 0
SMALL
GASTEIGER

@<TRIPOS>ATOM
      1  CAA       17.5330   17.8720   63.3040 C.3   701  I76701      0.0532
      2  CBE       17.5160   16.5880   62.4770 C.3   701  I76701      0.1876
      3  CAB       17.4140   16.9150   60.9690 C.3   701  I76701      0.0532
      4  NBF       16.3950   15.7050   62.8790 N.pl3 701  I76701     -0.0839
      5  NAS       15.2470   16.0710   63.1930 N.2   701  I76701     -0.0914
      6  C4        16.5240   14.3880   62.9050 C.2   701  I76701      0.3405
      7  N3        17.5700   13.5810   62.6500 N.2   701  I76701     -0.0088
      8  C2        17.4310   12.2710   62.7750 C.3   701  I76701      0.5248
      9  N1        16.2800   11.7150   63.1410 N.2   701  I76701     -0.0027
     10  C6        15.1950   12.4770   63.4180 C.2   701  I76701      0.4081
     11  NAC       14.0690   11.8450   63.7770 N.pl3 701  I76701      0.2118
     12  C5        15.2950   13.8700   63.3070 C.3   701  I76701      0.2639
     13  CAZ       14.4860   15.0100   63.5050 C.2   701  I76701      0.1226
     14  CAY       13.1230   15.0230   63.8770 C.ar  701  I76701      0.0182
     15  CAO       12.6270   14.3670   65.0030 C.ar  701  I76701      0.0013
     16  CAI       12.2150   15.7750   63.1030 C.ar  701  I76701      0.0013
     17  CAK       10.8550   15.8130   63.4260 C.ar  701  I76701      0.0001
     18  CBA       10.3640   15.1280   64.5220 C.ar  701  I76701      0.0030
     19  CAN        9.0160   15.1700   64.8330 C.ar  701  I76701      0.0369
     20  CBB       11.2660   14.4120   65.3270 C.ar  701  I76701      0.0002
     21  CAJ       10.7910   13.7280   66.4270 C.ar  701  I76701      0.0031
     22  CAH        9.4420   13.7650   66.7380 C.ar  701  I76701      0.0369
     23  CAW        8.5440   14.4890   65.9430 C.ar  701  I76701      0.1391
     24  OAT        7.2300   14.4700   66.3220 O.3   701  I76701     -0.4706
     25  CAP        6.1450   14.8770   65.4390 C.3   701  I76701      0.2320
     26  CAV        4.8880   15.0650   66.0690 C.ar  701  I76701      0.0220
     27  CAM        3.8240   15.6870   65.4080 C.ar  701  I76701      0.0107
     28  CAU        2.6290   15.8800   66.0930 C.ar  701  I76701      0.0575
     29 CLD         1.3210   16.6410   65.2720 Cl    701  I76701     -0.0823
     30  CAF        2.4610   15.4820   67.4100 C.ar  701  I76701      0.0114
     31  CAE        3.5260   14.8710   68.0740 C.ar  701  I76701      0.0007
     32  CAG        4.7120   14.6800   67.3980 C.ar  701  I76701     -0.0006
@<TRIPOS>BOND
     1     3     2    1
     2     2     4    1
     3     2     1    1
     4     7     8    1
     5     7     6    2
     6     8     9    1
     7     4     6    1
     8     4     5    1
     9     6    12    1
    10    16    17   ar
    11    16    14   ar
    12     9    10    2
    13     5    13    2
    14    12    10    1
    15    12    13    1
    16    10    11    1
    17    17    18   ar
    18    13    14    1
    19    14    15   ar
    20    18    19   ar
    21    18    20   ar
    22    19    23   ar
    23    15    20   ar
    24    29    28    1
    25    20    21   ar
    26    27    26   ar
    27    27    28   ar
    28    25    26    1
    29    25    24    1
    30    23    24    1
    31    23    22   ar
    32    26    32   ar
    33    28    30   ar
    34    21    22   ar
    35    32    31   ar
    36    30    31   ar
