@<TRIPOS>MOLECULE
3v57_PEB_A_1.pdb
 43 46 0 0 0
SMALL
GASTEIGER

@<TRIPOS>ATOM
      1  CHC       -9.0220  -34.0970  -19.5570 C.3   201  PEB201      0.0879
      2  NC       -11.2070  -35.0540  -20.3960 N.2   201  PEB201     -0.4107
      3  C1C      -12.2570  -34.6190  -21.1190 C.2   201  PEB201      0.1114
      4  C2C      -12.1540  -33.2190  -21.5660 C.2   201  PEB201      0.0024
      5  C3C      -10.8650  -32.7890  -20.9990 C.2   201  PEB201      0.0018
      6  C4C      -10.3230  -34.0180  -20.3210 C.2   201  PEB201      0.1067
      7  CMC      -10.1830  -31.4690  -21.2360 C.3   201  PEB201      0.0331
      8  CAC      -13.1630  -32.4340  -22.3810 C.3   201  PEB201      0.0402
      9  CBC      -12.7670  -32.4610  -23.8850 C.3   201  PEB201      0.1188
     10  CGC      -12.9900  -33.8610  -24.4380 C.2   201  PEB201      0.3652
     11  O1C      -11.9860  -34.5780  -24.6360 O.co2 201  PEB201     -0.2456
     12  O2C      -14.1400  -34.3390  -24.5570 O.co2 201  PEB201     -0.2456
     13  ND        -7.7990  -33.8810  -21.6570 N.2   201  PEB201     -0.1999
     14  C1D       -7.9710  -34.7350  -20.4540 C.3   201  PEB201      0.1408
     15  C2D       -6.6300  -34.7170  -19.8270 C.2   201  PEB201     -0.0099
     16  C3D       -5.6790  -33.8850  -20.5710 C.2   201  PEB201      0.0768
     17  C4D       -6.5300  -33.4140  -21.6970 C.1   201  PEB201      0.1497
     18  CMD       -6.5780  -35.5200  -18.5450 C.3   201  PEB201      0.0291
     19  CAD       -4.2650  -33.6080  -20.2720 C.2   201  PEB201      0.0110
     20  CBD       -3.6750  -34.3720  -19.3500 C.2   201  PEB201      0.0007
     21  OD        -6.1120  -32.6440  -22.6680 O.2   201  PEB201     -0.2223
     22  NA       -15.1620  -40.8060  -17.7030 N.2   201  PEB201     -0.3448
     23  C1A      -15.4490  -41.5310  -16.6010 C.1   201  PEB201      0.1788
     24  C2A      -14.4400  -41.2450  -15.5100 C.3   201  PEB201      0.1246
     25  C3A      -13.3250  -40.4670  -16.2400 C.3   201  PEB201      0.0660
     26  C4A      -14.0400  -40.1030  -17.5440 C.2   201  PEB201      0.1070
     27  CMA      -15.0630  -40.3810  -14.4030 C.3   201  PEB201      0.0192
     28  CBA      -11.3840  -41.4940  -15.0010 C.3   201  PEB201      0.0005
     29  OA       -16.3860  -42.3230  -16.4690 O.2   201  PEB201     -0.2142
     30  CHA      -13.4980  -39.2100  -18.4180 C.3   201  PEB201      0.1138
     31  CAA      -11.9800  -41.1950  -16.4050 C.3   201  PEB201      0.0078
     32  NB       -13.2620  -37.3490  -19.9040 N.2   201  PEB201     -0.4104
     33  C1B      -14.0560  -38.3980  -19.5380 C.2   201  PEB201      0.1111
     34  C2B      -15.3790  -38.3810  -20.2070 C.2   201  PEB201      0.0021
     35  C3B      -15.2800  -37.1870  -21.0970 C.2   201  PEB201      0.0024
     36  C4B      -13.9770  -36.6190  -20.7860 C.2   201  PEB201      0.1114
     37  CHB      -13.4670  -35.3890  -21.3970 C.3   201  PEB201      0.1170
     38  CMB      -16.5090  -39.3860  -20.0920 C.3   201  PEB201      0.0331
     39  CAB      -16.3240  -36.6060  -22.0120 C.3   201  PEB201      0.0402
     40  CBB      -17.1830  -35.8070  -21.0300 C.3   201  PEB201      0.1188
     41  CGB      -18.4150  -35.2830  -21.7470 C.2   201  PEB201      0.3652
     42  O1B      -19.4440  -35.0570  -21.0870 O.co2 201  PEB201     -0.2456
     43  O2B      -18.3560  -35.0920  -22.9850 O.co2 201  PEB201     -0.2456
@<TRIPOS>BOND
     1    11    10   ar
     2    12    10   ar
     3    10     9    1
     4     9     8    1
     5    43    41   ar
     6    21    17    2
     7     8     4    1
     8    39    35    1
     9    39    40    1
    10    41    42   ar
    11    41    40    1
    12    17    13    2
    13    17    16    1
    14    13    14    1
    15     4     3    1
    16     4     5    2
    17    37     3    1
    18    37    36    1
    19     7     5    1
    20     3     2    2
    21    35    36    1
    22    35    34    2
    23     5     6    1
    24    36    32    2
    25    16    19    1
    26    16    15    2
    27    14    15    1
    28    14     1    1
    29     2     6    2
    30     6     1    1
    31    19    20    2
    32    34    38    1
    33    34    33    1
    34    32    33    2
    35    15    18    1
    36    33    30    1
    37    30    26    1
    38    22    26    2
    39    22    23    2
    40    26    25    1
    41    23    29    2
    42    23    24    1
    43    31    25    1
    44    31    28    1
    45    25    24    1
    46    24    27    1
