@<TRIPOS>MOLECULE
3v58_PEB_A_1.pdb
 43 46 0 0 0
SMALL
GASTEIGER

@<TRIPOS>ATOM
      1  CHC       -8.8550  -34.1110  -19.6660 C.3   201  PEB201      0.0879
      2  NC       -11.1320  -35.0950  -20.4230 N.2   201  PEB201     -0.4107
      3  C1C      -12.1670  -34.6620  -21.1660 C.2   201  PEB201      0.1114
      4  C2C      -12.0520  -33.2580  -21.5940 C.2   201  PEB201      0.0024
      5  C3C      -10.7270  -32.8450  -21.0810 C.2   201  PEB201      0.0018
      6  C4C      -10.2250  -34.0530  -20.3270 C.2   201  PEB201      0.1067
      7  CMC      -10.0820  -31.4760  -21.2650 C.3   201  PEB201      0.0331
      8  CAC      -13.0730  -32.4410  -22.3530 C.3   201  PEB201      0.0402
      9  CBC      -12.8000  -32.4390  -23.8810 C.3   201  PEB201      0.1188
     10  CGC      -13.0940  -33.8330  -24.4440 C.2   201  PEB201      0.3652
     11  O1C      -12.1550  -34.5800  -24.7660 O.co2 201  PEB201     -0.2456
     12  O2C      -14.2670  -34.2250  -24.5520 O.co2 201  PEB201     -0.2456
     13  ND        -7.8480  -33.9710  -21.9240 N.2   201  PEB201     -0.1999
     14  C1D       -7.8580  -34.7460  -20.6430 C.3   201  PEB201      0.1408
     15  C2D       -6.4700  -34.6270  -20.1460 C.2   201  PEB201     -0.0099
     16  C3D       -5.6480  -33.7820  -21.0100 C.2   201  PEB201      0.0768
     17  C4D       -6.6160  -33.4260  -22.0720 C.1   201  PEB201      0.1497
     18  CMD       -6.1460  -35.3250  -18.8220 C.3   201  PEB201      0.0291
     19  CAD       -4.2330  -33.4010  -20.8660 C.2   201  PEB201      0.0110
     20  CBD       -3.4410  -33.1870  -21.9350 C.2   201  PEB201      0.0007
     21  OD        -6.2370  -32.6730  -23.0510 O.2   201  PEB201     -0.2223
     22  NA       -15.1900  -40.7480  -17.6890 N.2   201  PEB201     -0.3448
     23  C1A      -15.4160  -41.5240  -16.5800 C.1   201  PEB201      0.1788
     24  C2A      -14.4090  -41.2500  -15.4810 C.3   201  PEB201      0.1246
     25  C3A      -13.2960  -40.4680  -16.1980 C.3   201  PEB201      0.0660
     26  C4A      -14.0030  -40.0940  -17.5170 C.2   201  PEB201      0.1070
     27  CMA      -15.0650  -40.3290  -14.4730 C.3   201  PEB201      0.0192
     28  CBA      -11.2750  -41.3520  -14.9370 C.3   201  PEB201      0.0005
     29  OA       -16.3380  -42.3350  -16.4130 O.2   201  PEB201     -0.2142
     30  CHA      -13.4460  -39.1700  -18.3360 C.3   201  PEB201      0.1138
     31  CAA      -11.9290  -41.1980  -16.3230 C.3   201  PEB201      0.0078
     32  NB       -13.2060  -37.3230  -19.8680 N.2   201  PEB201     -0.4104
     33  C1B      -13.9880  -38.3880  -19.4790 C.2   201  PEB201      0.1111
     34  C2B      -15.2950  -38.3960  -20.1530 C.2   201  PEB201      0.0021
     35  C3B      -15.2260  -37.2040  -21.0500 C.2   201  PEB201      0.0024
     36  C4B      -13.9320  -36.6240  -20.7600 C.2   201  PEB201      0.1114
     37  CHB      -13.3910  -35.4210  -21.4310 C.3   201  PEB201      0.1170
     38  CMB      -16.4310  -39.3820  -20.0230 C.3   201  PEB201      0.0331
     39  CAB      -16.3030  -36.7140  -21.9990 C.3   201  PEB201      0.0402
     40  CBB      -17.1830  -35.8050  -21.1110 C.3   201  PEB201      0.1188
     41  CGB      -18.5180  -35.4540  -21.7630 C.2   201  PEB201      0.3652
     42  O1B      -19.4860  -35.1570  -21.0400 O.co2 201  PEB201     -0.2456
     43  O2B      -18.5900  -35.4230  -23.0060 O.co2 201  PEB201     -0.2456
@<TRIPOS>BOND
     1    11    10   ar
     2    12    10   ar
     3    10     9    1
     4     9     8    1
     5    21    17    2
     6    43    41   ar
     7     8     4    1
     8    17    13    2
     9    17    16    1
    10    39    40    1
    11    39    35    1
    12    20    19    2
    13    13    14    1
    14    41    40    1
    15    41    42   ar
    16     4     3    1
    17     4     5    2
    18    37     3    1
    19    37    36    1
    20     7     5    1
    21     3     2    2
    22     5     6    1
    23    35    36    1
    24    35    34    2
    25    16    19    1
    26    16    15    2
    27    36    32    2
    28    14    15    1
    29    14     1    1
    30     2     6    2
    31     6     1    1
    32    34    38    1
    33    34    33    1
    34    15    18    1
    35    32    33    2
    36    33    30    1
    37    30    26    1
    38    22    26    2
    39    22    23    2
    40    26    25    1
    41    23    29    2
    42    23    24    1
    43    31    25    1
    44    31    28    1
    45    25    24    1
    46    24    27    1
