@<TRIPOS>MOLECULE
3v5a_III_B_1.pdb
 44 44 0 0 0
SMALL
GASTEIGER

@<TRIPOS>ATOM
      1  N          4.3350    8.0730   31.5110 N.3   681  LEU681     -0.1231
      2  CA         4.4150    9.4470   32.0040 C.3   681  LEU681      0.1693
      3  C          4.9760    9.5350   33.4400 C.2   681  LEU681      0.2592
      4  O          4.5240   10.3680   34.2380 O.2   681  LEU681     -0.2718
      5  CB         3.0450   10.1550   31.8900 C.3   681  LEU681      0.0284
      6  CG         1.7970    9.6450   32.6390 C.3   681  LEU681      0.0019
      7  CD1        0.8470   10.7820   33.0120 C.3   681  LEU681      0.0001
      8  CD2        1.0700    8.5580   31.8560 C.3   681  LEU681      0.0001
      9  N          5.9710    8.6990   33.7580 N.am  682  GLU682     -0.1966
     10  CA         6.5060    8.6220   35.1360 C.3   682  GLU682      0.1733
     11  C          8.0540    8.6990   35.3170 C.2   682  GLU682      0.2616
     12  O          8.7210    9.5470   34.7110 O.2   682  GLU682     -0.2715
     13  CB         5.8900    7.4210   35.9030 C.3   682  GLU682      0.0429
     14  CG         5.7210    6.1230   35.1060 C.3   682  GLU682      0.1163
     15  CD         5.5060    4.9020   35.9940 C.2   682  GLU682      0.3649
     16  OE1        6.3990    4.5940   36.8150 O.co2 682  GLU682     -0.2457
     17  OE2        4.4500    4.2380   35.8690 O.co2 682  GLU682     -0.2457
     18  N          8.5950    7.8200   36.1670 N.am  683  ALA683     -0.1963
     19  CA         9.9940    7.8410   36.6270 C.3   683  ALA683      0.1728
     20  C         10.9160    6.9700   35.7310 C.2   683  ALA683      0.2616
     21  O         10.4820    6.4020   34.7570 O.2   683  ALA683     -0.2715
     22  CB        10.0480    7.3480   38.0830 C.3   683  ALA683      0.0334
     23  N         12.1840    6.8730   36.0810 N.am  684  CYS684     -0.1954
     24  CA        13.0710    5.8720   35.4540 C.3   684  CYS684      0.1843
     25  C         12.5430    4.4030   35.6990 C.2   684  CYS684      0.2625
     26  O         12.1100    4.0570   36.8150 O.2   684  CYS684     -0.2714
     27  CB        14.4690    6.0680   36.0420 C.3   684  CYS684      0.0997
     28  SG        15.7810    5.0410   35.4640 S.3   684  CYS684     -0.0797
     29  N         12.6220    3.5550   34.6690 N.am  685  ALA685     -0.1963
     30  CA        12.2020    2.1360   34.7730 C.3   685  ALA685      0.1728
     31  C         13.1740    1.2590   35.5450 C.2   685  ALA685      0.2616
     32  O         12.9060    0.0510   35.7500 O.2   685  ALA685     -0.2715
     33  CB        11.9050    1.5390   33.3990 C.3   685  ALA685      0.0334
     34  N         14.2950    1.8580   35.9490 N.am  686  PHE686     -0.1974
     35  CA        15.2970    1.1890   36.7810 C.3   686  PHE686      0.1639
     36  C         15.3990    2.1290   38.0090 C.2   686  PHE686      0.2290
     37  O         15.8780    1.6760   39.0100 O.2   686  PHE686     -0.2864
     38  CB        16.6820    1.0260   36.0910 C.3   686  PHE686      0.0560
     39  CG        16.5960    0.7020   34.5810 C.ar  686  PHE686     -0.0200
     40  CD1       16.2850   -0.6100   34.1390 C.ar  686  PHE686     -0.0042
     41  CD2       16.7880    1.7010   33.6260 C.ar  686  PHE686     -0.0042
     42  CE1       16.1420   -0.8540   32.7610 C.ar  686  PHE686     -0.0003
     43  CE2       16.6990    1.4390   32.2520 C.ar  686  PHE686     -0.0003
     44  CZ        16.3760    0.1930   31.8250 C.ar  686  PHE686     -0.0000
@<TRIPOS>BOND
     1     1     2    1
     2    44    43   ar
     3    44    42   ar
     4     8     6    1
     5     5     2    1
     6     5     6    1
     7     2     3    1
     8    43    41   ar
     9     6     7    1
    10    42    40   ar
    11    33    30    1
    12     3     9   am
    13     3     4    2
    14    41    39   ar
    15     9    10    1
    16    40    39   ar
    17    39    38    1
    18    29    30    1
    19    29    25   am
    20    12    11    2
    21    21    20    2
    22    30    31    1
    23    14    13    1
    24    14    15    1
    25    10    11    1
    26    10    13    1
    27    11    18   am
    28    24    25    1
    29    24    27    1
    30    24    23    1
    31    28    27    1
    32    31    32    2
    33    31    34   am
    34    25    26    2
    35    20    23   am
    36    20    19    1
    37    17    15   ar
    38    34    35    1
    39    15    16   ar
    40    38    35    1
    41    18    19    1
    42    19    22    1
    43    35    36    1
    44    36    37    2
