@<TRIPOS>MOLECULE
3v5g_0F3_A_1.pdb
 15 15 0 0 0
SMALL
GASTEIGER

@<TRIPOS>ATOM
      1  S1        -5.9660    0.9550   16.6740 S.O2  800  0F3800      0.0935
      2  O1        -7.4100    0.9390   16.5910 O.2   800  0F3800     -0.1503
      3  O2        -5.4340    1.0440   18.0080 O.2   800  0F3800     -0.1503
      4  N1        -5.3600   -0.3250   15.9530 N.3   800  0F3800      0.0392
      5  C1        -3.5910    3.7050   14.7980 C.ar  800  0F3800      0.0195
      6  C2        -4.0120    2.5510   15.5040 C.ar  800  0F3800      0.0214
      7  C3        -5.3960    2.3900   15.7830 C.ar  800  0F3800      0.1251
      8  C4        -6.3390    3.3560   15.3630 C.ar  800  0F3800      0.0214
      9  C5        -5.9000    4.4930   14.6640 C.ar  800  0F3800      0.0195
     10  C6        -4.5400    4.6820   14.3770 C.ar  800  0F3800      0.0922
     11  N2        -4.1560    5.8690   13.6780 N.pl3 800  0F3800     -0.0834
     12  S2        -2.6930    6.1580   13.0370 S.O2  800  0F3800      0.1633
     13  O3        -1.7610    6.2470   14.1290 O.2   800  0F3800     -0.1337
     14  O4        -2.8580    7.3110   12.2090 O.2   800  0F3800     -0.1337
     15  N3        -2.3000    4.9240   12.1100 N.3   800  0F3800      0.0563
@<TRIPOS>BOND
     1    15    12    1
     2    14    12    2
     3    12    11    1
     4    12    13    2
     5    11    10    1
     6    10     9   ar
     7    10     5   ar
     8     9     8   ar
     9     5     6   ar
    10     8     7   ar
    11     6     7   ar
    12     7     1    1
    13     4     1    1
    14     2     1    2
    15     1     3    2
