@<TRIPOS>MOLECULE
3v5g_HGB_A_1.pdb
 11 11 0 0 0
SMALL
GASTEIGER

@<TRIPOS>ATOM
      1  C1         5.3890   -7.1270    7.1560 C.2   901  HGB901      0.0000
      2  C3         4.8640   -9.4910    7.6190 C.ar  901  HGB901      0.0000
      3  C5         5.1770  -10.8630    7.5080 C.ar  901  HGB901      0.0000
      4  C7         6.3360  -11.2750    6.8160 C.ar  901  HGB901      0.0000
      5 HG          6.7660  -13.2560    6.6630 Hg    901  HGB901      0.0000
      6  C6         7.1860  -10.3070    6.2350 C.ar  901  HGB901      0.0000
      7  C4         6.8750   -8.9300    6.3440 C.ar  901  HGB901      0.0000
      8  O1         4.3750   -6.7630    7.7650 O.co2 901  HGB901      0.0000
      9  O2         6.1210   -6.2680    6.6520 O.co2 901  HGB901      0.0000
     10  O3         7.1560  -15.2540    6.4870 O.3   901  HGB901      0.0000
     11  C2         5.7100   -8.5120    7.0410 C.ar  901  HGB901      0.0000
@<TRIPOS>BOND
     1     6     7   ar
     2     6     4   ar
     3     7    11   ar
     4    10     5    1
     5     9     1   ar
     6     5     4    1
     7     4     3   ar
     8    11     1    1
     9    11     2   ar
    10     1     8   ar
    11     3     2   ar
