@<TRIPOS>MOLECULE
3v5j_0F2_A_1.pdb
 32 36 0 0 0
SMALL
GASTEIGER

@<TRIPOS>ATOM
      1  CAN      -57.6200  -21.1930   27.1610 C.3   701  0F2701      0.1047
      2  CAO      -58.5550  -20.8470   25.9930 C.3   701  0F2701      0.1595
      3  OAP      -57.7830  -20.4500   24.8360 O.3   701  0F2701     -0.3508
      4  CAQ      -56.9490  -19.3040   25.1220 C.3   701  0F2701      0.1595
      5  CAR      -55.9850  -19.6410   26.2690 C.3   701  0F2701      0.1047
      6  NAM      -56.7560  -20.0360   27.4630 N.3   701  0F2701     -0.2653
      7  CAL      -55.8440  -20.3820   28.5660 C.3   701  0F2701      0.1202
      8  CAK      -55.2250  -19.1100   29.1540 C.3   701  0F2701      0.2226
      9  OAJ      -53.9050  -18.9620   28.6030 O.3   701  0F2701     -0.4739
     10  CAD      -53.2000  -17.9410   29.1670 C.ar  701  0F2701      0.1408
     11  CAA      -52.9140  -17.9440   30.5360 C.ar  701  0F2701      0.0351
     12  CAB      -52.1470  -16.9220   31.1060 C.ar  701  0F2701      0.0106
     13  CAS      -51.8690  -16.9030   32.6220 C.3   701  0F2701      0.1455
     14  CBB      -52.6830  -15.7580   33.2370 C.3   701  0F2701      0.0347
     15  CBD      -52.5690  -15.7220   34.7640 C.3   701  0F2701      0.0030
     16  CBC      -50.3750  -16.6650   32.8910 C.3   701  0F2701      0.0347
     17  CBE      -49.5150  -17.8340   32.4020 C.3   701  0F2701      0.0030
     18  OBF      -52.2690  -18.1410   33.2280 O.3   701  0F2701     -0.2212
     19  CAC      -51.6610  -15.8940   30.2910 C.ar  701  0F2701      0.0303
     20  CAF      -51.9370  -15.8970   28.9210 C.ar  701  0F2701      0.1342
     21  NAG      -51.6210  -15.0640   27.9360 N.2   701  0F2701     -0.4005
     22  CAE      -52.7110  -16.9090   28.3610 C.ar  701  0F2701      0.0661
     23  CAI      -52.7920  -16.6610   27.0560 C.2   701  0F2701      0.0389
     24  CAH      -52.1410  -15.5230   26.7970 C.2   701  0F2701      0.1480
     25  CAT      -52.0010  -14.8990   25.5570 C.2   701  0F2701      0.1256
     26  CAW      -52.6430  -15.2880   24.3950 C.3   701  0F2701      0.1378
     27  S1       -53.6860  -16.3680   23.6450 S.3   701  0F2701     -0.1016
     28  CAZ      -53.5870  -15.6740   22.1060 C.2   701  0F2701      0.0329
     29  CAY      -52.7530  -14.6280   22.2000 C.2   701  0F2701      0.0244
     30  CAX      -52.2170  -14.3900   23.4200 C.2   701  0F2701      0.0968
     31  NAV      -51.4040  -13.5400   24.0560 N.2   701  0F2701     -0.1513
     32  NAU      -51.2780  -13.8230   25.2540 N.2   701  0F2701     -0.1488
@<TRIPOS>BOND
     1    28    29    2
     2    28    27    1
     3    29    30    1
     4    30    31    2
     5    30    26    1
     6    27    26    1
     7    31    32    1
     8    26    25    1
     9     3     4    1
    10     3     2    1
    11     4     5    1
    12    32    25    2
    13    25    24    1
    14     2     1    1
    15     5     6    1
    16    24    23    1
    17    24    21    2
    18    23    22    2
    19     1     6    1
    20     6     7    1
    21    21    20    2
    22    22    20   ar
    23    22    10   ar
    24     7     8    1
    25     9     8    1
    26     9    10    1
    27    20    19   ar
    28    10    11   ar
    29    19    12   ar
    30    11    12   ar
    31    12    13    1
    32    17    16    1
    33    13    16    1
    34    13    18    1
    35    13    14    1
    36    14    15    1
