@<TRIPOS>MOLECULE
3v5l_0G1_A_1.pdb
 31 35 0 0 0
SMALL
GASTEIGER

@<TRIPOS>ATOM
      1  CBE       14.0830    8.7330    0.4150 C.3   701  0G1701      0.2525
      2  OBD       13.0540    9.1270    1.3270 O.3   701  0G1701     -0.4714
      3  CBA       11.9110    8.4330    1.0720 C.ar  701  0G1701      0.1387
      4  CBB       11.7370    7.1520    1.5980 C.ar  701  0G1701      0.0369
      5  CBC       10.5550    6.4540    1.3510 C.ar  701  0G1701      0.0032
      6  CAZ       10.9080    9.0040    0.2900 C.ar  701  0G1701      0.0369
      7  CAY        9.7290    8.3000    0.0350 C.ar  701  0G1701      0.0032
      8  CAX        9.5660    7.0090    0.5360 C.ar  701  0G1701      0.0028
      9  CAG        8.3890    6.3000    0.3150 C.2   701  0G1701      0.0333
     10  CAH        7.2280    6.5520    1.0330 C.ar  701  0G1701      0.0321
     11  CAA        6.8620    7.5220    1.9710 C.ar  701  0G1701      0.0024
     12  CAB        5.5670    7.5210    2.4970 C.ar  701  0G1701     -0.0018
     13  CAC        4.6410    6.5460    2.1050 C.ar  701  0G1701      0.0076
     14  CAJ        3.2120    6.5460    2.6950 C.3   701  0G1701      0.1454
     15  CAK        3.2760    6.7070    4.2180 C.3   701  0G1701      0.0347
     16  CAO        4.0250    5.5430    4.8760 C.3   701  0G1701      0.0030
     17  CAM        2.4140    7.7140    2.1080 C.3   701  0G1701      0.0347
     18  CAN        2.0640    7.4790    0.6360 C.3   701  0G1701      0.0030
     19  OAL        2.5320    5.3190    2.4010 O.3   701  0G1701     -0.2212
     20  CAD        5.0230    5.5730    1.1760 C.ar  701  0G1701      0.0301
     21  CAI        6.3090    5.5840    0.6330 C.ar  701  0G1701      0.1313
     22  NAE        6.9070    4.7780   -0.2400 N.2   701  0G1701     -0.4006
     23  CAF        8.1770    5.1410   -0.4440 C.2   701  0G1701      0.1478
     24  CAP        9.0170    4.4830   -1.3600 C.2   701  0G1701      0.1256
     25  CAT       10.2630    4.8540   -1.8620 C.3   701  0G1701      0.1378
     26  SAS       11.5770    5.9160   -1.8420 S.3   701  0G1701     -0.1016
     27  CAW       12.5140    5.1070   -2.9870 C.2   701  0G1701      0.0329
     28  CAV       11.8110    4.0290   -3.3620 C.2   701  0G1701      0.0244
     29  CAU       10.6080    3.8480   -2.7710 C.2   701  0G1701      0.0968
     30  NAR        9.5780    2.9980   -2.7760 N.2   701  0G1701     -0.1513
     31  NAQ        8.6830    3.3640   -2.0070 N.2   701  0G1701     -0.1488
@<TRIPOS>BOND
     1    28    27    2
     2    28    29    1
     3    27    26    1
     4    30    29    2
     5    30    31    1
     6    29    25    1
     7    31    24    2
     8    25    26    1
     9    25    24    1
    10    24    23    1
    11    23    22    2
    12    23     9    1
    13    22    21    2
    14     7     6   ar
    15     7     8   ar
    16     6     3   ar
    17     9     8    1
    18     9    10    2
    19     1     2    1
    20     8     5   ar
    21    21    10   ar
    22    21    20   ar
    23    18    17    1
    24    10    11   ar
    25     3     2    1
    26     3     4   ar
    27    20    13   ar
    28     5     4   ar
    29    11    12   ar
    30    13    12   ar
    31    13    14    1
    32    17    14    1
    33    19    14    1
    34    14    15    1
    35    15    16    1
