@<TRIPOS>MOLECULE
3v5m_MA4_A_1.pdb
 35 37 0 0 0
SMALL
GASTEIGER

@<TRIPOS>ATOM
      1  C1        35.8500   25.1570    2.5040 C.3   400  MA4400      0.2695
      2  C2        36.3970   24.5670    1.1980 C.3   400  MA4400      0.2406
      3  C3        36.0400   23.0870    1.0720 C.3   400  MA4400      0.2198
      4  C4        36.4130   22.3440    2.3480 C.3   400  MA4400      0.2144
      5  C5        35.8560   23.0560    3.5880 C.3   400  MA4400      0.1835
      6  C6        36.2830   22.4750    4.8980 C.3   400  MA4400      0.2142
      7  O2        35.8490   25.2510    0.0710 O.3   400  MA4400     -0.2149
      8  O3        36.7720   22.5480   -0.0720 O.3   400  MA4400     -0.2174
      9  O5        36.2610   24.4320    3.6630 O.3   400  MA4400     -0.3256
     10  O6        37.7240   22.3910    4.9620 O.3   400  MA4400     -0.2176
     11  O1        34.4220   25.1540    2.4320 O.3   400  MA4400     -0.3257
     12  O4        35.8390   21.0260    2.3130 O.3   400  MA4400     -0.2176
     13  C10       31.2300   27.5590    2.9400 C.3   400  MA4400      0.2695
     14  C20       32.0480   27.9260    1.7200 C.3   400  MA4400      0.2404
     15  C30       32.9160   26.6980    1.4620 C.3   400  MA4400      0.2167
     16  C40       33.7730   26.3970    2.6700 C.3   400  MA4400      0.1804
     17  C50       32.8910   26.1780    3.9020 C.3   400  MA4400      0.1803
     18  C60       33.7300   26.0190    5.1600 C.3   400  MA4400      0.2141
     19  O10       30.3510   28.6690    3.2110 O.3   400  MA4400     -0.3286
     20  O20       31.2130   28.1260    0.5920 O.3   400  MA4400     -0.2149
     21  O30       33.7040   26.9250    0.2800 O.3   400  MA4400     -0.2175
     22  O50       32.0520   27.3390    4.0760 O.3   400  MA4400     -0.3257
     23  O60       34.5980   27.1660    5.3040 O.3   400  MA4400     -0.2176
     24  C11       29.3660   28.3430    4.2010 C.3   400  MA4400      0.1449
     25  C21       28.0890   28.0130    3.4830 C.3   400  MA4400      0.0322
     26  C31       27.0160   27.5940    4.4850 C.3   400  MA4400      0.0026
     27  C41       25.6300   27.7500    3.8540 C.3   400  MA4400      0.0001
     28  C51       24.5220   28.0490    4.8650 C.3   400  MA4400      0.0000
     29  C61       24.5780   27.1030    6.0580 C.3   400  MA4400      0.0000
     30  C12       23.2530   26.9540    6.7840 C.3   400  MA4400      0.0000
     31  C22       23.2990   27.8470    8.0350 C.3   400  MA4400      0.0000
     32  C32       22.8130   27.2580    9.3430 C.3   400  MA4400      0.0000
     33  C42       21.8060   26.1640    9.0720 C.3   400  MA4400      0.0000
     34  C52       22.5490   25.0420    8.3710 C.3   400  MA4400      0.0000
     35  C62       23.0950   25.4490    7.0210 C.3   400  MA4400      0.0000
@<TRIPOS>BOND
     1     8     3    1
     2     7     2    1
     3    21    15    1
     4    20    14    1
     5     3     2    1
     6     3     4    1
     7     2     1    1
     8    15    14    1
     9    15    16    1
    10    14    13    1
    11    12     4    1
    12     4     5    1
    13    11     1    1
    14    11    16    1
    15     1     9    1
    16    16    17    1
    17    13    19    1
    18    13    22    1
    19    19    24    1
    20    25    24    1
    21    25    26    1
    22     5     9    1
    23     5     6    1
    24    27    26    1
    25    27    28    1
    26    17    22    1
    27    17    18    1
    28    28    29    1
    29     6    10    1
    30    18    23    1
    31    29    30    1
    32    30    35    1
    33    30    31    1
    34    35    34    1
    35    31    32    1
    36    34    33    1
    37    33    32    1
