@<TRIPOS>MOLECULE
3v5p_C88_A_1.pdb
 26 29 0 0 0
SMALL
GASTEIGER

@<TRIPOS>ATOM
      1  CAJ       28.8170   17.4320   29.3050 C.3     1  C881        0.0231
      2  CAH       29.3390   17.8460   27.9220 C.3     1  C881        0.0888
      3  NAP       28.2270   18.4280   27.1630 N.3     1  C881       -0.2180
      4  CAI       27.2200   17.3860   26.8920 C.3     1  C881        0.0888
      5  CAK       26.6140   16.8700   28.2150 C.3     1  C881        0.0231
      6  CAY       27.6810   16.3910   29.2170 C.3     1  C881        0.0522
      7  CAL       27.0480   16.2670   30.6130 C.3     1  C881        0.2317
      8  NAZ       26.0680   15.1710   30.8450 N.pl3   1  C881       -0.0797
      9  NAO       24.8900   15.3960   31.1450 N.2     1  C881       -0.0912
     10  C4        26.3310   13.8590   30.8490 C.2     1  C881        0.3406
     11  N3        27.4440   13.1320   30.6170 N.2     1  C881       -0.0088
     12  C2        27.4040   11.8080   30.6710 C.3     1  C881        0.5248
     13  N1        26.2830   11.1540   30.9690 N.2     1  C881       -0.0027
     14  C6        25.1430   11.8160   31.2340 C.2     1  C881        0.4081
     15  NAC       24.0470   11.1180   31.5280 N.pl3   1  C881        0.2118
     16  C5        25.1400   13.2140   31.1810 C.3     1  C881        0.2639
     17  CAV       24.2190   14.2550   31.3450 C.2     1  C881        0.1226
     18  CAS       22.8770   14.1980   31.7330 C.ar    1  C881        0.0181
     19  CAG       22.5120   13.4630   32.8740 C.ar    1  C881        0.0000
     20  CAR       21.1890   13.4510   33.3250 C.ar    1  C881        0.0122
     21  CAB       20.7840   12.6150   34.5330 C.3     1  C881        0.0342
     22  CAU       20.2240   14.2000   32.6570 C.ar    1  C881        0.1347
     23  OAQ       18.9570   14.1460   33.1180 O.3     1  C881       -0.4717
     24  CAA       18.0010   15.0350   32.5030 C.3     1  C881        0.2525
     25  CAE       20.5790   14.9610   31.5310 C.ar    1  C881        0.0366
     26  CAD       21.9040   14.9700   31.0890 C.ar    1  C881        0.0044
@<TRIPOS>BOND
     1     4     3    1
     2     4     5    1
     3     3     2    1
     4     2     1    1
     5     5     6    1
     6     6     1    1
     7     6     7    1
     8     7     8    1
     9    11    12    1
    10    11    10    2
    11    12    13    1
    12     8    10    1
    13     8     9    1
    14    10    16    1
    15    13    14    2
    16    26    25   ar
    17    26    18   ar
    18     9    17    2
    19    16    14    1
    20    16    17    1
    21    14    15    1
    22    17    18    1
    23    25    22   ar
    24    18    19   ar
    25    24    23    1
    26    22    23    1
    27    22    20   ar
    28    19    20   ar
    29    20    21    1
