@<TRIPOS>MOLECULE
3v5q_0F4_A_1.pdb
 37 41 0 0 0
SMALL
GASTEIGER

@<TRIPOS>ATOM
      1  F1       -10.8120  -29.0820   -7.1700 F     902  0F4902     -0.1659
      2  C2       -10.0890  -28.7650   -8.2220 C.3   902  0F4902      0.4186
      3  F3       -10.7060  -29.2650   -9.2730 F     902  0F4902     -0.1659
      4  F4        -9.9880  -27.4460   -8.2950 F     902  0F4902     -0.1659
      5  C5        -8.7000  -29.3340   -8.1270 C.ar  902  0F4902      0.0727
      6  C6        -8.1130  -29.5920   -6.8950 C.ar  902  0F4902      0.0039
      7  C7        -6.8230  -30.1190   -6.8290 C.ar  902  0F4902      0.0013
      8  C8        -6.1200  -30.3990   -7.9940 C.ar  902  0F4902      0.0166
      9  C9        -6.7040  -30.1530   -9.2280 C.ar  902  0F4902      0.0749
     10  N10       -5.9710  -30.4380  -10.3350 N.am  902  0F4902     -0.1607
     11  C11       -6.1990  -30.0320  -11.5910 C.2   902  0F4902      0.3477
     12  O12       -7.1440  -29.3370  -11.9230 O.2   902  0F4902     -0.2484
     13  N13       -5.3150  -30.4760  -12.4820 N.am  902  0F4902     -0.1606
     14  C14       -5.3310  -30.1820  -13.8020 C.ar  902  0F4902      0.0763
     15  C15       -4.1430  -29.7340  -14.3740 C.ar  902  0F4902      0.0167
     16  C16       -4.0850  -29.4410  -15.7340 C.ar  902  0F4902      0.0027
     17  C17       -5.2220  -29.6150  -16.5150 C.ar  902  0F4902      0.0166
     18  C18       -6.4270  -30.0620  -15.9570 C.ar  902  0F4902      0.0714
     19  N19       -7.5770  -30.2470  -16.6760 N.pl3 902  0F4902     -0.2163
     20  C20       -8.0000  -29.6010  -17.8040 C.2   902  0F4902      0.0553
     21  C21       -7.3770  -28.4580  -18.3280 C.2   902  0F4902      0.0126
     22  C22       -7.8480  -27.8440  -19.4880 C.2   902  0F4902      0.0040
     23  C23       -8.9550  -28.4020  -20.1060 C.2   902  0F4902      0.0387
     24  C24       -9.6080  -29.5480  -19.6210 C.2   902  0F4902      0.1284
     25  N25      -10.6760  -29.8780  -20.4130 N.2   902  0F4902     -0.3369
     26  C26      -10.7490  -28.9960  -21.4130 C.1   902  0F4902      0.2044
     27  O27      -11.6360  -29.0290  -22.3420 O.2   902  0F4902     -0.2093
     28  C28       -9.6790  -28.0050  -21.3210 C.2   902  0F4902      0.0980
     29  C29       -9.2930  -26.8210  -22.1360 C.2   902  0F4902      0.0277
     30  C30      -10.0340  -26.4400  -23.3660 C.2   902  0F4902      0.0642
     31  C31       -9.6760  -25.3470  -24.1440 C.3   902  0F4902      0.0734
     32  C32      -10.6210  -25.3430  -25.1610 C.2   902  0F4902      0.0008
     33  C33      -11.4750  -26.4190  -24.9330 C.2   902  0F4902      0.0943
     34  N34      -11.1050  -27.1020  -23.8070 N.2   902  0F4902     -0.2481
     35  C36       -9.1200  -30.1290  -18.4490 C.3   902  0F4902      0.1030
     36  C37       -6.4620  -30.3550  -14.5960 C.ar  902  0F4902      0.0331
     37  C38       -7.9990  -29.6220   -9.2880 C.ar  902  0F4902      0.0205
@<TRIPOS>BOND
     1    32    33    2
     2    32    31    1
     3    33    34    1
     4    31    30    1
     5    34    30    2
     6    30    29    1
     7    27    26    2
     8    29    28    2
     9    26    28    1
    10    26    25    2
    11    28    23    1
    12    25    24    2
    13    23    24    1
    14    23    22    2
    15    24    35    1
    16    22    21    1
    17    35    20    1
    18    21    20    2
    19    20    19    1
    20    19    18    1
    21    17    18   ar
    22    17    16   ar
    23    18    36   ar
    24    16    15   ar
    25    36    14   ar
    26    15    14   ar
    27    14    13    1
    28    13    11   am
    29    12    11    2
    30    11    10   am
    31    10     9    1
    32    37     9   ar
    33    37     5   ar
    34     3     2    1
    35     9     8   ar
    36     4     2    1
    37     2     5    1
    38     2     1    1
    39     5     6   ar
    40     8     7   ar
    41     6     7   ar
