@<TRIPOS>MOLECULE
3v5t_UW9_A_1.pdb
 31 34 0 0 0
SMALL
GASTEIGER

@<TRIPOS>ATOM
      1  CAB       21.1110   16.9650   61.2170 C.3   700  UW9700      0.0015
      2  CBB       19.7030   16.7740   60.6300 C.3   700  UW9700      0.0189
      3  CAC       19.5110   15.3400   60.1290 C.3   700  UW9700      0.0015
      4  CBC       18.5750   17.1380   61.6100 C.3   700  UW9700      0.1072
      5  NBD       18.4600   18.6100   61.7950 N.3   700  UW9700     -0.2680
      6  CAD       19.4370   19.1390   62.7620 C.3   700  UW9700      0.0897
      7  CAE       17.1090   18.9440   62.2650 C.3   700  UW9700      0.0897
      8  CAO       18.7040   16.3580   62.9470 C.3   700  UW9700      0.2474
      9  NBE       17.5540   15.4570   63.1680 N.pl3 700  UW9700     -0.0782
     10  NAR       16.3970   15.8350   63.4000 N.2   700  UW9700     -0.0912
     11  C4        17.6530   14.1390   63.1270 C.2   700  UW9700      0.3407
     12  N3        18.6930   13.3180   62.9030 N.2   700  UW9700     -0.0088
     13  C2        18.5000   12.0150   62.9430 C.3   700  UW9700      0.5248
     14  N1        17.2910   11.4890   63.1740 N.2   700  UW9700     -0.0027
     15  C6        16.2160   12.2580   63.3980 C.2   700  UW9700      0.4081
     16  NAF       15.0510   11.6610   63.6280 N.pl3 700  UW9700      0.2118
     17  C5        16.3750   13.6470   63.3830 C.3   700  UW9700      0.2639
     18  CAW       15.5880   14.7960   63.5590 C.2   700  UW9700      0.1226
     19  CAU       14.2300   14.8410   63.8520 C.ar  700  UW9700      0.0182
     20  CAM       13.7110   14.1780   64.9640 C.ar  700  UW9700      0.0013
     21  CAH       13.3690   15.5820   63.0640 C.ar  700  UW9700      0.0013
     22  CAJ       12.0040   15.6470   63.3520 C.ar  700  UW9700      0.0001
     23  CAX       11.4870   14.9700   64.4390 C.ar  700  UW9700      0.0030
     24  CAL       10.1440   15.0360   64.7140 C.ar  700  UW9700      0.0369
     25  CAY       12.3500   14.2480   65.2680 C.ar  700  UW9700      0.0002
     26  CAI       11.8380   13.5800   66.3640 C.ar  700  UW9700      0.0031
     27  CAG       10.4870   13.6340   66.6380 C.ar  700  UW9700      0.0369
     28  CAT        9.6260   14.3550   65.8130 C.ar  700  UW9700      0.1386
     29  OAS        8.2770   14.3800   66.1000 O.3   700  UW9700     -0.4755
     30  CAN        7.5090   15.0100   65.0530 C.3   700  UW9700      0.2055
     31  CAA        6.0440   14.5590   65.2760 C.3   700  UW9700      0.0512
@<TRIPOS>BOND
     1     3     2    1
     2     2     1    1
     3     2     4    1
     4     4     5    1
     5     4     8    1
     6     5     7    1
     7     5     6    1
     8    12    13    1
     9    12    11    2
    10    13    14    1
    11     8     9    1
    12    21    22   ar
    13    21    19   ar
    14    11     9    1
    15    11    17    1
    16     9    10    1
    17    14    15    2
    18    22    23   ar
    19    17    15    1
    20    17    18    1
    21    15    16    1
    22    10    18    2
    23    18    19    1
    24    19    20   ar
    25    23    24   ar
    26    23    25   ar
    27    24    28   ar
    28    20    25   ar
    29    30    31    1
    30    30    29    1
    31    25    26   ar
    32    28    29    1
    33    28    27   ar
    34    26    27   ar
