@<TRIPOS>MOLECULE
3v5w_8PR_A_1.pdb
 24 27 0 0 0
SMALL
GASTEIGER

@<TRIPOS>ATOM
      1  FAA       15.2110  -13.5850   47.5370 F     701  8PR701     -0.2042
      2  CAB       14.5940  -14.3720   49.6790 C.ar  701  8PR701      0.0293
      3  CAC       16.5820  -13.0420   49.3970 C.ar  701  8PR701      0.0293
      4  CAD       17.0900   -9.0680   53.7710 C.ar  701  8PR701      0.0402
      5  CAE       14.8520  -14.4650   51.0390 C.ar  701  8PR701     -0.0020
      6  CAF       16.8390  -13.1310   50.7590 C.ar  701  8PR701     -0.0020
      7  CAG       17.0870   -7.6730   53.7010 C.ar  701  8PR701      0.0433
      8  CAH       14.7490   -9.1180   53.1910 C.ar  701  8PR701      0.0770
      9  CAI       16.8880  -15.4620   54.8690 C.3   701  8PR701      0.0890
     10  CAJ       16.4560  -15.3920   53.4130 C.3   701  8PR701      0.0233
     11  CAK       15.4990  -13.4020   55.3570 C.3   701  8PR701      0.0927
     12  CAL       14.2570   -5.6270   53.0750 C.3   701  8PR701      0.4294
     13  CAM       14.7660  -11.9260   53.5420 C.3   701  8PR701      0.2071
     14  NAN       15.9900  -14.7180   55.7310 N.3   701  8PR701     -0.2179
     15  OAO       15.9590  -11.1480   53.5910 O.3   701  8PR701     -0.4753
     16  OAP       15.6710   -5.6910   53.2390 O.3   701  8PR701     -0.4346
     17  OAQ       13.7170   -6.9160   52.8360 O.3   701  8PR701     -0.4345
     18  CAR       15.4610  -13.6650   48.8590 C.ar  701  8PR701      0.1401
     19  CAS       15.9260   -9.7880   53.5200 C.ar  701  8PR701      0.1418
     20  CAT       15.9740  -13.8400   51.5810 C.ar  701  8PR701     -0.0221
     21  CAU       15.9080   -7.0180   53.3730 C.ar  701  8PR701      0.1766
     22  CAV       14.7540   -7.7370   53.1280 C.ar  701  8PR701      0.1794
     23  CAW       15.1180  -13.3590   53.8810 C.3   701  8PR701      0.0652
     24  CAX       16.2550  -13.9320   53.0300 C.3   701  8PR701      0.0288
@<TRIPOS>BOND
     1     1    18    1
     2    18     3   ar
     3    18     2   ar
     4     3     6   ar
     5     2     5   ar
     6     6    20   ar
     7     5    20   ar
     8    20    24    1
     9    17    12    1
    10    17    22    1
    11    24    10    1
    12    24    23    1
    13    12    16    1
    14    22     8   ar
    15    22    21   ar
    16     8    19   ar
    17    16    21    1
    18    21     7   ar
    19    10     9    1
    20    19    15    1
    21    19     4   ar
    22    13    15    1
    23    13    23    1
    24     7     4   ar
    25    23    11    1
    26     9    14    1
    27    11    14    1
