@<TRIPOS>MOLECULE
3v66_D3A_A_1.pdb
 38 42 0 0 0
SMALL
GASTEIGER

@<TRIPOS>ATOM
      1  C37       21.8720   -2.1330   53.0910 C.3   402  D3A402      0.2526
      2  O36       20.5930   -1.4920   52.8580 O.3   402  D3A402     -0.4686
      3  C21       20.3380   -0.2750   53.4560 C.ar  402  D3A402      0.1709
      4  C20       20.9950    0.9090   53.0810 C.ar  402  D3A402      0.1722
      5  O34       21.9090    0.7880   52.0390 O.3   402  D3A402     -0.4684
      6  C35       22.6030    1.9300   51.5030 C.3   402  D3A402      0.2526
      7  C19       20.6550    2.1270   53.7100 C.ar  402  D3A402      0.0400
      8  C18       19.7170    2.1660   54.7330 C.ar  402  D3A402      0.0031
      9  C17       19.0780    0.9910   55.1100 C.ar  402  D3A402      0.0016
     10  C8        19.3970   -0.2230   54.4790 C.ar  402  D3A402      0.0458
     11  C7        18.6810   -1.4890   54.9610 C.3   402  D3A402      0.1645
     12  C1        17.4260   -1.9000   54.1900 C.ar  402  D3A402      0.0258
     13  O6        18.3420   -1.4210   56.3810 O.3   402  D3A402     -0.3433
     14  C5        17.6050   -2.5030   56.9970 C.3   402  D3A402      0.1631
     15  C4        17.9650   -3.8720   56.3740 C.ar  402  D3A402      0.0689
     16  C10       18.6620   -4.9580   56.8990 C.ar  402  D3A402      0.0170
     17  C11       18.7390   -5.9110   55.9120 C.ar  402  D3A402      0.0202
     18  C12       18.1040   -5.4160   54.7630 C.ar  402  D3A402      0.0799
     19  N3        17.6340   -4.1350   55.0220 N.ar  402  D3A402     -0.3065
     20  C2        16.9620   -3.2470   54.2810 C.ar  402  D3A402      0.0624
     21  C13       15.8000   -3.5740   53.5210 C.ar  402  D3A402      0.0181
     22  C14       15.1670   -2.6030   52.7670 C.ar  402  D3A402      0.0129
     23  C15       15.6380   -1.3020   52.6960 C.ar  402  D3A402      0.0575
     24  C16       16.7640   -0.9220   53.4000 C.ar  402  D3A402      0.0112
     25 CL1        14.7780   -0.1290   51.7330 Cl    402  D3A402     -0.0823
     26  C9        17.7820   -2.2220   58.5160 C.3   402  D3A402      0.1208
     27  C22       16.4850   -2.4580   59.3080 C.2   402  D3A402      0.2285
     28  O24       15.4810   -2.8610   58.6750 O.2   402  D3A402     -0.2748
     29  N23       16.4370   -2.2480   60.6450 N.am  402  D3A402     -0.2795
     30  C25       15.1130   -2.2500   61.3600 C.3   402  D3A402      0.0934
     31  C26       14.8050   -0.8850   62.0180 C.3   402  D3A402      0.0221
     32  C27       16.0200   -0.1600   62.6730 C.3   402  D3A402      0.0147
     33  C28       17.3090   -0.2100   61.8080 C.3   402  D3A402      0.0221
     34  C29       17.6340   -1.6380   61.3480 C.3   402  D3A402      0.0934
     35  C30       15.6780    1.2980   63.0700 C.3   402  D3A402      0.1142
     36  C31       14.5610    1.4340   64.0850 C.2   402  D3A402      0.3649
     37  O32       14.5690    0.6630   65.0570 O.co2 402  D3A402     -0.2457
     38  O33       13.6810    2.2960   63.8900 O.co2 402  D3A402     -0.2457
@<TRIPOS>BOND
     1     6     5    1
     2    25    23    1
     3     5     4    1
     4    23    22   ar
     5    23    24   ar
     6    22    21   ar
     7     2     1    1
     8     2     3    1
     9     4     3   ar
    10     4     7   ar
    11    24    12   ar
    12     3    10   ar
    13    21    20   ar
    14     7     8   ar
    15    12    20   ar
    16    12    11    1
    17    20    19    1
    18    10    11    1
    19    10     9   ar
    20     8     9   ar
    21    18    19   ar
    22    18    17   ar
    23    11    13    1
    24    19    15   ar
    25    17    16   ar
    26    15    16   ar
    27    15    14    1
    28    13    14    1
    29    14    26    1
    30    26    27    1
    31    28    27    2
    32    27    29   am
    33    29    34    1
    34    29    30    1
    35    34    33    1
    36    30    31    1
    37    33    32    1
    38    31    32    1
    39    32    35    1
    40    35    36    1
    41    38    36   ar
    42    36    37   ar
