@<TRIPOS>MOLECULE
3v6h_DCP_A_1.pdb
 28 29 0 0 0
SMALL
GASTEIGER

@<TRIPOS>ATOM
      1  N1         7.4380   16.2970   49.5630 N.am  401  DCP401     -0.1802
      2  C2         6.9490   14.9500   49.5880 C.1   401  DCP401      0.2756
      3  N3         7.2070   14.0750   48.5780 N.2   401  DCP401     -0.3024
      4  C4         7.9520   14.4670   47.5310 C.2   401  DCP401      0.2346
      5  C5         8.4430   15.7860   47.4760 C.2   401  DCP401      0.0687
      6  C6         8.1780   16.6990   48.5110 C.2   401  DCP401      0.0835
      7  O2         6.2580   14.5580   50.5560 O.2   401  DCP401     -0.1925
      8  N4         8.1990   13.5660   46.5480 N.pl3 401  DCP401     -0.0921
      9  C1'        7.1130   17.1810   50.7170 C.3   401  DCP401      0.2090
     10  C2'        8.3000   17.2640   51.6790 C.3   401  DCP401      0.0874
     11  C3'        8.7780   18.7110   51.6490 C.3   401  DCP401      0.1857
     12  C4'        7.5850   19.4750   51.0550 C.3   401  DCP401      0.1773
     13  O4'        6.7640   18.5160   50.3570 O.3   401  DCP401     -0.3339
     14  O3'        9.1990   19.1540   52.9670 O.3   401  DCP401     -0.2203
     15  C5'        7.9590   20.6100   50.0980 C.3   401  DCP401      0.1812
     16  O5'        8.7210   20.1840   48.9400 O.3   401  DCP401     -0.3112
     17  PA         9.8540   21.1380   48.2680 P.3   401  DCP401      0.2189
     18  O1A        9.5580   22.5920   48.6180 O.3   401  DCP401     -0.4371
     19  O2A        9.9840   20.7720   46.7960 O.2   401  DCP401     -0.5170
     20  O3A       11.1800   20.6050   48.9770 O.3   401  DCP401     -0.2700
     21  PB        11.5570   20.8920   50.5080 P.3   401  DCP401      0.2277
     22  O1B       11.6950   19.6200   51.2940 O.3   401  DCP401     -0.4368
     23  O2B       10.7030   22.0280   51.0490 O.2   401  DCP401     -0.5168
     24  O3B       13.0730   21.3480   50.2220 O.3   401  DCP401     -0.2258
     25  PG        13.4450   22.7270   49.4530 P.3   401  DCP401      0.5373
     26  O1G       12.1880   23.5640   49.3930 O.3   401  DCP401     -0.1143
     27  O2G       13.9380   22.2800   48.0900 O.2   401  DCP401     -0.2221
     28  O3G       14.5080   23.3320   50.3390 O.3   401  DCP401     -0.1143
@<TRIPOS>BOND
     1     8     4    1
     2    19    17    2
     3     5     4    1
     4     5     6    2
     5     4     3    2
     6    27    25    2
     7    17    18    1
     8    17    16    1
     9    17    20    1
    10     6     1    1
    11     3     2    2
    12    16    15    1
    13    20    21    1
    14    26    25    1
    15    25    24    1
    16    25    28    1
    17     1     2   am
    18     1     9    1
    19     2     7    2
    20    15    12    1
    21    24    21    1
    22    13     9    1
    23    13    12    1
    24    21    23    2
    25    21    22    1
    26     9    10    1
    27    12    11    1
    28    11    10    1
    29    11    14    1
