@<TRIPOS>MOLECULE
3v6j_DCP_A_1.pdb
 28 29 0 0 0
SMALL
GASTEIGER

@<TRIPOS>ATOM
      1  N1         7.5010   -1.6180   49.8650 N.am  401  DCP401     -0.1802
      2  C2         6.9900   -2.9780   49.9230 C.1   401  DCP401      0.2756
      3  N3         7.2440   -3.8930   48.9010 N.2   401  DCP401     -0.3024
      4  C4         8.0190   -3.5010   47.8580 C.2   401  DCP401      0.2346
      5  C5         8.5280   -2.1800   47.7870 C.2   401  DCP401      0.0687
      6  C6         8.2620   -1.2370   48.8140 C.2   401  DCP401      0.0835
      7  O2         6.2900   -3.3280   50.9210 O.2   401  DCP401     -0.1925
      8  N4         8.2890   -4.4220   46.8990 N.pl3 401  DCP401     -0.0921
      9  C1'        7.2000   -0.7110   50.9930 C.3   401  DCP401      0.2090
     10  C2'        8.4390   -0.5940   51.9370 C.3   401  DCP401      0.0874
     11  C3'        8.9570    0.8350   51.8220 C.3   401  DCP401      0.1857
     12  C4'        7.6920    1.5630   51.2330 C.3   401  DCP401      0.1773
     13  O4'        6.8360    0.5790   50.5540 O.3   401  DCP401     -0.3339
     14  O3'        9.5360    1.2630   53.1080 O.3   401  DCP401     -0.2203
     15  C5'        7.9480    2.7170   50.2490 C.3   401  DCP401      0.1812
     16  O5'        8.6790    2.2920   49.0150 O.3   401  DCP401     -0.3112
     17  PA         9.9320    3.1660   48.3990 P.3   401  DCP401      0.2189
     18  O1A       10.1050    2.7410   46.9850 O.2   401  DCP401     -0.5170
     19  O2A        9.6750    4.6150   48.7360 O.3   401  DCP401     -0.4371
     20  O3A       11.2530    2.6990   49.0710 O.3   401  DCP401     -0.2700
     21  PB        11.7160    2.8720   50.5720 P.3   401  DCP401      0.2277
     22  O1B       10.9140    3.9890   51.2240 O.2   401  DCP401     -0.5168
     23  O2B       11.9080    1.6490   51.4180 O.3   401  DCP401     -0.4368
     24  O3B       13.2130    3.3570   50.2560 O.3   401  DCP401     -0.2258
     25  PG        13.6470    4.6790   49.4000 P.3   401  DCP401      0.5373
     26  O1G       12.4290    5.4380   49.0070 O.3   401  DCP401     -0.1143
     27  O2G       14.5420    5.2900   50.4840 O.3   401  DCP401     -0.1143
     28  O3G       14.3720    4.2090   48.1700 O.2   401  DCP401     -0.2221
@<TRIPOS>BOND
     1     8     4    1
     2    18    17    2
     3     5     4    1
     4     5     6    2
     5     4     3    2
     6    28    25    2
     7    17    19    1
     8    17    16    1
     9    17    20    1
    10     6     1    1
    11     3     2    2
    12    26    25    1
    13    16    15    1
    14    20    21    1
    15    25    24    1
    16    25    27    1
    17     1     2   am
    18     1     9    1
    19     2     7    2
    20    15    12    1
    21    24    21    1
    22    13     9    1
    23    13    12    1
    24    21    22    2
    25    21    23    1
    26     9    10    1
    27    12    11    1
    28    11    10    1
    29    11    14    1
