@<TRIPOS>MOLECULE
3v6q_HEM_A_1.pdb
 43 50 0 0 0
SMALL
GASTEIGER

@<TRIPOS>ATOM
      1  CHA        8.6740    0.0850   28.7070 C.2   601  HEM601      0.0000
      2  CHB        8.9500    4.9430   28.5090 C.2   601  HEM601      0.0000
      3  CHC       10.9480    4.6970   23.9880 C.2   601  HEM601      0.0000
      4  CHD       10.5900   -0.1540   24.2220 C.2   601  HEM601      0.0000
      5  C1A        8.5520    1.4030   29.0880 C.2   601  HEM601      0.0000
      6  C2A        8.0060    1.9140   30.3110 C.2   601  HEM601      0.0000
      7  C3A        8.0550    3.2710   30.2540 C.2   601  HEM601      0.0000
      8  C4A        8.6880    3.6580   28.9970 C.2   601  HEM601      0.0000
      9  CMA        7.6400    4.2510   31.3560 C.3   601  HEM601      0.0000
     10  CAA        7.4460    1.0420   31.4330 C.3   601  HEM601      0.0000
     11  CBA        8.6480    0.6940   32.2570 C.3   601  HEM601      0.0000
     12  CGA        8.3360   -0.1990   33.4650 C.2   601  HEM601      0.0000
     13  O1A        7.5210    0.1470   34.3950 O.co2 601  HEM601      0.0000
     14  O2A        9.0280   -1.2460   33.5400 O.co2 601  HEM601      0.0000
     15  C1B        9.4490    5.3050   27.2410 C.ar  601  HEM601      0.0000
     16  C2B        9.5480    6.6420   26.6940 C.ar  601  HEM601      0.0000
     17  C3B       10.0510    6.5770   25.4350 C.ar  601  HEM601      0.0000
     18  C4B       10.4060    5.2090   25.1570 C.ar  601  HEM601      0.0000
     19  CMB        9.0900    7.9160   27.4320 C.3   601  HEM601      0.0000
     20  CAB       10.3660    7.7580   24.5020 C.2   601  HEM601      0.0000
     21  CBB       10.7220    8.9270   25.0670 C.2   601  HEM601      0.0000
     22  C1C       11.0470    3.3690   23.6340 C.2   601  HEM601      0.0000
     23  C2C       11.6030    2.8000   22.4120 C.2   601  HEM601      0.0000
     24  C3C       11.5000    1.4500   22.5100 C.2   601  HEM601      0.0000
     25  C4C       10.8650    1.1300   23.7540 C.2   601  HEM601      0.0000
     26  CMC       12.2270    3.6590   21.2580 C.3   601  HEM601      0.0000
     27  CAC       11.9060    0.3320   21.5030 C.2   601  HEM601      0.0000
     28  CBC       12.5260    0.6120   20.3530 C.2   601  HEM601      0.0000
     29  C1D        9.9280   -0.5340   25.3740 C.ar  601  HEM601      0.0000
     30  C2D        9.4230   -1.8500   25.6970 C.ar  601  HEM601      0.0000
     31  C3D        8.9140   -1.7900   27.0880 C.ar  601  HEM601      0.0000
     32  C4D        9.0610   -0.4090   27.4970 C.ar  601  HEM601      0.0000
     33  CMD        9.4350   -3.1290   24.8480 C.3   601  HEM601      0.0000
     34  CAD        8.1800   -2.9060   27.8340 C.3   601  HEM601      0.0000
     35  CBD        6.7060   -2.8250   27.3730 C.3   601  HEM601      0.0000
     36  CGD        5.9820   -3.9580   28.0850 C.2   601  HEM601      0.0000
     37  O1D        5.9280   -5.0940   27.4920 O.co2 601  HEM601      0.0000
     38  O2D        5.5520   -3.7600   29.2790 O.co2 601  HEM601      0.0000
     39  NA         8.9580    2.4920   28.3440 N.2   601  HEM601      0.0000
     40  NB         9.9680    4.5010   26.2520 N.ar  601  HEM601      0.0000
     41  NC        10.6370    2.3090   24.4190 N.2   601  HEM601      0.0000
     42  ND         9.6800    0.2600   26.4680 N.ar  601  HEM601      0.0000
     43 FE          9.7880    2.3680   26.3130 Fe    601  HEM601      0.0000
@<TRIPOS>BOND
     1    28    27    2
     2    26    23    1
     3    27    24    1
     4    23    24    2
     5    23    22    1
     6    24    25    1
     7    22     3    2
     8    22    41    1
     9    25     4    1
    10    25    41    2
    11     3    18    1
    12     4    29    2
    13    41    43    1
    14    20    21    2
    15    20    17    1
    16    33    30    1
    17    18    17   ar
    18    18    40   ar
    19    29    30   ar
    20    29    42   ar
    21    17    16   ar
    22    30    31   ar
    23    40    43    1
    24    40    15   ar
    25    43    42    1
    26    43    39    1
    27    42    32   ar
    28    16    15   ar
    29    16    19    1
    30    31    32   ar
    31    31    34    1
    32    15     2    1
    33    35    34    1
    34    35    36    1
    35    37    36   ar
    36    32     1    2
    37    36    38   ar
    38    39     8    1
    39    39     5    2
    40     2     8    2
    41     1     5    1
    42     8     7    1
    43     5     6    1
    44     7     6    2
    45     7     9    1
    46     6    10    1
    47    10    11    1
    48    11    12    1
    49    12    14   ar
    50    12    13   ar
