@<TRIPOS>MOLECULE
3v6r_CQQ_A_1.pdb
 37 40 0 0 0
SMALL
GASTEIGER

@<TRIPOS>ATOM
      1  C01       21.0160  -17.6440  -27.5670 C.ar  403  CQQ403      0.1014
      2  N02       20.5660  -18.9120  -27.4930 N.ar  403  CQQ403     -0.2422
      3  C03       19.3900  -19.1900  -26.9220 C.ar  403  CQQ403      0.0989
      4  C04       18.5840  -18.1580  -26.4210 C.ar  403  CQQ403      0.0208
      5  C05       19.0170  -16.8320  -26.4810 C.ar  403  CQQ403      0.0057
      6  C06       20.2470  -16.5710  -27.0830 C.ar  403  CQQ403      0.0497
      7  C07       20.7730  -15.1850  -27.1360 C.2   403  CQQ403      0.1472
      8  N08       21.9590  -14.9460  -27.7510 N.2   403  CQQ403     -0.3361
      9  C09       20.0990  -14.1480  -26.4950 C.2   403  CQQ403      0.0546
     10  C10       20.6750  -12.8820  -26.5240 C.2   403  CQQ403      0.1144
     11  N11       21.8490  -12.6910  -27.1540 N.2   403  CQQ403     -0.1683
     12  C12       22.5210  -13.7070  -27.7580 C.1   403  CQQ403      0.1696
     13  N13       23.7770  -13.4280  -28.3680 N.pl3 403  CQQ403     -0.1357
     14  C14       24.5120  -14.5360  -28.8850 C.ar  403  CQQ403      0.0839
     15  C15       24.3960  -15.8260  -28.3460 C.ar  403  CQQ403      0.0339
     16  C16       25.3980  -14.3440  -29.9590 C.ar  403  CQQ403      0.0174
     17  C17       26.1180  -15.4300  -30.4800 C.ar  403  CQQ403      0.0027
     18  C18       25.9580  -16.7190  -29.9390 C.ar  403  CQQ403      0.0167
     19  C19       25.0560  -16.9270  -28.8970 C.ar  403  CQQ403      0.0750
     20  N20       24.8450  -18.2030  -28.3250 N.am  403  CQQ403     -0.1754
     21  C21       24.9450  -19.2450  -29.2130 C.2   403  CQQ403      0.2690
     22  O22       24.1810  -19.3350  -30.1640 O.2   403  CQQ403     -0.2680
     23  C23       26.0030  -20.2850  -28.9840 C.ar  403  CQQ403      0.0555
     24  C24       25.6470  -21.5410  -28.4840 C.ar  403  CQQ403      0.0059
     25  C25       26.6250  -22.5150  -28.2650 C.ar  403  CQQ403      0.0167
     26  C26       27.3470  -19.9890  -29.2290 C.ar  403  CQQ403      0.0059
     27  C27       28.3240  -20.9650  -29.0060 C.ar  403  CQQ403      0.0167
     28  C28       27.9770  -22.2320  -28.5180 C.ar  403  CQQ403      0.0734
     29  N29       29.0100  -23.1810  -28.3150 N.am  403  CQQ403     -0.1792
     30  C30       28.5680  -24.3680  -27.7630 C.2   403  CQQ403      0.2456
     31  O31       28.5680  -25.3880  -28.4340 O.2   403  CQQ403     -0.2730
     32  C32       28.0870  -24.4020  -26.3330 C.3   403  CQQ403      0.0886
     33  C33       29.2470  -24.5290  -25.3560 C.3   403  CQQ403      0.0270
     34  C34       28.9280  -25.7530  -24.4910 C.3   403  CQQ403      0.0727
     35  N35       29.1250  -25.5700  -23.0440 N.3   403  CQQ403     -0.2703
     36  C36       27.8800  -25.9290  -22.3220 C.3   403  CQQ403      0.0897
     37  C37       30.2610  -26.4260  -22.6350 C.3   403  CQQ403      0.0897
@<TRIPOS>BOND
     1    17    16   ar
     2    17    18   ar
     3    22    21    2
     4    16    14   ar
     5    18    19   ar
     6    26    27   ar
     7    26    23   ar
     8    21    23    1
     9    21    20   am
    10    27    28   ar
    11    23    24   ar
    12    19    15   ar
    13    19    20    1
    14    14    13    1
    15    14    15   ar
    16    28    29    1
    17    28    25   ar
    18    24    25   ar
    19    31    30    2
    20    13    12    1
    21    29    30   am
    22    30    32    1
    23    12     8    2
    24    12    11    2
    25     8     7    2
    26     1     2   ar
    27     1     6   ar
    28     2     3   ar
    29    11    10    1
    30     7     6    1
    31     7     9    1
    32     6     5   ar
    33     3     4   ar
    34    10     9    2
    35     5     4   ar
    36    32    33    1
    37    33    34    1
    38    34    35    1
    39    35    37    1
    40    35    36    1
