@<TRIPOS>MOLECULE
3v6s_0F0_A_1.pdb
 37 40 0 0 0
SMALL
GASTEIGER

@<TRIPOS>ATOM
      1  C01       20.7290  -17.6200  -27.1640 C.ar  501  0F0501      0.1014
      2  N02       20.2950  -18.8880  -27.0960 N.ar  501  0F0501     -0.2422
      3  C03       19.1150  -19.1420  -26.5370 C.ar  501  0F0501      0.0989
      4  C04       18.3370  -18.0930  -26.0260 C.ar  501  0F0501      0.0208
      5  C05       18.7620  -16.7630  -26.0900 C.ar  501  0F0501      0.0057
      6  C06       19.9910  -16.5300  -26.6800 C.ar  501  0F0501      0.0497
      7  C07       20.5490  -15.1550  -26.7280 C.2   501  0F0501      0.1472
      8  N08       21.7540  -14.9480  -27.3050 N.2   501  0F0501     -0.3361
      9  C09       19.8960  -14.0940  -26.1200 C.2   501  0F0501      0.0546
     10  C10       20.5140  -12.8430  -26.1590 C.2   501  0F0501      0.1144
     11  N11       21.7000  -12.6820  -26.7730 N.2   501  0F0501     -0.1683
     12  C12       22.3580  -13.7350  -27.3220 C.1   501  0F0501      0.1696
     13  N13       23.6200  -13.5260  -27.9420 N.pl3 501  0F0501     -0.1358
     14  C14       24.3470  -14.7170  -28.2640 C.ar  501  0F0501      0.0827
     15  C15       25.4930  -14.7240  -29.0730 C.ar  501  0F0501      0.0187
     16  C16       26.1750  -15.9310  -29.3510 C.ar  501  0F0501      0.0180
     17  C17       23.9560  -15.9420  -27.7000 C.ar  501  0F0501      0.0187
     18  C18       24.6040  -17.1360  -27.9850 C.ar  501  0F0501      0.0180
     19  C19       25.6950  -17.1450  -28.8380 C.ar  501  0F0501      0.0738
     20  N20       26.3570  -18.3800  -28.9700 N.am  501  0F0501     -0.1754
     21  C21       27.0730  -18.5870  -30.1150 C.2   501  0F0501      0.2690
     22  O22       26.7620  -18.0890  -31.1860 O.2   501  0F0501     -0.2680
     23  C23       28.2430  -19.5100  -29.9940 C.ar  501  0F0501      0.0567
     24  C24       29.4630  -19.1840  -30.5890 C.ar  501  0F0501      0.0047
     25  C25       30.5690  -20.0180  -30.4410 C.ar  501  0F0501      0.0015
     26  C26       30.4260  -21.2050  -29.7260 C.ar  501  0F0501      0.0166
     27  C27       29.2160  -21.5290  -29.0910 C.ar  501  0F0501      0.0735
     28  C28       28.1310  -20.6670  -29.2290 C.ar  501  0F0501      0.0212
     29  N29       28.9960  -22.7160  -28.3380 N.am  501  0F0501     -0.1792
     30  C30       30.0460  -23.3240  -27.6920 C.2   501  0F0501      0.2456
     31  O31       31.2230  -23.0370  -27.8990 O.2   501  0F0501     -0.2730
     32  C32       29.6630  -24.3870  -26.6960 C.3   501  0F0501      0.0886
     33  C33       30.8330  -24.7070  -25.7850 C.3   501  0F0501      0.0270
     34  C34       30.4350  -25.9030  -24.9330 C.3   501  0F0501      0.0727
     35  N35       31.1620  -25.9010  -23.6570 N.3   501  0F0501     -0.2703
     36  C36       30.1940  -26.0290  -22.5630 C.3   501  0F0501      0.0897
     37  C37       32.1450  -26.9860  -23.6240 C.3   501  0F0501      0.0897
@<TRIPOS>BOND
     1    22    21    2
     2    24    25   ar
     3    24    23   ar
     4    25    26   ar
     5    21    23    1
     6    21    20   am
     7    23    28   ar
     8    26    27   ar
     9    16    15   ar
    10    16    19   ar
    11    28    27   ar
    12    27    29    1
    13    15    14   ar
    14    20    19    1
    15    19    18   ar
    16    29    30   am
    17    14    13    1
    18    14    17   ar
    19    18    17   ar
    20    13    12    1
    21    31    30    2
    22    30    32    1
    23    12     8    2
    24    12    11    2
    25     8     7    2
    26     1     2   ar
    27     1     6   ar
    28     2     3   ar
    29    11    10    1
    30     7     6    1
    31     7     9    1
    32    32    33    1
    33     6     5   ar
    34     3     4   ar
    35    10     9    2
    36     5     4   ar
    37    33    34    1
    38    34    35    1
    39    35    37    1
    40    35    36    1
