@<TRIPOS>MOLECULE
3v70_GDP_A_1.pdb
 28 30 0 0 0
SMALL
GASTEIGER

@<TRIPOS>ATOM
      1  PB        22.7760   25.5810  115.6780 P.3   401  GDP401      0.5373
      2  O1B       22.6110   27.0940  115.7810 O.3   401  GDP401     -0.1143
      3  O2B       22.7250   24.8750  117.0380 O.3   401  GDP401     -0.1143
      4  O3B       21.8570   24.9580  114.6180 O.2   401  GDP401     -0.2221
      5  O3A       24.3090   25.3030  115.2730 O.3   401  GDP401     -0.2261
      6  PA        24.8360   24.8830  113.7970 P.3   401  GDP401      0.2231
      7  O1A       24.5530   25.9520  112.8450 O.2   401  GDP401     -0.5169
      8  O2A       24.3940   23.5100  113.4320 O.3   401  GDP401     -0.4370
      9  O5'       26.4220   24.8250  114.1010 O.3   401  GDP401     -0.3111
     10  C5'       27.1720   26.0040  114.4590 C.3   401  GDP401      0.1813
     11  C4'       28.5930   25.8720  113.9180 C.3   401  GDP401      0.1799
     12  O4'       29.2330   24.7040  114.5320 O.3   401  GDP401     -0.3326
     13  C3'       28.6210   25.6570  112.4070 C.3   401  GDP401      0.2158
     14  O3'       29.6180   26.4630  111.7560 O.3   401  GDP401     -0.2175
     15  C2'       28.9610   24.1790  112.2810 C.3   401  GDP401      0.2310
     16  O2'       29.6530   23.9080  111.1030 O.3   401  GDP401     -0.2158
     17  C1'       29.7970   23.8850  113.5110 C.3   401  GDP401      0.2293
     18  N9        29.7350   22.4540  113.9510 N.pl3 401  GDP401     -0.2354
     19  C8        28.6480   21.7670  114.3670 C.3   401  GDP401      0.2246
     20  N7        28.9930   20.5110  114.6910 N.2   401  GDP401     -0.2322
     21  C5        30.2980   20.3810  114.4750 C.2   401  GDP401      0.2182
     22  C6        31.2690   19.2970  114.6340 C.1   401  GDP401      0.2372
     23  O6        30.9070   18.1750  115.0620 O.2   401  GDP401     -0.2069
     24  N1        32.5440   19.5560  114.3180 N.2   401  GDP401     -0.2485
     25  C2        32.9570   20.7760  113.8620 C.1   401  GDP401      0.2531
     26  N2        34.2480   20.9700  113.5590 N.pl3 401  GDP401     -0.0226
     27  N3        32.1050   21.8240  113.7070 N.2   401  GDP401     -0.3074
     28  C4        30.7850   21.6550  114.0040 C.2   401  GDP401      0.2300
@<TRIPOS>BOND
     1    16    15    1
     2    14    13    1
     3    15    13    1
     4    15    17    1
     5    13    11    1
     6     7     6    2
     7     8     6    1
     8    17    18    1
     9    17    12    1
    10    26    25    1
    11    27    25    2
    12    27    28    2
    13     6     9    1
    14     6     5    1
    15    25    24    2
    16    11    10    1
    17    11    12    1
    18    18    28    1
    19    18    19    1
    20    28    21    1
    21     9    10    1
    22    24    22    2
    23    19    20    1
    24    21    22    1
    25    21    20    2
    26     4     1    2
    27    22    23    2
    28     5     1    1
    29     1     2    1
    30     1     3    1
