@<TRIPOS>MOLECULE
3v78_ET_A_1.pdb
 24 27 0 0 0
SMALL
GASTEIGER

@<TRIPOS>ATOM
      1  C1       -31.3840  -13.5770   -0.9690 C.3   301  ET301       0.0550
      2  C2       -32.1580  -14.7000   -0.6820 C.2   301  ET301      -0.0033
      3  C3       -33.2870  -14.5940    0.1410 C.2   301  ET301       0.0864
      4  C4       -33.6440  -13.3610    0.6860 C.2   301  ET301       0.0322
      5  N5       -33.1930  -10.9760    0.9450 N.pl3 301  ET301      -0.2871
      6  C6       -32.4600   -9.8680    0.7000 C.2   301  ET301       0.0515
      7  C7       -30.5500   -8.7530   -0.4050 C.ar  301  ET301       0.0193
      8  C8       -29.4140   -8.7960   -1.2200 C.ar  301  ET301       0.0891
      9  C9       -29.0150  -10.0200   -1.7920 C.ar  301  ET301       0.0180
     10  C10      -29.7570  -11.1790   -1.5440 C.ar  301  ET301       0.0012
     11  C11      -31.3010   -9.9340   -0.1530 C.ar  301  ET301       0.0147
     12  C12      -30.9110  -11.1320   -0.7170 C.ar  301  ET301      -0.0012
     13  C13      -31.7350  -12.3190   -0.4140 C.2   301  ET301      -0.0040
     14  C14      -32.8430  -12.2090    0.3990 C.2   301  ET301       0.0492
     15  C15      -32.8790   -8.5470    1.2410 C.ar  301  ET301       0.0136
     16  C16      -34.0070   -7.9970    0.6220 C.ar  301  ET301       0.0012
     17  C17      -34.4970   -6.7530    1.0210 C.ar  301  ET301       0.0000
     18  C18      -33.8430   -6.0570    2.0360 C.ar  301  ET301       0.0000
     19  C19      -32.6990   -6.6140    2.6180 C.ar  301  ET301       0.0000
     20  C20      -32.2040   -7.8530    2.2410 C.ar  301  ET301       0.0012
     21  C21      -34.3570  -10.8850    1.7880 C.3   301  ET301       0.0956
     22  C22      -35.7110  -10.8620    1.1630 C.3   301  ET301       0.0236
     23  N23      -34.0650  -15.7670    0.4140 N.pl3 301  ET301      -0.1283
     24  N24      -28.6640   -7.5920   -1.4580 N.pl3 301  ET301      -0.1281
@<TRIPOS>BOND
     1     9    10   ar
     2     9     8   ar
     3    10    12   ar
     4    24     8    1
     5     8     7   ar
     6     1     2    1
     7     1    13    1
     8    12    13    2
     9    12    11   ar
    10     2     3    2
    11    13    14    1
    12     7    11   ar
    13    11     6    2
    14     3    23    1
    15     3     4    1
    16    14     4    2
    17    14     5    1
    18    16    17   ar
    19    16    15   ar
    20     6     5    1
    21     6    15    1
    22     5    21    1
    23    17    18   ar
    24    22    21    1
    25    15    20   ar
    26    18    19   ar
    27    20    19   ar
