@<TRIPOS>MOLECULE
3v7c_C77_A_1.pdb
 40 46 0 0 0
SMALL
GASTEIGER

@<TRIPOS>ATOM
      1  N1        49.9470   25.2200   21.5180 N.2   401  C77401      0.0021
      2  C2        50.4120   25.3500   20.2750 C.3   401  C77401      0.5254
      3  N3        51.4730   24.6820   19.8380 N.2   401  C77401     -0.0055
      4  C4        52.0910   23.8210   20.6630 C.2   401  C77401      0.3518
      5  C5        51.6210   23.6580   21.9700 C.2   401  C77401      0.2526
      6  C6        50.5150   24.3910   22.3880 C.2   401  C77401      0.4393
      7  N6        50.0270   24.2920   23.6190 N.pl3 401  C77401      0.2180
      8  N7        52.3850   22.7510   22.5650 N.2   401  C77401     -0.2095
      9  C8        53.2910   22.3560   21.6660 C.3   401  C77401      0.3377
     10  N9        53.1150   22.9940   20.4980 N.pl3 401  C77401     -0.1440
     11  CAA       58.0420   23.7230   17.6750 C.3   401  C77401      0.0612
     12  CAB       55.8470   23.9710   16.4330 C.3   401  C77401      0.0612
     13  OAD       49.2520   13.9360   25.4270 O.2   401  C77401     -0.2023
     14  CAG       52.9750   17.1160   17.9250 C.3   401  C77401      0.1381
     15  CAH       49.2460   16.7730   19.7540 C.3   401  C77401      0.0004
     16  CAI       49.1240   16.9590   18.2110 C.3   401  C77401      0.0060
     17  CAJ       47.9010   16.5960   20.5270 C.3   401  C77401      0.0009
     18  CAK       50.3990   16.4830   17.3890 C.3   401  C77401      0.0445
     19  CAL       48.0290   16.8910   22.0430 C.3   401  C77401      0.0128
     20  CAM       45.3640   15.9010   24.9050 C.3   401  C77401      0.0848
     21  CAN       54.6000   19.1080   18.5680 C.3   401  C77401      0.1280
     22  NAR       51.3870   18.5400   17.8720 N.2   401  C77401     -0.1540
     23  NAS       52.4110   19.1330   18.1510 N.pl3 401  C77401     -0.0631
     24  NAT       47.0060   14.1980   25.4130 N.2   401  C77401     -0.1859
     25  NAU       48.1940   14.6000   23.5650 N.2   401  C77401     -0.1860
     26  OAV       53.4610   21.4690   18.7890 O.3   401  C77401     -0.3149
     27  OAW       56.4520   21.8290   17.5590 O.3   401  C77401     -0.3315
     28  OAX       56.0120   23.7580   18.8470 O.3   401  C77401     -0.3273
     29  SAY       46.5890   17.1460   24.4380 S.3   401  C77401     -0.1369
     30  CAZ       48.2050   14.2220   24.8420 C.1   401  C77401      0.2386
     31  CBA       51.6540   17.2920   17.7160 C.2   401  C77401      0.0749
     32  CBE       54.5550   20.6800   18.2640 C.3   401  C77401      0.1667
     33  CBF       46.7690   16.4230   22.7820 C.3   401  C77401      0.0729
     34  CBG       55.8110   21.3540   18.7610 C.3   401  C77401      0.1799
     35  CBH       55.3730   22.6260   19.4910 C.3   401  C77401      0.2196
     36  CBI       53.9090   22.7840   19.2480 C.3   401  C77401      0.3152
     37  NBJ       53.3580   18.3890   18.1990 N.3   401  C77401     -0.1608
     38  CBL       56.5740   23.3120   17.6100 C.3   401  C77401      0.1877
     39  CBM       46.0180   14.6160   24.4240 C.3   401  C77401      0.1509
     40  CBN       46.8410   14.9140   23.1490 C.3   401  C77401      0.1500
@<TRIPOS>BOND
     1    12    38    1
     2    18    31    1
     3    18    16    1
     4    27    38    1
     5    27    34    1
     6    38    11    1
     7    38    28    1
     8    31    22    2
     9    31    14    1
    10    22    23    1
    11    14    37    1
    12    23    37    1
    13    37    21    1
    14    16    15    1
    15    32    21    1
    16    32    34    1
    17    32    26    1
    18    34    35    1
    19    26    36    1
    20    28    35    1
    21    36    35    1
    22    36    10    1
    23    15    17    1
    24     3     2    1
    25     3     4    2
    26     2     1    1
    27    10     4    1
    28    10     9    1
    29    17    19    1
    30     4     5    1
    31     1     6    2
    32     9     8    1
    33     5     6    1
    34     5     8    2
    35    19    33    1
    36     6     7    1
    37    33    40    1
    38    33    29    1
    39    40    25    1
    40    40    39    1
    41    25    30    2
    42    39    20    1
    43    39    24    1
    44    29    20    1
    45    30    24    2
    46    30    13    2
