@<TRIPOS>MOLECULE
3v7m_GAL_A_1.pdb
 11 11 0 0 0
SMALL
GASTEIGER

@<TRIPOS>ATOM
      1  C1        10.2590   17.7190    4.1840 C.3   506  GAL506      0.1777
      2  C2        11.5550   16.9490    4.4830 C.3   506  GAL506      0.2141
      3  C3        12.0780   16.3400    3.1780 C.3   506  GAL506      0.2173
      4  C4        10.9960   15.6420    2.3540 C.3   506  GAL506      0.2142
      5  C5         9.7800   16.5440    2.2220 C.3   506  GAL506      0.1810
      6  C6         8.6240   15.8280    1.5590 C.3   506  GAL506      0.2141
      7  O2        12.5620   17.7570    5.0700 O.3   506  GAL506     -0.2176
      8  O3        13.0300   15.3590    3.4480 O.3   506  GAL506     -0.2175
      9  O4        10.6220   14.4120    2.9590 O.3   506  GAL506     -0.2176
     10  O5         9.3590   16.9020    3.5130 O.3   506  GAL506     -0.3481
     11  O6         8.6020   16.1200    0.1750 O.3   506  GAL506     -0.2176
@<TRIPOS>BOND
     1    11     6    1
     2     6     5    1
     3     5     4    1
     4     5    10    1
     5     4     9    1
     6     4     3    1
     7     3     8    1
     8     3     2    1
     9    10     1    1
    10     1     2    1
    11     2     7    1
