@<TRIPOS>MOLECULE
3v7m_MAN_A_1.pdb
 11 11 0 0 0
SMALL
GASTEIGER

@<TRIPOS>ATOM
      1  C1         3.7520   25.6310   11.8770 C.3   503  MAN503      0.1777
      2  C2         3.9090   25.4040   13.3640 C.3   503  MAN503      0.2141
      3  C3         5.2050   24.7040   13.6980 C.3   503  MAN503      0.2173
      4  C4         5.2190   23.4200   12.8820 C.3   503  MAN503      0.2142
      5  C5         5.1720   23.6810   11.3950 C.3   503  MAN503      0.1810
      6  C6         4.9440   22.3610   10.6830 C.3   503  MAN503      0.2141
      7  O2         2.8060   24.6320   13.7890 O.3   503  MAN503     -0.2176
      8  O3         5.0090   24.3340   15.0270 O.3   503  MAN503     -0.2175
      9  O4         6.3520   22.6240   13.1200 O.3   503  MAN503     -0.2176
     10  O5         4.1370   24.5700   11.0330 O.3   503  MAN503     -0.3481
     11  O6         4.7590   22.6440    9.3220 O.3   503  MAN503     -0.2176
@<TRIPOS>BOND
     1    11     6    1
     2     6     5    1
     3    10     5    1
     4    10     1    1
     5     5     4    1
     6     1     2    1
     7     4     9    1
     8     4     3    1
     9     2     3    1
    10     2     7    1
    11     3     8    1
