@<TRIPOS>MOLECULE
3v7r_32G_A_1.pdb
 33 37 0 0 0
SMALL
GASTEIGER

@<TRIPOS>ATOM
      1  N1        50.5120   25.3200   21.8410 N.2   500  32G500      0.0021
      2  C2        51.1550   25.5720   20.6830 C.3   500  32G500      0.5254
      3  N3        52.3030   24.9160   20.3780 N.2   500  32G500     -0.0055
      4  C4        52.8120   24.0350   21.2630 C.2   500  32G500      0.3501
      5  C5        52.1570   23.7770   22.4710 C.2   500  32G500      0.2525
      6  C6        50.9690   24.4340   22.7490 C.2   500  32G500      0.4393
      7  N6        50.2710   24.2520   23.8500 N.pl3 500  32G500      0.2180
      8  N7        52.8910   22.8640   23.1150 N.2   500  32G500     -0.2096
      9  C8        53.9670   22.5380   22.3940 C.3   500  32G500      0.3359
     10  N9        53.9030   23.2550   21.2500 N.pl3 500  32G500     -0.1676
     11  OAB       49.7860   13.7980   25.9290 O.2   500  32G500     -0.2023
     12  CAE       51.5380   19.2260   17.5100 C.3   500  32G500      0.1380
     13  CAF       48.8650   16.2170   19.8850 C.3   500  32G500      0.0004
     14  CAG       50.0040   16.9500   19.2460 C.3   500  32G500      0.0060
     15  CAH       48.3500   17.1500   20.9420 C.3   500  32G500      0.0009
     16  CAI       54.2690   21.1600   18.7470 C.3   500  32G500      0.0235
     17  CAJ       54.2480   22.7020   18.8960 C.3   500  32G500      0.0524
     18  CAK       50.1420   16.9780   17.7120 C.3   500  32G500      0.0445
     19  CAL       48.5930   16.6760   22.3220 C.3   500  32G500      0.0128
     20  CAM       53.4990   20.7770   17.4600 C.3   500  32G500      0.0960
     21  CAN       54.9090   23.1910   20.1560 C.3   500  32G500      0.2043
     22  CAO       46.0020   15.9050   25.2360 C.3   500  32G500      0.0848
     23  NAS       52.6830   17.4340   17.8410 N.2   500  32G500     -0.1540
     24  NAT       53.4660   18.4060   17.7720 N.pl3 500  32G500     -0.0631
     25  NAU       47.5570   14.0480   25.7160 N.2   500  32G500     -0.1859
     26  NAV       48.8520   14.6490   24.0360 N.2   500  32G500     -0.1860
     27  SAW       47.1000   17.1910   24.5970 S.3   500  32G500     -0.1369
     28  CAX       48.7970   14.1290   25.2560 C.1   500  32G500      0.2386
     29  CAY       51.4350   17.8890   17.6540 C.2   500  32G500      0.0749
     30  CBC       47.2890   16.3210   23.0290 C.3   500  32G500      0.0729
     31  NBD       52.8510   19.4670   17.6020 N.3   500  32G500     -0.1634
     32  CBF       46.6130   14.5850   24.7390 C.3   500  32G500      0.1509
     33  CBG       47.4890   14.8690   23.5330 C.3   500  32G500      0.1500
@<TRIPOS>BOND
     1    20    31    1
     2    20    16    1
     3    12    31    1
     4    12    29    1
     5    31    24    1
     6    29    18    1
     7    29    23    2
     8    18    14    1
     9    24    23    1
    10    16    17    1
    11    17    21    1
    12    14    13    1
    13    13    15    1
    14    21    10    1
    15     3     2    1
    16     3     4    2
    17     2     1    1
    18    15    19    1
    19    10     4    1
    20    10     9    1
    21     4     5    1
    22     1     6    2
    23    19    30    1
    24     9     8    1
    25     5     6    1
    26     5     8    2
    27     6     7    1
    28    30    33    1
    29    30    27    1
    30    33    26    1
    31    33    32    1
    32    26    28    2
    33    27    22    1
    34    32    22    1
    35    32    25    1
    36    28    25    2
    37    28    11    2
