@<TRIPOS>MOLECULE
3v7s_36F_A_1.pdb
 34 38 0 0 0
SMALL
GASTEIGER

@<TRIPOS>ATOM
      1  CAA       50.9900   24.1150   23.6860 C.3   401  36F401      0.0311
      2  OAB       49.3040   13.6750   25.5380 O.2   401  36F401     -0.2023
      3  OAC       55.3370   23.5110   17.8250 O.2   401  36F401     -0.2226
      4  CAD       51.6770   25.6000   21.7940 C.ar  401  36F401     -0.0010
      5  CAE       52.3770   25.8960   20.6160 C.ar  401  36F401      0.0388
      6  CAF       52.6490   23.3660   21.7740 C.ar  401  36F401      0.0162
      7  CAG       51.0050   18.7090   16.7960 C.3   401  36F401      0.1380
      8  CAH       48.8570   16.1200   19.6070 C.3   401  36F401      0.0004
      9  CAI       48.6830   17.0190   18.3590 C.3   401  36F401      0.0060
     10  CAJ       47.5860   16.0780   20.4540 C.3   401  36F401      0.0009
     11  CAK       54.0930   20.5810   17.6640 C.3   401  36F401      0.0212
     12  CAL       53.7180   20.7030   19.1470 C.3   401  36F401      0.0262
     13  CAM       49.5600   16.6450   17.1410 C.3   401  36F401      0.0445
     14  CAN       47.8610   16.6070   21.8570 C.3   401  36F401      0.0128
     15  CAO       52.8840   20.2980   16.7440 C.3   401  36F401      0.0959
     16  CAP       54.6760   21.6220   19.9040 C.3   401  36F401      0.1123
     17  CAQ       45.5370   15.9070   25.0820 C.3   401  36F401      0.0848
     18  NAR       52.0670   17.0220   17.5740 N.2   401  36F401     -0.1540
     19  NAS       52.8560   17.9660   17.4560 N.pl3 401  36F401     -0.0631
     20  NAT       47.0620   14.0230   25.5220 N.2   401  36F401     -0.1859
     21  NAU       48.2920   14.4690   23.6890 N.2   401  36F401     -0.1860
     22  OAV       53.9720   25.0200   18.8690 O.2   401  36F401     -0.4068
     23  SAW       46.6520   17.1170   24.3010 S.3   401  36F401     -0.1369
     24  CAX       48.2790   14.0290   24.9530 C.1   401  36F401      0.2386
     25  CAY       51.8070   24.3420   22.3880 C.ar  401  36F401     -0.0202
     26  CAZ       50.8660   17.4440   17.1670 C.2   401  36F401      0.0749
     27  CBA       54.5730   23.8070   18.7450 C.ar  401  36F401      0.4220
     28  CBB       53.2060   24.9440   20.0020 C.ar  401  36F401      0.1660
     29  CBC       53.3490   23.6640   20.5680 C.ar  401  36F401      0.0996
     30  CBD       46.7110   16.2040   22.7560 C.3   401  36F401      0.0729
     31  NBE       52.2810   18.9720   17.0100 N.3   401  36F401     -0.1634
     32  NBF       54.2020   23.0080   19.7510 N.ar  401  36F401     -0.2621
     33  CBG       46.0630   14.5370   24.5760 C.3   401  36F401      0.1509
     34  CBH       46.9010   14.7640   23.2870 C.3   401  36F401      0.1500
@<TRIPOS>BOND
     1    15    31    1
     2    15    11    1
     3     7    31    1
     4     7    26    1
     5    31    19    1
     6    13    26    1
     7    13     9    1
     8    26    18    2
     9    19    18    1
    10    11    12    1
    11     3    27    2
    12     9     8    1
    13    27    22   ar
    14    27    32   ar
    15    22    28   ar
    16    12    16    1
    17     8    10    1
    18    32    16    1
    19    32    29   ar
    20    28    29   ar
    21    28     5   ar
    22    10    14    1
    23    29     6   ar
    24     5     4   ar
    25     6    25   ar
    26     4    25   ar
    27    14    30    1
    28    25     1    1
    29    30    34    1
    30    30    23    1
    31    34    21    1
    32    34    33    1
    33    21    24    2
    34    23    17    1
    35    33    17    1
    36    33    20    1
    37    24    20    2
    38    24     2    2
