@<TRIPOS>MOLECULE
3v7t_0GX_A_1.pdb
 30 33 0 0 0
SMALL
GASTEIGER

@<TRIPOS>ATOM
      1  CBD       50.7940   -9.3510   -7.2960 C.3   301  0GX301      0.0040
      2  CAT       50.3620   -9.9000   -5.9450 C.3   301  0GX301      0.0474
      3  CAS       50.8420  -11.3410   -5.7950 C.3   301  0GX301      0.2061
      4  OAR       50.4700  -11.8350   -4.5040 O.3   301  0GX301     -0.4692
      5  CAN       49.1420  -12.1150   -4.4490 C.ar  301  0GX301      0.1747
      6  SAO       48.2740  -13.0790   -5.5360 S.2   301  0GX301     -0.0459
      7  CAM       48.2710  -11.6490   -3.4690 C.ar  301  0GX301      0.0716
      8 BR1        48.8340  -10.5280   -2.0510 Br    301  0GX301     -0.0456
      9  CAL       46.9470  -12.0780   -3.6450 C.ar  301  0GX301     -0.0017
     10  CAP       45.8120  -11.6970   -2.6870 C.3   301  0GX301      0.0323
     11  CAK       46.7880  -12.9270   -4.7450 C.ar  301  0GX301      0.0824
     12  CAI       45.4730  -13.4890   -5.2730 C.2   301  0GX301      0.2547
     13  OAJ       45.0740  -13.1170   -6.3760 O.2   301  0GX301     -0.2694
     14  NAE       44.7450  -14.3650   -4.5760 N.am  301  0GX301     -0.2789
     15  CAD       43.4690  -14.9460   -5.0020 C.3   301  0GX301      0.0760
     16  CAC       43.7090  -16.4240   -5.3640 C.3   301  0GX301      0.0243
     17  CAG       42.6460  -14.8500   -3.7060 C.3   301  0GX301      0.0215
     18  CAH       43.6870  -14.8430   -2.5620 C.3   301  0GX301      0.0215
     19  CAA       45.0550  -14.9330   -3.2620 C.3   301  0GX301      0.0760
     20  CAF       45.4330  -16.4150   -3.4680 C.3   301  0GX301      0.0243
     21  CAB       44.2790  -17.1860   -4.1500 C.3   301  0GX301      0.0278
     22  CAU       44.7010  -18.6200   -4.5010 C.ar  301  0GX301      0.0048
     23  CAZ       45.2030  -18.9550   -5.7640 C.ar  301  0GX301     -0.0049
     24  CAV       44.5770  -19.6030   -3.5190 C.ar  301  0GX301      0.1361
     25  FBA       44.0930  -19.2720   -2.3050 F     301  0GX301     -0.2045
     26  CAW       44.9470  -20.9210   -3.7900 C.ar  301  0GX301      0.0290
     27  CAX       45.4470  -21.2560   -5.0480 C.ar  301  0GX301     -0.0005
     28  CAY       45.5760  -20.2740   -6.0350 C.ar  301  0GX301     -0.0034
     29  CBB       46.1330  -20.6540   -7.4100 C.3   301  0GX301      0.1356
     30  NBC       45.0980  -20.4520   -8.4320 N.3   301  0GX301     -0.1262
@<TRIPOS>BOND
     1    30    29    1
     2    29    28    1
     3     1     2    1
     4    13    12    2
     5    28    23   ar
     6    28    27   ar
     7     2     3    1
     8     3     4    1
     9    23    22   ar
    10     6    11   ar
    11     6     5   ar
    12    16    15    1
    13    16    21    1
    14    12    11    1
    15    12    14   am
    16    27    26   ar
    17    15    14    1
    18    15    17    1
    19    11     9   ar
    20    14    19    1
    21     4     5    1
    22    22    21    1
    23    22    24   ar
    24     5     7   ar
    25    21    20    1
    26    26    24   ar
    27    17    18    1
    28     9     7   ar
    29     9    10    1
    30    24    25    1
    31     7     8    1
    32    20    19    1
    33    19    18    1
