@<TRIPOS>MOLECULE
3v7u_MTA_A_1.pdb
 20 22 0 0 0
SMALL
GASTEIGER

@<TRIPOS>ATOM
      1  CS        17.0190    4.5460   13.5450 C.3   301  MTA301      0.0693
      2  S5'       16.1960    5.6700   12.4200 S.3   301  MTA301     -0.1367
      3  C5'       17.2520    7.1490   12.4310 C.3   301  MTA301      0.0899
      4  C4'       18.2790    7.1770   13.5630 C.3   301  MTA301      0.1630
      5  O4'       19.2330    8.2090   13.2160 O.3   301  MTA301     -0.3153
      6  C2'       17.6360    9.1190   14.7170 C.3   301  MTA301      0.2569
      7  O2'       17.5900    9.7900   15.9760 O.3   301  MTA301     -0.2130
      8  C3'       17.7090    7.6170   14.9140 C.3   301  MTA301      0.2168
      9  O3'       18.6820    7.3040   15.9140 O.3   301  MTA301     -0.2175
     10  C1'       18.9970    9.3600   14.0970 C.3   301  MTA301      0.3185
     11  N9        19.1210   10.6220   13.3270 N.pl3 301  MTA301     -0.1439
     12  C8        18.1480   11.4210   12.8800 C.3   301  MTA301      0.3377
     13  N7        18.6920   12.4450   12.2390 N.2   301  MTA301     -0.2095
     14  C5        20.0180   12.2900   12.2810 C.2   301  MTA301      0.2526
     15  C6        21.0940   13.0240   11.7930 C.2   301  MTA301      0.4393
     16  N6        20.9030   14.1620   11.1220 N.pl3 301  MTA301      0.2180
     17  N1        22.3340   12.5620   12.0270 N.2   301  MTA301      0.0021
     18  C2        22.5520   11.4310   12.7020 C.3   301  MTA301      0.5254
     19  N3        21.5510   10.7190   13.1850 N.2   301  MTA301     -0.0055
     20  C4        20.2860   11.1330   12.9840 C.2   301  MTA301      0.3518
@<TRIPOS>BOND
     1    16    15    1
     2    15    17    2
     3    15    14    1
     4    17    18    1
     5    13    14    2
     6    13    12    1
     7    14    20    1
     8     2     3    1
     9     2     1    1
    10     3     4    1
    11    18    19    1
    12    12    11    1
    13    20    19    2
    14    20    11    1
    15     5     4    1
    16     5    10    1
    17    11    10    1
    18     4     8    1
    19    10     6    1
    20     6     8    1
    21     6     7    1
    22     8     9    1
