@<TRIPOS>MOLECULE
3v7w_ZAS_A_1.pdb
 21 23 0 0 0
SMALL
GASTEIGER

@<TRIPOS>ATOM
      1  N53       16.5040    5.0430   10.6460 N.2   301  ZAS301      0.0678
      2  N52       16.7620    5.9810   11.4480 N.2   301  ZAS301     -0.1663
      3  N51       17.0030    6.9070   12.2580 N.2   301  ZAS301     -0.0948
      4  C5'       17.4970    6.4900   13.5280 C.3   301  ZAS301      0.1966
      5  C4'       18.8390    6.9820   13.7490 C.3   301  ZAS301      0.1795
      6  O4'       19.0910    8.0970   13.0290 O.3   301  ZAS301     -0.3140
      7  C3'       18.5090    7.4800   15.1360 C.3   301  ZAS301      0.2180
      8  O3'       19.6480    7.1750   15.8750 O.3   301  ZAS301     -0.2175
      9  C2'       18.4210    8.9650   14.9530 C.3   301  ZAS301      0.2569
     10  O2'       18.8420    9.5820   16.1200 O.3   301  ZAS301     -0.2130
     11  C1'       19.5220    9.0730   13.9260 C.3   301  ZAS301      0.3186
     12  N9        19.6070   10.3440   13.2490 N.pl3 301  ZAS301     -0.1439
     13  C8        18.6430   11.1170   12.8180 C.3   301  ZAS301      0.3377
     14  N7        19.1710   12.1780   12.2660 N.2   301  ZAS301     -0.2095
     15  C5        20.4700   12.0780   12.3470 C.2   301  ZAS301      0.2526
     16  C4        20.7290   10.9080   12.9840 C.2   301  ZAS301      0.3518
     17  N3        21.9490   10.5300   13.2140 N.2   301  ZAS301     -0.0055
     18  C2        22.9260   11.2830   12.8280 C.3   301  ZAS301      0.5254
     19  N1        22.7320   12.4030   12.2100 N.2   301  ZAS301      0.0021
     20  C6        21.5310   12.8450   11.9480 C.2   301  ZAS301      0.4393
     21  N6        21.4110   13.9850   11.3420 N.pl3 301  ZAS301      0.2180
@<TRIPOS>BOND
     1     1     2    2
     2    21    20    1
     3     2     3    2
     4    20    19    2
     5    20    15    1
     6    19    18    1
     7     3     4    1
     8    14    15    2
     9    14    13    1
    10    15    16    1
    11    13    12    1
    12    18    17    1
    13    16    17    2
    14    16    12    1
    15     6     5    1
    16     6    11    1
    17    12    11    1
    18     4     5    1
    19     5     7    1
    20    11     9    1
    21     9     7    1
    22     9    10    1
    23     7     8    1
