@<TRIPOS>MOLECULE
3v7x_D7A_A_1.pdb
 25 26 0 0 0
SMALL
GASTEIGER

@<TRIPOS>ATOM
      1  CAB       23.0500   13.5900   14.9900 C.3   2002  D7A2002     0.2526
      2  OAR       21.6920   14.0420   15.0160 O.3   2002  D7A2002    -0.4684
      3  CAX       20.8480   13.2330   14.3740 C.ar  2002  D7A2002     0.1721
      4  CAM       20.6680   11.8880   14.6780 C.ar  2002  D7A2002     0.0358
      5  CAW       20.1520   13.8750   13.3470 C.ar  2002  D7A2002     0.1724
      6  OAQ       20.3760   15.1810   13.2460 O.3   2002  D7A2002    -0.4684
      7  CAA       20.3210   15.7800   11.9580 C.3   2002  D7A2002     0.2526
      8  CAL       19.2770   13.1100   12.6000 C.ar  2002  D7A2002     0.0397
      9  CAG       19.1120   11.7710   12.8980 C.ar  2002  D7A2002    -0.0009
     10  CAT       19.7770   11.1240   13.9420 C.ar  2002  D7A2002    -0.0172
     11  CAO       19.4800    9.7870   14.2850 C.3   2002  D7A2002     0.0499
     12  CAN       19.1030    8.9010   13.1090 C.3   2002  D7A2002     0.1201
     13  NAP       18.5780    7.5960   13.6080 N.am  2002  D7A2002    -0.2013
     14  CAS       17.2830    7.4570   13.8960 C.2   2002  D7A2002     0.2648
     15  OAD       16.4990    8.4170   13.6740 O.2   2002  D7A2002    -0.2684
     16  CAU       16.7840    6.2690   14.5000 C.ar  2002  D7A2002     0.0551
     17  CAI       15.4480    6.1740   14.8230 C.ar  2002  D7A2002     0.0059
     18  CAK       14.9590    5.0500   15.4880 C.ar  2002  D7A2002     0.0202
     19  CAH       17.6220    5.1910   14.8070 C.ar  2002  D7A2002     0.0059
     20  CAJ       17.1240    4.0420   15.4800 C.ar  2002  D7A2002     0.0202
     21  CAV       15.7710    3.9940   15.8270 C.ar  2002  D7A2002     0.1251
     22  SAY       15.1590    2.6040   16.7340 S.O2  2002  D7A2002     0.0935
     23  OAE       15.7310    2.7490   18.0860 O.2   2002  D7A2002    -0.1503
     24  OAF       13.7110    2.6770   16.6380 O.2   2002  D7A2002    -0.1503
     25  NAC       15.6890    1.2540   16.0460 N.3   2002  D7A2002     0.0392
@<TRIPOS>BOND
     1     7     6    1
     2     8     9   ar
     3     8     5   ar
     4     9    10   ar
     5    12    13    1
     6    12    11    1
     7     6     5    1
     8     5     3   ar
     9    13    14   am
    10    15    14    2
    11    14    16    1
    12    10    11    1
    13    10     4   ar
    14     3     4   ar
    15     3     2    1
    16    16    19   ar
    17    16    17   ar
    18    19    20   ar
    19    17    18   ar
    20     1     2    1
    21    20    21   ar
    22    18    21   ar
    23    21    22    1
    24    25    22    1
    25    24    22    2
    26    22    23    2
