@<TRIPOS>MOLECULE
3v7y_A3N_A_1.pdb
 22 24 0 0 0
SMALL
GASTEIGER

@<TRIPOS>ATOM
      1  C13       15.2150   10.5630   13.5890 C.1   302  A3N302     -0.0127
      2  C12       14.4480   10.4290   13.1130 C.1   302  A3N302     -0.0586
      3  C11       13.2920   10.2350   12.4080 C.3   302  A3N302      0.1652
      4  N5        13.5310    9.2830   11.3350 N.3   302  A3N302     -0.2014
      5  C10       13.8510   10.0150   10.1160 C.3   302  A3N302      0.1222
      6  C9        15.3080    9.7740    9.7230 C.3   302  A3N302      0.1696
      7  O1        15.6390    8.4090    9.7440 O.3   302  A3N302     -0.3147
      8  C8        15.4740   10.1420    8.2770 C.3   302  A3N302      0.2174
      9  O2        15.6920   11.5310    8.1850 O.3   302  A3N302     -0.2175
     10  C7        16.7050    9.3690    7.9380 C.3   302  A3N302      0.2569
     11  O3        17.7640   10.2130    7.9970 O.3   302  A3N302     -0.2130
     12  C6        16.8360    8.3310    9.0440 C.3   302  A3N302      0.3186
     13  N3        16.9190    6.9970    8.4480 N.pl3 302  A3N302     -0.1439
     14  C5        15.9390    6.3560    7.8450 C.3   302  A3N302      0.3377
     15  N4        16.4050    5.1960    7.4380 N.2   302  A3N302     -0.2095
     16  C2        17.6800    5.1120    7.7760 C.2   302  A3N302      0.2526
     17  C3        17.9900    6.2340    8.4020 C.2   302  A3N302      0.3518
     18  N2        19.2050    6.4310    8.8510 N.2   302  A3N302     -0.0055
     19  C4        20.1360    5.4630    8.6820 C.3   302  A3N302      0.5254
     20  N1        19.8480    4.3630    8.0670 N.2   302  A3N302      0.0021
     21  C1        18.6040    4.1790    7.5970 C.2   302  A3N302      0.4393
     22  N6        18.2790    3.0650    6.9770 N.pl3 302  A3N302      0.2180
@<TRIPOS>BOND
     1    22    21    1
     2    15    16    2
     3    15    14    1
     4    21    16    1
     5    21    20    2
     6    16    17    1
     7    14    13    1
     8    10    11    1
     9    10     8    1
    10    10    12    1
    11    20    19    1
    12     9     8    1
    13     8     6    1
    14    17    13    1
    15    17    18    2
    16    13    12    1
    17    19    18    1
    18    12     7    1
    19     6     7    1
    20     6     5    1
    21     5     4    1
    22     4     3    1
    23     3     2    1
    24     2     1    3
