@<TRIPOS>MOLECULE
3v80_AOC_A_1.pdb
 22 24 0 0 0
SMALL
GASTEIGER

@<TRIPOS>ATOM
      1  CAA       13.2570    8.3460   13.1990 C.1   301  AOC301     -0.0116
      2  CAE       14.0830    9.1390   13.1010 C.1   301  AOC301     -0.0454
      3  CAH       15.1340   10.1010   12.9510 C.3   301  AOC301      0.2188
      4  O5'       15.0040   10.6220   11.6910 O.3   301  AOC301     -0.3374
      5  C5'       14.7510    9.6460   10.7230 C.3   301  AOC301      0.1757
      6  C4'       16.0220    9.6140    9.9710 C.3   301  AOC301      0.1817
      7  O4'       16.3250    8.3030    9.8800 O.3   301  AOC301     -0.3136
      8  C3'       15.7620   10.0110    8.5430 C.3   301  AOC301      0.2184
      9  O3'       15.7640   11.4180    8.4120 O.3   301  AOC301     -0.2174
     10  C2'       16.9730    9.3470    7.9210 C.3   301  AOC301      0.2570
     11  O2'       18.0400   10.2310    7.8890 O.3   301  AOC301     -0.2130
     12  C1'       17.2910    8.2230    8.9110 C.3   301  AOC301      0.3186
     13  N9        17.1330    6.9100    8.3200 N.pl3 301  AOC301     -0.1439
     14  C8        16.0530    6.3940    7.7920 C.3   301  AOC301      0.3377
     15  N7        16.3260    5.1800    7.3650 N.2   301  AOC301     -0.2095
     16  C5        17.5830    4.9140    7.6240 C.2   301  AOC301      0.2526
     17  C4        18.0800    6.0240    8.2290 C.2   301  AOC301      0.3518
     18  N3        19.3290    6.0530    8.6050 N.2   301  AOC301     -0.0055
     19  C2        20.1030    5.0390    8.4100 C.3   301  AOC301      0.5254
     20  N1        19.6820    3.9640    7.8280 N.2   301  AOC301      0.0021
     21  C6        18.4420    3.8450    7.4130 C.2   301  AOC301      0.4393
     22  N6        18.1000    2.7230    6.8460 N.pl3 301  AOC301      0.2180
@<TRIPOS>BOND
     1    22    21    1
     2    15    16    2
     3    15    14    1
     4    21    16    1
     5    21    20    2
     6    16    17    1
     7    14    13    1
     8    20    19    1
     9    11    10    1
    10    10     8    1
    11    10    12    1
    12    17    13    1
    13    17    18    2
    14    13    12    1
    15    19    18    1
    16     9     8    1
    17     8     6    1
    18    12     7    1
    19     7     6    1
    20     6     5    1
    21     5     4    1
    22     4     3    1
    23     3     2    1
    24     2     1    3
