@<TRIPOS>MOLECULE
3v81_NVP_A_1.pdb
 20 23 0 0 0
SMALL
GASTEIGER

@<TRIPOS>ATOM
      1  N1        42.0270   51.6660   48.8350 N.pl3 901  NVP901     -0.1562
      2  CA        42.9940   50.5810   48.5870 C.3   901  NVP901      0.1667
      3  CB        44.4400   51.0170   48.5140 C.3   901  NVP901      0.0512
      4  CC        43.7000   50.6510   47.2510 C.3   901  NVP901      0.0512
      5  N3        40.3010   50.2230   48.0670 N.2   901  NVP901     -0.0574
      6  C4        39.0510   50.0370   47.4840 C.3   901  NVP901      0.2894
      7  C5        38.2100   51.0970   47.1600 C.2   901  NVP901      0.0296
      8  C6        38.6000   52.3990   47.3980 C.2   901  NVP901      0.0161
      9  CD        37.6700   53.5160   47.0290 C.3   901  NVP901      0.0338
     10  C2        40.7150   51.5490   48.3000 C.2   901  NVP901      0.3546
     11  C7        39.8660   52.6080   47.9710 C.2   901  NVP901      0.2218
     12  N8        40.2000   53.9660   48.2130 N.2   901  NVP901     -0.3254
     13  C9        40.6150   54.3700   49.4290 C.1   901  NVP901      0.2099
     14  OE        40.1760   55.4900   49.8030 O.2   901  NVP901     -0.2091
     15  C10       41.4910   53.5500   50.3580 C.ar  901  NVP901      0.1507
     16  C15       42.1190   52.3590   50.0550 C.ar  901  NVP901      0.2365
     17  C11       41.6220   54.1230   51.6160 C.ar  901  NVP901      0.0194
     18  C12       42.3970   53.4760   52.5700 C.ar  901  NVP901      0.0217
     19  C13       43.0270   52.2680   52.2860 C.ar  901  NVP901      0.1025
     20  N14       42.8890   51.6890   51.0240 N.ar  901  NVP901     -0.2068
@<TRIPOS>BOND
     1     9     8    1
     2     7     8    2
     3     7     6    1
     4     4     3    1
     5     4     2    1
     6     8    11    1
     7     6     5    1
     8    11    12    2
     9    11    10    1
    10     5    10    2
    11    12    13    2
    12    10     1    1
    13     3     2    1
    14     2     1    1
    15     1    16    1
    16    13    14    2
    17    13    15    1
    18    16    15   ar
    19    16    20   ar
    20    15    17   ar
    21    20    19   ar
    22    17    18   ar
    23    19    18   ar
