@<TRIPOS>MOLECULE
3v8c_GAL_A_1.pdb
 11 11 0 0 0
SMALL
GASTEIGER

@<TRIPOS>ATOM
      1  C1        14.1460   16.6890   20.3830 C.3   506  GAL506      0.1777
      2  C2        13.4490   16.0320   19.1690 C.3   506  GAL506      0.2141
      3  C3        12.0750   15.3790   19.4080 C.3   506  GAL506      0.2173
      4  C4        11.6670   15.5100   20.8580 C.3   506  GAL506      0.2142
      5  C5        11.8700   16.9630   21.1900 C.3   506  GAL506      0.1810
      6  C6        11.0070   17.2940   22.3930 C.3   506  GAL506      0.2141
      7  O2        13.3490   17.0110   18.1500 O.3   506  GAL506     -0.2176
      8  O3        12.0650   14.0280   19.0080 O.3   506  GAL506     -0.2175
      9  O4        12.4790   14.7650   21.7400 O.3   506  GAL506     -0.2176
     10  O5        13.2640   17.1810   21.3950 O.3   506  GAL506     -0.3481
     11  O6        10.0860   16.2400   22.6100 O.3   506  GAL506     -0.2176
@<TRIPOS>BOND
     1     7     2    1
     2     8     3    1
     3     2     3    1
     4     2     1    1
     5     3     4    1
     6     1    10    1
     7     4     5    1
     8     4     9    1
     9     5    10    1
    10     5     6    1
    11     6    11    1
