@<TRIPOS>MOLECULE
3v8c_MAN_B_1.pdb
 11 11 0 0 0
SMALL
GASTEIGER

@<TRIPOS>ATOM
      1  C1        21.8990   -3.9440   14.6620 C.3   503  MAN503      0.1777
      2  C2        21.4720   -2.5480   14.1950 C.3   503  MAN503      0.2141
      3  C3        22.0240   -2.1770   12.7980 C.3   503  MAN503      0.2173
      4  C4        23.3510   -2.8420   12.3850 C.3   503  MAN503      0.2142
      5  C5        23.6170   -4.1850   13.0600 C.3   503  MAN503      0.1810
      6  C6        25.0870   -4.5600   12.9070 C.3   503  MAN503      0.2141
      7  O2        21.8530   -1.5930   15.1740 O.3   503  MAN503     -0.2176
      8  O3        22.2160   -0.7780   12.7610 O.3   503  MAN503     -0.2175
      9  O4        23.3890   -3.0320   10.9820 O.3   503  MAN503     -0.2176
     10  O5        23.2910   -4.1070   14.4380 O.3   503  MAN503     -0.3481
     11  O6        25.2110   -5.4490   11.7920 O.3   503  MAN503     -0.2176
@<TRIPOS>BOND
     1     9     4    1
     2    11     6    1
     3     4     3    1
     4     4     5    1
     5     8     3    1
     6     3     2    1
     7     6     5    1
     8     5    10    1
     9     2     1    1
    10     2     7    1
    11    10     1    1
