@<TRIPOS>MOLECULE
3v8d_0GV_A_1.pdb
 29 32 0 0 0
SMALL
GASTEIGER

@<TRIPOS>ATOM
      1  C10       13.4930    7.5210  -39.2900 C.3   602  0GV602      0.0158
      2  C11       11.9840    6.0030  -40.8530 C.3   602  0GV602      0.0007
      3  C12       11.4430    5.7910  -42.2970 C.3   602  0GV602      0.0000
      4  C13       10.6270    6.9960  -42.7280 C.3   602  0GV602      0.0004
      5  C14       11.5620    8.2480  -42.6410 C.3   602  0GV602      0.0073
      6  C15       10.7060    9.3350  -43.2860 C.3   602  0GV602      0.0004
      7  C16       10.0000    8.6030  -44.4360 C.3   602  0GV602      0.0000
      8  C17       10.3410    7.0700  -44.2680 C.3   602  0GV602      0.0000
      9  C18        9.3100    7.1310  -41.8760 C.3   602  0GV602      0.0000
     10  C9        12.8790    7.3280  -40.7440 C.3   602  0GV602      0.0107
     11  C19       12.3930    7.5390  -38.1980 C.3   602  0GV602      0.0041
     12  C1        14.4290    6.3560  -39.0100 C.3   602  0GV602      0.0064
     13  C2        15.2700    6.5960  -37.7670 C.3   602  0GV602      0.0335
     14  C3        16.1380    7.7910  -37.9630 C.3   602  0GV602      0.1560
     15  O1        16.8710    8.0200  -36.7510 O.3   602  0GV602     -0.2228
     16  C4        15.2920    9.0170  -38.2590 C.3   602  0GV602      0.0549
     17  C5        14.2370    8.7830  -39.2490 C.2   602  0GV602     -0.0395
     18  C6        13.8910    9.8330  -40.0950 C.2   602  0GV602      0.0290
     19  C7        12.8590    9.7320  -41.0600 C.2   602  0GV602      0.1721
     20  O7        12.6300   10.7130  -41.7500 O.2   602  0GV602     -0.2914
     21  C8        12.0640    8.5310  -41.1750 C.3   602  0GV602      0.0622
     22  C20        9.1930    6.1820  -44.8440 C.3   602  0GV602      0.0000
     23  C21        9.5780    4.6970  -44.7920 C.3   602  0GV602      0.0000
     24  C22        8.9270    6.5790  -46.3360 C.3   602  0GV602      0.0000
     25  C23        7.6410    5.9480  -46.8700 C.3   602  0GV602      0.0000
     26  C24        7.0050    6.8970  -47.9240 C.3   602  0GV602      0.0000
     27  C25        5.8440    6.2210  -48.6750 C.3   602  0GV602      0.0000
     28  C26        4.6050    6.0800  -47.7630 C.3   602  0GV602      0.0000
     29  C27        5.4940    7.0660  -49.9250 C.3   602  0GV602      0.0000
@<TRIPOS>BOND
     1    29    27    1
     2    27    26    1
     3    27    28    1
     4    26    25    1
     5    25    24    1
     6    24    22    1
     7    22    23    1
     8    22     8    1
     9     7     8    1
    10     7     6    1
    11     8     4    1
    12     6     5    1
    13     4     5    1
    14     4     3    1
    15     4     9    1
    16     5    21    1
    17     3     2    1
    18    20    19    2
    19    21    19    1
    20    21    10    1
    21    19    18    1
    22     2    10    1
    23    10     1    1
    24    18    17    2
    25     1    17    1
    26     1    12    1
    27     1    11    1
    28    17    16    1
    29    12    13    1
    30    16    14    1
    31    14    13    1
    32    14    15    1
