@<TRIPOS>MOLECULE
3v8d_HEM_A_1.pdb
 43 50 0 0 0
SMALL
GASTEIGER

@<TRIPOS>ATOM
      1  CHA       15.1510    9.8260  -43.7640 C.2   601  HEM601      0.0000
      2  CHB       17.5130   13.0010  -40.7790 C.2   601  HEM601      0.0000
      3  CHC       15.3000   16.7610  -42.9660 C.2   601  HEM601      0.0000
      4  CHD       13.0270   13.6030  -46.0040 C.2   601  HEM601      0.0000
      5  C1A       15.9910   10.3620  -42.7730 C.2   601  HEM601      0.0000
      6  C2A       16.8460    9.5570  -41.9110 C.2   601  HEM601      0.0000
      7  C3A       17.5390   10.4760  -41.0370 C.2   601  HEM601      0.0000
      8  C4A       17.0660   11.8080  -41.4100 C.2   601  HEM601      0.0000
      9  CMA       18.5420   10.1290  -39.9710 C.3   601  HEM601      0.0000
     10  CAA       17.0000    8.0950  -41.9440 C.3   601  HEM601      0.0000
     11  CBA       18.2240    7.8140  -42.7700 C.3   601  HEM601      0.0000
     12  CGA       18.4650    6.3300  -42.7350 C.2   601  HEM601      0.0000
     13  O1A       18.0760    5.6680  -43.7070 O.co2 601  HEM601      0.0000
     14  O2A       19.0220    5.8330  -41.7120 O.co2 601  HEM601      0.0000
     15  C1B       17.0950   14.3370  -41.1240 C.ar  601  HEM601      0.0000
     16  C2B       17.6030   15.4690  -40.3930 C.ar  601  HEM601      0.0000
     17  C3B       16.9120   16.5630  -41.0500 C.ar  601  HEM601      0.0000
     18  C4B       16.1110   15.9680  -42.0880 C.ar  601  HEM601      0.0000
     19  CMB       18.5770   15.4460  -39.2420 C.3   601  HEM601      0.0000
     20  CAB       17.0070   18.0310  -40.8270 C.2   601  HEM601      0.0000
     21  CBB       17.8910   18.5810  -40.0420 C.2   601  HEM601      0.0000
     22  C1C       14.4950   16.2640  -44.0020 C.2   601  HEM601      0.0000
     23  C2C       13.7310   17.1350  -44.8890 C.2   601  HEM601      0.0000
     24  C3C       13.0560   16.2210  -45.7860 C.2   601  HEM601      0.0000
     25  C4C       13.4390   14.8270  -45.4110 C.2   601  HEM601      0.0000
     26  CMC       13.6610   18.6500  -44.8630 C.3   601  HEM601      0.0000
     27  CAC       12.1510   16.7650  -46.8470 C.2   601  HEM601      0.0000
     28  CBC       11.4150   16.0350  -47.6400 C.2   601  HEM601      0.0000
     29  C1D       13.4370   12.2800  -45.6120 C.ar  601  HEM601      0.0000
     30  C2D       12.8790   11.1180  -46.3000 C.ar  601  HEM601      0.0000
     31  C3D       13.4870   10.0050  -45.6650 C.ar  601  HEM601      0.0000
     32  C4D       14.3410   10.6180  -44.6440 C.ar  601  HEM601      0.0000
     33  CMD       11.8910   11.1260  -47.4240 C.3   601  HEM601      0.0000
     34  CAD       13.2690    8.5530  -45.9690 C.3   601  HEM601      0.0000
     35  CBD       13.9960    8.1340  -47.2050 C.3   601  HEM601      0.0000
     36  CGD       13.6280    6.6910  -47.5580 C.2   601  HEM601      0.0000
     37  O1D       13.8350    6.2880  -48.7260 O.co2 601  HEM601      0.0000
     38  O2D       13.1450    5.9610  -46.6730 O.co2 601  HEM601      0.0000
     39  NA        16.1110   11.7510  -42.4500 N.2   601  HEM601      0.0000
     40  NB        16.1960   14.6190  -42.1410 N.ar  601  HEM601      0.0000
     41  NC        14.3250   14.8760  -44.3060 N.2   601  HEM601      0.0000
     42  ND        14.3230   11.9990  -44.6090 N.ar  601  HEM601      0.0000
     43 FE         15.3050   13.2850  -43.4040 Fe    601  HEM601      0.0000
@<TRIPOS>BOND
     1    37    36   ar
     2    28    27    2
     3    36    35    1
     4    36    38   ar
     5    33    30    1
     6    35    34    1
     7    27    24    1
     8    30    31   ar
     9    30    29   ar
    10     4    29    2
    11     4    25    1
    12    34    31    1
    13    24    25    1
    14    24    23    2
    15    31    32   ar
    16    29    42   ar
    17    25    41    2
    18    23    26    1
    19    23    22    1
    20    32    42   ar
    21    32     1    2
    22    42    43    1
    23    41    22    1
    24    41    43    1
    25    22     3    2
    26     1     5    1
    27    13    12   ar
    28    43    39    1
    29    43    40    1
    30     3    18    1
    31     5    39    2
    32     5     6    1
    33    11    12    1
    34    11    10    1
    35    12    14   ar
    36    39     8    1
    37    40    18   ar
    38    40    15   ar
    39    18    17   ar
    40    10     6    1
    41     6     7    2
    42     8     7    1
    43     8     2    2
    44    15     2    1
    45    15    16   ar
    46    17    20    1
    47    17    16   ar
    48     7     9    1
    49    20    21    2
    50    16    19    1
