@<TRIPOS>MOLECULE
3v8k_BTN_A_1.pdb
 16 17 0 0 0
SMALL
GASTEIGER

@<TRIPOS>ATOM
      1  C11       50.6550   17.8680   18.1430 C.2   500  BTN500      0.3876
      2  O11       50.5400   18.3440   16.9840 O.co2 500  BTN500     -0.2406
      3  O12       51.7800   17.4660   18.5370 O.co2 500  BTN500     -0.2406
      4  C10       49.5600   17.7920   18.9530 C.2   500  BTN500      0.0816
      5  C9        49.6110   17.2290   20.3710 C.2   500  BTN500     -0.0193
      6  C8        48.2630   16.8410   21.0040 C.3   500  BTN500      0.0272
      7  C7        48.3860   16.7490   22.5350 C.3   500  BTN500      0.0175
      8  C2        47.0620   16.4650   23.2630 C.3   500  BTN500      0.0733
      9  S1        46.9090   17.3640   24.7900 S.3   500  BTN500     -0.1369
     10  C6        45.7230   16.2260   25.4160 C.3   500  BTN500      0.0848
     11  C5        46.1480   14.8570   24.9250 C.3   500  BTN500      0.1509
     12  N1        47.1700   14.4360   25.8730 N.2   500  BTN500     -0.1859
     13  C3        48.3350   14.1910   25.2860 C.1   500  BTN500      0.2386
     14  O3        49.2940   13.6460   25.8080 O.2   500  BTN500     -0.2023
     15  N2        48.2940   14.5990   24.0290 N.2   500  BTN500     -0.1860
     16  C4        46.9460   14.9960   23.6260 C.3   500  BTN500      0.1501
@<TRIPOS>BOND
     1     2     1   ar
     2     1     3   ar
     3     1     4    1
     4     4     5    2
     5     5     6    1
     6     6     7    1
     7     7     8    1
     8     8    16    1
     9     8     9    1
    10    16    15    1
    11    16    11    1
    12    15    13    2
    13     9    10    1
    14    11    10    1
    15    11    12    1
    16    13    14    2
    17    13    12    2
