@<TRIPOS>MOLECULE
3v8l_BT5_A_1.pdb
 38 42 0 0 0
SMALL
GASTEIGER

@<TRIPOS>ATOM
      1  CBB       50.3750   17.7360   18.2220 C.2   500  BT5500      0.3451
      2  OBB       51.6940   17.1430   18.0110 O.3   500  BT5500     -0.4070
      3  OCB       50.0870   18.7720   17.5910 O.2   500  BT5500     -0.2446
      4  CAB       49.5100   17.3430   19.1510 C.2   500  BT5500      0.0776
      5  C9B       49.3040   17.3000   20.5140 C.2   500  BT5500     -0.0195
      6  C8B       48.1950   16.5620   21.2120 C.3   500  BT5500      0.0272
      7  C7B       48.1040   17.1710   22.6040 C.3   500  BT5500      0.0175
      8  C2B       46.9940   16.5180   23.4570 C.3   500  BT5500      0.0733
      9  S1B       46.7540   17.3690   25.0240 S.3   500  BT5500     -0.1369
     10  C6B       45.6930   15.9820   25.4250 C.3   500  BT5500      0.0848
     11  C5B       46.3410   14.6660   24.9340 C.3   500  BT5500      0.1509
     12  N1B       47.3240   14.1870   25.8820 N.2   500  BT5500     -0.1859
     13  C3B       48.5880   14.2520   25.4020 C.1   500  BT5500      0.2386
     14  O3B       49.6000   14.0030   26.0710 O.2   500  BT5500     -0.2023
     15  N2B       48.5750   14.6480   24.1470 N.2   500  BT5500     -0.1860
     16  C4B       47.2040   14.9810   23.6970 C.3   500  BT5500      0.1501
     17  P         53.0320   17.8720   17.3180 P.3   500  BT5500      0.2725
     18  OP1       52.7350   18.6450   16.0210 O.2   500  BT5500     -0.5081
     19  OP2       53.9660   16.6820   17.1170 O.3   500  BT5500     -0.4273
     20  O5'       53.9170   18.7370   18.4220 O.3   500  BT5500     -0.3024
     21  C5'       53.5620   19.8960   19.1660 C.3   500  BT5500      0.1823
     22  C4'       54.4020   21.0710   18.6620 C.3   500  BT5500      0.1822
     23  O4'       53.6730   22.3090   18.8050 O.3   500  BT5500     -0.3135
     24  C3'       55.6730   21.2160   19.5170 C.3   500  BT5500      0.2184
     25  O3'       56.8790   20.6510   18.9470 O.3   500  BT5500     -0.2174
     26  C2'       55.7870   22.7160   19.8570 C.3   500  BT5500      0.2570
     27  O2'       56.5700   23.4780   18.9160 O.3   500  BT5500     -0.2130
     28  C1'       54.3530   23.2010   19.7380 C.3   500  BT5500      0.3186
     29  N9        53.6600   23.2440   21.0690 N.pl3 500  BT5500     -0.1439
     30  C8        53.9370   22.6320   22.2420 C.3   500  BT5500      0.3377
     31  N7        52.9950   22.9970   23.1470 N.2   500  BT5500     -0.2095
     32  C5        52.1080   23.8370   22.5340 C.2   500  BT5500      0.2526
     33  C6        50.9350   24.5320   22.9170 C.2   500  BT5500      0.4393
     34  N6        50.4010   24.4800   24.1700 N.pl3 500  BT5500      0.2180
     35  N1        50.2940   25.3100   22.0160 N.2   500  BT5500      0.0021
     36  C2        50.6860   25.5260   20.6360 C.3   500  BT5500      0.5254
     37  N3        51.9020   24.7930   20.3060 N.2   500  BT5500     -0.0055
     38  C4        52.5510   23.9940   21.2220 C.2   500  BT5500      0.3518
@<TRIPOS>BOND
     1    18    17    2
     2    19    17    1
     3    17     2    1
     4    17    20    1
     5     3     1    2
     6     2     1    1
     7     1     4    1
     8    20    21    1
     9    22    23    1
    10    22    21    1
    11    22    24    1
    12    23    28    1
    13    27    26    1
    14    25    24    1
    15     4     5    2
    16    24    26    1
    17    28    26    1
    18    28    29    1
    19    37    36    1
    20    37    38    2
    21     5     6    1
    22    36    35    1
    23    29    38    1
    24    29    30    1
    25     6     7    1
    26    38    32    1
    27    35    33    2
    28    30    31    1
    29    32    33    1
    30    32    31    2
    31     7     8    1
    32    33    34    1
    33     8    16    1
    34     8     9    1
    35    16    15    1
    36    16    11    1
    37    15    13    2
    38    11    10    1
    39    11    12    1
    40     9    10    1
    41    13    12    2
    42    13    14    2
