@<TRIPOS>MOLECULE
3v8m_Z8B_A_1.pdb
 22 24 0 0 0
SMALL
GASTEIGER

@<TRIPOS>ATOM
      1  N1        22.4680   12.8170   11.9340 N.2   301  Z8B301      0.0030
      2  C2        22.6370   11.6810   12.5730 C.3   301  Z8B301      0.5255
      3  N3        21.6310   10.9920   13.0410 N.2   301  Z8B301     -0.0039
      4  C4        20.3880   11.4560   12.8690 C.2   301  Z8B301      0.3694
      5  C5        20.1770   12.6450   12.2170 C.2   301  Z8B301      0.3071
      6  C6        21.2620   13.3250   11.7430 C.2   301  Z8B301      0.4517
      7  N6        21.1220   14.4520   11.1060 N.pl3 301  Z8B301      0.2193
      8  N7        18.8850   12.8630   12.1970 N.2   301  Z8B301     -0.3444
      9  C8        18.3010   11.8520   12.7950 C.2   301  Z8B301      0.3130
     10 BR8        16.4340   11.7840   12.9850 Br    301  Z8B301      0.0337
     11  N9        19.2060   10.9880   13.2320 N.pl3 301  Z8B301     -0.1123
     12  C1'       19.0980    9.7120   13.9490 C.3   301  Z8B301      0.3238
     13  C2'       17.9970    9.4710   14.9610 C.3   301  Z8B301      0.2574
     14  O2'       18.6570    9.0550   16.1440 O.3   301  Z8B301     -0.2130
     15  C3'       17.2040    8.2990   14.4080 C.3   301  Z8B301      0.2180
     16  O3'       17.0300    7.3040   15.4180 O.3   301  Z8B301     -0.2175
     17  C4'       18.0750    7.7440   13.2980 C.3   301  Z8B301      0.1795
     18  C5'       17.2270    7.6560   12.0520 C.3   301  Z8B301      0.1966
     19  O5'       18.9480    8.7700   12.9010 O.3   301  Z8B301     -0.3137
     20  N51       16.7510    6.2960   11.8580 N.2   301  Z8B301     -0.0948
     21  N52       15.5310    6.1460   11.5730 N.2   301  Z8B301     -0.1663
     22  N53       14.2880    5.9930   11.2800 N.2   301  Z8B301      0.0678
@<TRIPOS>BOND
     1     7     6    1
     2    22    21    2
     3    21    20    2
     4     6     1    2
     5     6     5    1
     6    20    18    1
     7     1     2    1
     8    18    17    1
     9     8     5    2
    10     8     9    2
    11     5     4    1
    12     2     3    1
    13     9    10    1
    14     9    11    1
    15     4     3    2
    16     4    11    1
    17    19    17    1
    18    19    12    1
    19    11    12    1
    20    17    15    1
    21    12    13    1
    22    15    13    1
    23    15    16    1
    24    13    14    1
