@<TRIPOS>MOLECULE
3v8n_5CI_A_1.pdb
 32 34 0 0 0
SMALL
GASTEIGER

@<TRIPOS>ATOM
      1  O41       11.1450    9.6390   16.4980 O.co2 302  5CI302     -0.2455
      2  C51       11.1260   10.4540   15.5710 C.2   302  5CI302      0.3679
      3  O31       10.7640   11.6290   15.6290 O.co2 302  5CI302     -0.2455
      4  C41       11.5110    9.9530   14.2110 C.3   302  5CI302      0.1539
      5  C31       12.7700    9.1160   14.1850 C.3   302  5CI302      0.2172
      6  C21       14.0550    9.5030   14.8460 C.3   302  5CI302      0.1539
      7  C11       14.5970    8.2130   15.4350 C.2   302  5CI302      0.3679
      8  O21       15.7970    8.1780   15.6730 O.co2 302  5CI302     -0.2455
      9  O11       13.8120    7.2670   15.5810 O.co2 302  5CI302     -0.2455
     10  O71       12.7800    7.8960   13.5290 O.3   302  5CI302     -0.2151
     11  C61       13.1070    9.8400   12.8310 C.2   302  5CI302      0.2701
     12  O51       12.8340   11.0240   12.6790 O.2   302  5CI302     -0.2707
     13  N5'       13.6300    9.1590   11.8080 N.am  302  5CI302     -0.2007
     14  C5'       13.8420    9.8540   10.5120 C.3   302  5CI302      0.1475
     15  C4'       15.2600    9.7520    9.8790 C.3   302  5CI302      0.1739
     16  O4'       15.6560    8.4250    9.6720 O.3   302  5CI302     -0.3140
     17  C3'       15.2640   10.2560    8.4380 C.3   302  5CI302      0.2177
     18  O3'       15.3030   11.6670    8.3390 O.3   302  5CI302     -0.2175
     19  C2'       16.5610    9.6730    7.9390 C.3   302  5CI302      0.2574
     20  O2'       17.6070   10.5800    8.1430 O.3   302  5CI302     -0.2130
     21  C1'       16.8010    8.5050    8.8560 C.3   302  5CI302      0.3238
     22  N9        16.9000    7.2270    8.1470 N.pl3 302  5CI302     -0.1123
     23  C8        16.0140    6.6370    7.3590 C.2   302  5CI302      0.3130
     24 BR8        14.3380    7.2870    6.8170 Br    302  5CI302      0.0337
     25  N7        16.4730    5.4800    6.9510 N.2   302  5CI302     -0.3444
     26  C5        17.6640    5.3170    7.4750 C.2   302  5CI302      0.3071
     27  C4        17.9310    6.4190    8.2340 C.2   302  5CI302      0.3694
     28  N3        19.0790    6.4980    8.8920 N.2   302  5CI302     -0.0039
     29  C2        19.9510    5.5360    8.8110 C.3   302  5CI302      0.5255
     30  N1        19.7330    4.4740    8.0890 N.2   302  5CI302      0.0030
     31  C6        18.6130    4.3270    7.4100 C.2   302  5CI302      0.4517
     32  N6        18.4270    3.2480    6.6940 N.pl3 302  5CI302      0.2193
@<TRIPOS>BOND
     1    32    31    1
     2    24    23    1
     3    25    23    2
     4    25    26    2
     5    23    22    1
     6    31    26    1
     7    31    30    2
     8    26    27    1
     9    19    20    1
    10    19    17    1
    11    19    21    1
    12    30    29    1
    13    22    27    1
    14    22    21    1
    15    27    28    2
    16    18    17    1
    17    17    15    1
    18    29    28    1
    19    21    16    1
    20    16    15    1
    21    15    14    1
    22    14    13    1
    23    13    11   am
    24    12    11    2
    25    11     5    1
    26    10     5    1
    27     5     4    1
    28     5     6    1
    29     4     2    1
    30     6     7    1
    31     7     9   ar
    32     7     8   ar
    33     2     3   ar
    34     2     1   ar
