@<TRIPOS>MOLECULE
3v8n_5NB_A_1.pdb
 20 22 0 0 0
SMALL
GASTEIGER

@<TRIPOS>ATOM
      1  O2'       18.2010    8.0640   13.1100 O.3   301  5NB301     -0.2130
      2  C2'       19.1190    8.8320   13.8480 C.3   301  5NB301      0.2573
      3  C3'       19.4640    8.1510   15.1640 C.3   301  5NB301      0.2174
      4  O3'       18.4800    7.2070   15.5040 O.3   301  5NB301     -0.2175
      5  C4'       19.4440    9.2540   16.1930 C.3   301  5NB301      0.1712
      6  C5'       20.8830    9.6450   16.3860 C.3   301  5NB301      0.1416
      7  N5'       20.9980   10.9420   17.0430 N.3   301  5NB301     -0.1286
      8  O4'       18.7660   10.3400   15.6150 O.3   301  5NB301     -0.3143
      9  C1'       18.3980   10.0690   14.2620 C.3   301  5NB301      0.3238
     10  N9        18.8320   11.2120   13.4770 N.pl3 301  5NB301     -0.1123
     11  C8        18.0280   12.1410   13.0330 C.2   301  5NB301      0.3130
     12 BR8        16.1910   12.1220   13.3200 Br    301  5NB301      0.0337
     13  N7        18.6870   13.0650   12.3800 N.2   301  5NB301     -0.3444
     14  C5        19.9480   12.7250   12.4070 C.2   301  5NB301      0.3071
     15  C4        20.0490   11.5480   13.1090 C.2   301  5NB301      0.3694
     16  N3        21.2430   10.9940   13.2690 N.2   301  5NB301     -0.0039
     17  C2        22.2940   11.5720   12.7590 C.3   301  5NB301      0.5255
     18  N1        22.2330   12.6930   12.0890 N.2   301  5NB301      0.0030
     19  C6        21.0850   13.2950   11.8900 C.2   301  5NB301      0.4517
     20  N6        21.0570   14.4120   11.2120 N.pl3 301  5NB301      0.2193
@<TRIPOS>BOND
     1    20    19    1
     2    19    18    2
     3    19    14    1
     4    18    17    1
     5    13    14    2
     6    13    11    2
     7    14    15    1
     8    17    16    1
     9    11    12    1
    10    11    10    1
    11    15    16    2
    12    15    10    1
    13     1     2    1
    14    10     9    1
    15     2     9    1
    16     2     3    1
    17     9     8    1
    18     3     4    1
    19     3     5    1
    20     8     5    1
    21     5     6    1
    22     6     7    1
