@<TRIPOS>MOLECULE
3v8n_CIT_A_1.pdb
 13 12 0 0 0
SMALL
GASTEIGER

@<TRIPOS>ATOM
      1  C1        32.0330   24.0120   14.3950 C.2   303  CIT303      0.3680
      2  O1        31.7050   22.8650   14.0250 O.co2 303  CIT303     -0.2455
      3  O2        33.2170   24.2060   14.7430 O.co2 303  CIT303     -0.2455
      4  C2        31.0370   25.1490   14.4210 C.3   303  CIT303      0.1560
      5  C3        29.7750   24.7950   15.2070 C.3   303  CIT303      0.2402
      6  O7        30.1530   24.4630   16.5690 O.3   303  CIT303     -0.2129
      7  C4        28.7940   25.9630   15.2120 C.3   303  CIT303      0.1560
      8  C5        29.3350   27.1070   16.0390 C.2   303  CIT303      0.3680
      9  O3        29.6680   28.1790   15.4920 O.co2 303  CIT303     -0.2455
     10  O4        29.4470   27.0070   17.2830 O.co2 303  CIT303     -0.2455
     11  C6        29.0910   23.5830   14.5950 C.2   303  CIT303      0.3927
     12  O5        29.3350   22.4290   15.0020 O.co2 303  CIT303     -0.2429
     13  O6        28.2800   23.7290   13.6590 O.co2 303  CIT303     -0.2429
@<TRIPOS>BOND
     1    13    11   ar
     2     2     1   ar
     3     1     4    1
     4     1     3   ar
     5     4     5    1
     6    11    12   ar
     7    11     5    1
     8     5     7    1
     9     5     6    1
    10     7     8    1
    11     9     8   ar
    12     8    10   ar
