@<TRIPOS>MOLECULE
3v8p_ZNB_A_1.pdb
 45 50 0 0 0
SMALL
GASTEIGER

@<TRIPOS>ATOM
      1  N53       15.0680    5.6440   11.3210 N.2   302  ZNB302      0.0678
      2  N52       15.9740    6.3040   11.9500 N.2   302  ZNB302     -0.1663
      3  N51       16.8660    6.9970   12.5290 N.2   302  ZNB302     -0.0948
      4  C5        17.4600    6.6100   13.8080 C.3   302  ZNB302      0.1966
      5  C4        18.6130    7.5230   14.0920 C.3   302  ZNB302      0.1795
      6  O4        18.3070    8.6490   13.3630 O.3   302  ZNB302     -0.3137
      7  C2        18.4980    7.9730   15.5350 C.3   302  ZNB302      0.2180
      8  O2        19.6770    7.5690   16.1880 O.3   302  ZNB302     -0.2175
      9  C3        18.5060    9.4880   15.4820 C.3   302  ZNB302      0.2574
     10  O3        19.5360    9.9180   16.3490 O.3   302  ZNB302     -0.2130
     11  C1        18.9790    9.6670   14.0710 C.3   302  ZNB302      0.3238
     12  N9A       19.0050   10.9670   13.3770 N.pl3 302  ZNB302     -0.1125
     13  C4A       20.1760   11.3860   12.9670 C.2   302  ZNB302      0.3694
     14  N3A       21.3910   10.8540   13.0800 N.2   302  ZNB302     -0.0039
     15  C2A       22.4230   11.4730   12.5840 C.3   302  ZNB302      0.5255
     16  N1A       22.3020   12.6180   11.9650 N.2   302  ZNB302      0.0030
     17  C6A       21.1300   13.2180   11.8290 C.2   302  ZNB302      0.4517
     18  N6A       21.0660   14.3580   11.2050 N.pl3 302  ZNB302      0.2193
     19  C5A       19.9990   12.5890   12.3430 C.2   302  ZNB302      0.3071
     20  N7A       18.7190   12.8600   12.3870 N.2   302  ZNB302     -0.3446
     21  C8A       18.1020   11.8710   12.9870 C.2   302  ZNB302      0.3068
     22  S81       16.3580   12.0050   13.2230 S.3   302  ZNB302     -0.0306
     23  C82       15.6380   10.4890   13.9450 C.3   302  ZNB302      0.1546
     24  C83       14.5310    9.9990   13.0100 C.2   302  ZNB302      0.2530
     25  O83       13.4610    9.5570   13.3870 O.2   302  ZNB302     -0.2724
     26  N5'       14.8910   10.2190   11.7760 N.am  302  ZNB302     -0.2020
     27  C5'       14.2860    9.8720   10.5110 C.3   302  ZNB302      0.1474
     28  C4'       15.5980    9.7180    9.7260 C.3   302  ZNB302      0.1739
     29  O4'       16.0350    8.3870    9.7210 O.3   302  ZNB302     -0.3140
     30  C3'       15.5180   10.0700    8.2710 C.3   302  ZNB302      0.2177
     31  O3'       15.4200   11.4840    8.1350 O.3   302  ZNB302     -0.2175
     32  C2'       16.8680    9.5060    7.8460 C.3   302  ZNB302      0.2574
     33  O2'       17.8880   10.4080    8.1380 O.3   302  ZNB302     -0.2130
     34  C1'       17.0670    8.3160    8.7610 C.3   302  ZNB302      0.3238
     35  N9N       17.0590    6.9990    8.0650 N.pl3 302  ZNB302     -0.1123
     36  C8N       16.1330    6.4500    7.2790 C.2   302  ZNB302      0.3130
     37 BR8        14.4610    7.1420    6.6900 Br    302  ZNB302      0.0337
     38  N7N       16.5280    5.2630    6.8820 N.2   302  ZNB302     -0.3444
     39  C5N       17.7080    5.0330    7.4090 C.2   302  ZNB302      0.3071
     40  C4N       18.0420    6.1340    8.1590 C.2   302  ZNB302      0.3694
     41  N3N       19.1990    6.1630    8.7980 N.2   302  ZNB302     -0.0039
     42  C2N       19.9970    5.1410    8.7050 C.3   302  ZNB302      0.5255
     43  N1N       19.7190    4.0740    7.9970 N.2   302  ZNB302      0.0030
     44  C6N       18.5970    3.9730    7.3310 C.2   302  ZNB302      0.4517
     45  N6N       18.3480    2.8920    6.6360 N.pl3 302  ZNB302      0.2193
@<TRIPOS>BOND
     1    45    44    1
     2    37    36    1
     3    38    36    2
     4    38    39    2
     5    36    35    1
     6    44    39    1
     7    44    43    2
     8    39    40    1
     9    32    33    1
    10    32    30    1
    11    32    34    1
    12    43    42    1
    13    35    40    1
    14    35    34    1
    15    31    30    1
    16    40    41    2
    17    30    28    1
    18    42    41    1
    19    34    29    1
    20    29    28    1
    21    28    27    1
    22    27    26    1
    23    18    17    1
    24     1     2    2
    25    26    24   am
    26    17    16    2
    27    17    19    1
    28     2     3    2
    29    16    15    1
    30    19    20    2
    31    19    13    1
    32    20    21    2
    33     3     4    1
    34    15    14    1
    35    13    14    2
    36    13    12    1
    37    21    22    1
    38    21    12    1
    39    24    25    2
    40    24    23    1
    41    22    23    1
    42     6    11    1
    43     6     5    1
    44    12    11    1
    45     4     5    1
    46    11     9    1
    47     5     7    1
    48     9     7    1
    49     9    10    1
    50     7     8    1
