@<TRIPOS>MOLECULE
3v8q_5N5_A_1.pdb
 19 21 0 0 0
SMALL
GASTEIGER

@<TRIPOS>ATOM
      1  O2'       17.8120   10.4070    8.2430 O.3   301  5N5301     -0.2130
      2  C2'       16.6510    9.5930    8.1200 C.3   301  5N5301      0.2569
      3  C3'       15.3850   10.3900    8.4690 C.3   301  5N5301      0.2174
      4  O3'       15.5820   11.8080    8.3060 O.3   301  5N5301     -0.2175
      5  C4'       15.1780   10.0320    9.9370 C.3   301  5N5301      0.1712
      6  C5'       13.7120   10.2390   10.3360 C.3   301  5N5301      0.1416
      7  N5'       13.5870   10.1450   11.8000 N.3   301  5N5301     -0.1286
      8  O4'       15.4900    8.6200    9.9530 O.3   301  5N5301     -0.3146
      9  C1'       16.7160    8.4890    9.1820 C.3   301  5N5301      0.3186
     10  N9        16.8130    7.1440    8.5210 N.pl3 301  5N5301     -0.1439
     11  C8        15.8360    6.5050    7.8580 C.3   301  5N5301      0.3377
     12  N7        16.2880    5.3300    7.4110 N.2   301  5N5301     -0.2095
     13  C5        17.5610    5.2130    7.7910 C.2   301  5N5301      0.2526
     14  C4        17.8930    6.3650    8.4970 C.2   301  5N5301      0.3518
     15  N3        19.1360    6.4980    8.9980 N.2   301  5N5301     -0.0055
     16  C2        20.0370    5.5390    8.8100 C.3   301  5N5301      0.5254
     17  N1        19.7570    4.4290    8.1380 N.2   301  5N5301      0.0021
     18  C6        18.5350    4.2290    7.6210 C.2   301  5N5301      0.4393
     19  N6        18.2640    3.1060    6.9500 N.pl3 301  5N5301      0.2180
@<TRIPOS>BOND
     1    19    18    1
     2    12    13    2
     3    12    11    1
     4    18    13    1
     5    18    17    2
     6    13    14    1
     7    11    10    1
     8     2     1    1
     9     2     3    1
    10     2     9    1
    11    17    16    1
    12     4     3    1
    13     3     5    1
    14    14    10    1
    15    14    15    2
    16    10     9    1
    17    16    15    1
    18     9     8    1
    19     5     8    1
    20     5     6    1
    21     6     7    1
