@<TRIPOS>MOLECULE
3v8r_5NB_A_1.pdb
 20 22 0 0 0
SMALL
GASTEIGER

@<TRIPOS>ATOM
      1  O2'       17.7480    8.3090   12.7750 O.3   301  5NB301     -0.2130
      2  C2'       18.6580    8.9590   13.6760 C.3   301  5NB301      0.2573
      3  C3'       18.8040    8.1700   14.9590 C.3   301  5NB301      0.2174
      4  O3'       17.5460    7.5700   15.2930 O.3   301  5NB301     -0.2175
      5  C4'       19.1230    9.2520   16.0040 C.3   301  5NB301      0.1712
      6  C5'       20.6320    9.4840   16.2570 C.3   301  5NB301      0.1416
      7  N5'       20.8160   10.7960   16.9080 N.3   301  5NB301     -0.1286
      8  O4'       18.5480   10.4790   15.4960 O.3   301  5NB301     -0.3143
      9  C1'       18.0150   10.2340   14.1870 C.3   301  5NB301      0.3238
     10  N9        18.4790   11.3340   13.3600 N.pl3 301  5NB301     -0.1123
     11  C8        17.6890   12.2220   12.8000 C.2   301  5NB301      0.3130
     12 BR8        15.8230   12.1590   13.0040 Br    301  5NB301      0.0337
     13  N7        18.3790   13.1160   12.1080 N.2   301  5NB301     -0.3444
     14  C5        19.6670   12.7920   12.2410 C.2   301  5NB301      0.3071
     15  C4        19.7350   11.6530   13.0460 C.2   301  5NB301      0.3694
     16  N3        20.9360   11.0990   13.3370 N.2   301  5NB301     -0.0039
     17  C2        22.0440   11.6460   12.8590 C.3   301  5NB301      0.5255
     18  N1        22.0180   12.7320   12.0840 N.2   301  5NB301      0.0030
     19  C6        20.8580   13.3350   11.7440 C.2   301  5NB301      0.4517
     20  N6        20.8520   14.4200   10.9590 N.pl3 301  5NB301      0.2193
@<TRIPOS>BOND
     1    20    19    1
     2    19    18    2
     3    19    14    1
     4    18    17    1
     5    13    14    2
     6    13    11    2
     7    14    15    1
     8     1     2    1
     9    11    12    1
    10    11    10    1
    11    17    16    1
    12    15    16    2
    13    15    10    1
    14    10     9    1
    15     2     9    1
    16     2     3    1
    17     9     8    1
    18     3     4    1
    19     3     5    1
    20     8     5    1
    21     5     6    1
    22     6     7    1
