@<TRIPOS>MOLECULE
3v8s_0HD_A_1.pdb
 21 23 0 0 0
SMALL
GASTEIGER

@<TRIPOS>ATOM
      1  C10      -43.7130    0.2100   35.5230 C.ar  501  0HD501     -0.0003
      2  N12      -46.4180    3.1460   30.6340 N.am  501  0HD501     -0.1797
      3  C13      -46.3030    3.1620   29.2010 C.3   501  0HD501      0.1410
      4  C15      -45.5000    4.0420   27.0780 C.2   501  0HD501      0.0380
      5  C20      -47.0350    2.1300   27.1010 C.2   501  0HD501      0.0184
      6  C21      -47.0610    2.1930   28.4960 C.2   501  0HD501      0.0012
      7  O01      -44.5190    4.3300   31.3050 O.2   501  0HD501     -0.2488
      8  C02      -45.5500    3.7450   31.5960 C.2   501  0HD501      0.3438
      9  N03      -45.8990    3.6130   32.9650 N.am  501  0HD501     -0.1640
     10  C04      -45.0380    4.1810   33.9540 C.2   501  0HD501      0.0686
     11  C05      -45.1920    3.6770   35.3450 C.3   501  0HD501      0.0706
     12  C06      -45.0400    2.2120   35.5930 C.ar  501  0HD501     -0.0164
     13  C07      -46.0920    1.4910   36.1420 C.ar  501  0HD501     -0.0039
     14  C08      -45.9540    0.1280   36.3790 C.ar  501  0HD501     -0.0003
     15  C09      -44.7630   -0.5140   36.0710 C.ar  501  0HD501     -0.0000
     16  C11      -43.8470    1.5700   35.2820 C.ar  501  0HD501     -0.0039
     17  C14      -45.5270    4.1080   28.4900 C.2   501  0HD501      0.0027
     18  C16      -46.2530    3.0700   26.3880 C.2   501  0HD501      0.1039
     19  N17      -46.0510    3.2760   25.0540 N.2   501  0HD501     -0.1479
     20  N18      -45.2200    4.2860   24.8570 N.2   501  0HD501     -0.1464
     21  C19      -44.8350    4.8030   26.0210 C.2   501  0HD501      0.1234
@<TRIPOS>BOND
     1    20    19    1
     2    20    21    2
     3    19    18    2
     4    21     4    1
     5    18     4    1
     6    18     5    1
     7     4    17    2
     8     5     6    2
     9    17     3    1
    10     6     3    1
    11     3     2    1
    12     2     8   am
    13     7     8    2
    14     8     9    1
    15     9    10    2
    16    10    11    1
    17    16     1   ar
    18    16    12   ar
    19    11    12    1
    20     1    15   ar
    21    12    13   ar
    22    15    14   ar
    23    13    14   ar
