@<TRIPOS>MOLECULE
3v8t_477_A_1.pdb
 26 29 0 0 0
SMALL
GASTEIGER

@<TRIPOS>ATOM
      1  CAU      -49.3900  -18.1100   32.4560 C.3   701  477701      0.0030
      2  CAT      -50.1340  -16.9080   33.0390 C.3   701  477701      0.0347
      3  CAR      -51.6530  -17.0340   32.8670 C.3   701  477701      0.1454
      4  CAW      -52.3090  -15.8280   33.5540 C.3   701  477701      0.0347
      5  CAX      -53.8290  -15.9750   33.6420 C.3   701  477701      0.0030
      6  OAS      -52.1010  -18.2380   33.5080 O.3   701  477701     -0.2212
      7  CAJ      -52.0240  -17.0410   31.3690 C.ar  701  477701      0.0076
      8  CAI      -51.5370  -16.0360   30.5260 C.ar  701  477701      0.0301
      9  CAK      -52.8510  -18.0370   30.8330 C.ar  701  477701     -0.0018
     10  CAL      -53.1790  -18.0330   29.4710 C.ar  701  477701      0.0024
     11  CAG      -52.6960  -17.0200   28.6390 C.ar  701  477701      0.0322
     12  CAF      -52.8320  -16.7610   27.3360 C.2   701  477701      0.0359
     13  CAH      -51.8570  -16.0440   29.1650 C.ar  701  477701      0.1313
     14  NAE      -51.5590  -15.2180   28.1690 N.2   701  477701     -0.4006
     15  CAD      -52.1400  -15.6510   27.0490 C.2   701  477701      0.1479
     16  CAC      -52.0070  -15.0210   25.8070 C.2   701  477701      0.1255
     17  NAB      -51.2590  -13.9590   25.5000 N.2   701  477701     -0.1488
     18  NAA      -51.3870  -13.6690   24.3010 N.2   701  477701     -0.1513
     19  CAM      -52.2090  -14.5130   23.6650 C.2   701  477701      0.0967
     20  CAQ      -52.7320  -14.7610   22.4410 C.2   701  477701      0.0251
     21  CAN      -52.6350  -15.4170   24.6420 C.3   701  477701      0.1376
     22  SAO      -53.6950  -16.5030   23.9020 S.3   701  477701     -0.1010
     23  CAP      -53.5750  -15.8020   22.3880 C.2   701  477701      0.0708
     24  CAV      -54.3280  -16.2820   21.1450 C.3   701  477701      0.3466
     25  FAZ      -54.0670  -15.4300   20.0860 F     701  477701     -0.1927
     26  FAY      -53.9360  -17.5710   20.8240 F     701  477701     -0.1927
@<TRIPOS>BOND
     1    25    24    1
     2    26    24    1
     3    24    23    1
     4    23    20    2
     5    23    22    1
     6    20    19    1
     7    19    18    2
     8    19    21    1
     9    22    21    1
    10    18    17    1
    11    21    16    1
    12    17    16    2
    13    16    15    1
    14    15    12    1
    15    15    14    2
    16    12    11    2
    17    14    13    2
    18    11    13   ar
    19    11    10   ar
    20    13     8   ar
    21    10     9   ar
    22     8     7   ar
    23     9     7   ar
    24     7     3    1
    25     1     2    1
    26     3     2    1
    27     3     6    1
    28     3     4    1
    29     4     5    1
