@<TRIPOS>MOLECULE
3v8v_OSU_A_1.pdb
 31 32 0 0 0
SMALL
GASTEIGER

@<TRIPOS>ATOM
      1  C1       -13.0910   -8.0040   -1.4450 C.3   803  OSU803      0.2713
      2  C2       -13.3440   -7.0520   -1.0130 C.3   803  OSU803      0.2406
      3  C3       -13.7690   -7.2700    0.5520 C.3   803  OSU803      0.2198
      4  C4       -15.0600   -8.3540    0.6290 C.3   803  OSU803      0.2144
      5  C5       -14.7300   -9.3090    0.2700 C.3   803  OSU803      0.1835
      6  C6       -15.8280  -10.3680    0.0870 C.3   803  OSU803      0.2142
      7  O1       -11.8690   -8.6090   -1.0830 O.3   803  OSU803     -0.3033
      8  O2       -12.4380   -5.9520   -0.9410 O.3   803  OSU803     -0.2149
      9  O3       -14.1180   -6.1000    1.2650 O.3   803  OSU803     -0.2174
     10  O4       -15.4410   -8.1580    1.9810 O.3   803  OSU803     -0.2176
     11  O5       -14.2500   -9.1600   -1.2080 O.3   803  OSU803     -0.3256
     12  O6       -16.9140   -9.7890   -0.6060 O.3   803  OSU803     -0.2176
     13  C1'      -11.8440  -10.1010   -2.9470 C.3   803  OSU803      0.2406
     14  C2'      -11.4490   -9.9500   -1.5640 C.3   803  OSU803      0.2516
     15  C3'      -10.0140   -9.9170   -1.3190 C.3   803  OSU803      0.2381
     16  C4'       -9.9120  -10.3200    0.1530 C.3   803  OSU803      0.2166
     17  C5'      -11.0190  -11.2930    0.3090 C.3   803  OSU803      0.1802
     18  C6'      -11.6780  -11.2250    1.6910 C.3   803  OSU803      0.1770
     19  O1'      -11.1770  -10.9620   -3.8020 O.3   803  OSU803     -0.2149
     20  O2'      -11.9800  -10.9460   -0.7510 O.3   803  OSU803     -0.3273
     21  O3'       -9.4170   -8.6560   -1.6040 O.3   803  OSU803     -0.2150
     22  O4'       -8.7170  -10.7740    0.7240 O.3   803  OSU803     -0.2175
     23  O6'      -12.9440  -11.8510    1.6640 O.3   803  OSU803     -0.3258
     24  C1N      -13.0400  -13.2110    1.9900 C.3   803  OSU803      0.2690
     25  C2N      -14.4120  -13.8190    2.2820 C.3   803  OSU803      0.0644
     26  C3N      -14.4780  -15.2740    1.7020 C.3   803  OSU803      0.0053
     27  C4N      -13.7650  -16.4760    2.3560 C.3   803  OSU803      0.0002
     28  C5N      -14.5690  -17.8100    2.1240 C.3   803  OSU803      0.0000
     29  C6N      -16.1210  -17.6660    2.2880 C.3   803  OSU803      0.0000
     30  C7N      -17.0980  -18.7860    1.8230 C.3   803  OSU803      0.0000
     31  O1N      -12.2480  -13.6120    3.0080 O.3   803  OSU803     -0.1899
@<TRIPOS>BOND
     1    19    13    1
     2    13    14    1
     3    21    15    1
     4    14    15    1
     5    14     7    1
     6    14    20    1
     7     1    11    1
     8     1     7    1
     9     1     2    1
    10    15    16    1
    11    11     5    1
    12     2     8    1
    13     2     3    1
    14    20    17    1
    15    12     6    1
    16     6     5    1
    17    16    17    1
    18    16    22    1
    19     5     4    1
    20    17    18    1
    21     3     4    1
    22     3     9    1
    23     4    10    1
    24    23    18    1
    25    23    24    1
    26    26    25    1
    27    26    27    1
    28    30    29    1
    29    24    25    1
    30    24    31    1
    31    28    29    1
    32    28    27    1
