@<TRIPOS>MOLECULE
3v8v_SAM_A_1.pdb
 26 28 0 0 0
SMALL
GASTEIGER

@<TRIPOS>ATOM
      1  N          3.3300   -1.2660   18.4980 N.3   801  SAM801     -0.1208
      2  CA         3.6750   -2.6440   18.9950 C.3   801  SAM801      0.1952
      3  C          2.7150   -3.7700   18.5310 C.2   801  SAM801      0.3819
      4  O          2.8770   -4.9620   18.9030 O.co2 801  SAM801     -0.2441
      5  OXT        1.7750   -3.5220   17.7600 O.co2 801  SAM801     -0.2441
      6  CB         3.8820   -2.6960   20.5140 C.3   801  SAM801      0.0422
      7  CG         5.3460   -2.8030   20.9550 C.3   801  SAM801      0.0597
      8  SD         5.5290   -2.4960   22.7410 S.3   801  SAM801     -0.1375
      9  C5'        7.3210   -2.6390   23.0320 C.3   801  SAM801      0.0899
     10  C4'        8.0340   -3.6870   22.2000 C.3   801  SAM801      0.1630
     11  O4'        9.4350   -3.5260   22.2840 O.3   801  SAM801     -0.3153
     12  C3'        7.7470   -5.0980   22.6760 C.3   801  SAM801      0.2168
     13  O3'        7.3190   -5.8520   21.5500 O.3   801  SAM801     -0.2175
     14  C2'        9.0720   -5.6110   23.1860 C.3   801  SAM801      0.2569
     15  O2'        9.2320   -6.9500   22.8330 O.3   801  SAM801     -0.2130
     16  C1'       10.0960   -4.7680   22.4420 C.3   801  SAM801      0.3185
     17  N9        11.3930   -4.5730   23.1490 N.pl3 801  SAM801     -0.1439
     18  C8        11.6220   -4.4000   24.5030 C.3   801  SAM801      0.3377
     19  N7        12.9830   -4.2650   24.6720 N.2   801  SAM801     -0.2095
     20  C5        13.6050   -4.3280   23.5030 C.2   801  SAM801      0.2526
     21  C6        14.9240   -4.2140   23.1210 C.2   801  SAM801      0.4393
     22  N6        15.8730   -4.0380   24.0580 N.pl3 801  SAM801      0.2180
     23  N1        15.2800   -4.3230   21.7580 N.2   801  SAM801      0.0021
     24  C2        14.3030   -4.5340   20.8260 C.3   801  SAM801      0.5254
     25  N3        12.9940   -4.6480   21.2440 N.2   801  SAM801     -0.0055
     26  C4        12.6360   -4.5350   22.5350 C.2   801  SAM801      0.3518
@<TRIPOS>BOND
     1     5     3   ar
     2     1     2    1
     3     3     4   ar
     4     3     2    1
     5     2     6    1
     6     6     7    1
     7    24    25    1
     8    24    23    1
     9     7     8    1
    10    25    26    2
    11    13    12    1
    12    23    21    2
    13    10    11    1
    14    10    12    1
    15    10     9    1
    16    11    16    1
    17    16    17    1
    18    16    14    1
    19    26    17    1
    20    26    20    1
    21    12    14    1
    22     8     9    1
    23    15    14    1
    24    21    20    1
    25    21    22    1
    26    17    18    1
    27    20    19    2
    28    18    19    1
