@<TRIPOS>MOLECULE
3v8w_0G2_A_1.pdb
 29 33 0 0 0
SMALL
GASTEIGER

@<TRIPOS>ATOM
      1  CBB      -52.5750  -15.7470   35.1470 C.3   701  0G2701      0.0030
      2  CAY      -52.7790  -15.7760   33.6280 C.3   701  0G2701      0.0347
      3  CAS      -51.9360  -16.8660   32.9530 C.3   701  0G2701      0.1454
      4  CAZ      -50.4450  -16.5520   33.1510 C.3   701  0G2701      0.0347
      5  CBC      -49.5510  -17.6280   32.5280 C.3   701  0G2701      0.0030
      6  OBA      -52.2320  -18.1320   33.5580 O.3   701  0G2701     -0.2212
      7  CAH      -52.2810  -16.8910   31.4500 C.ar  701  0G2701      0.0076
      8  CAI      -51.8020  -15.8850   30.6030 C.ar  701  0G2701      0.0301
      9  CAG      -53.0900  -17.9040   30.9240 C.ar  701  0G2701     -0.0018
     10  CAF      -53.4050  -17.9220   29.5630 C.ar  701  0G2701      0.0024
     11  CAE      -52.9250  -16.9130   28.7280 C.ar  701  0G2701      0.0322
     12  CAB      -53.0500  -16.6840   27.4250 C.2   701  0G2701      0.0359
     13  CAD      -52.1080  -15.9120   29.2410 C.ar  701  0G2701      0.1313
     14  NAC      -51.8060  -15.1030   28.2310 N.2   701  0G2701     -0.4006
     15  CAA      -52.3720  -15.5750   27.1200 C.2   701  0G2701      0.1479
     16  CAJ      -52.2590  -14.9910   25.8580 C.2   701  0G2701      0.1256
     17  NAK      -51.5150  -13.9520   25.4870 N.2   701  0G2701     -0.1488
     18  NAL      -51.6770  -13.7130   24.2830 N.2   701  0G2701     -0.1513
     19  CAN      -52.5260  -14.5700   23.7060 C.2   701  0G2701      0.0968
     20  CAO      -53.0930  -14.8600   22.5110 C.2   701  0G2701      0.0239
     21  CAM      -52.9280  -15.4250   24.7300 C.3   701  0G2701      0.1378
     22  SAQ      -54.0140  -16.5180   24.0680 S.3   701  0G2701     -0.1021
     23  CAP      -53.9410  -15.9020   22.5000 C.2   701  0G2701      0.0272
     24  CAR      -54.6970  -16.4130   21.4430 C.ar  701  0G2701      0.0057
     25  CAT      -54.8150  -15.6870   20.2540 C.ar  701  0G2701      0.0005
     26  CAU      -55.5840  -16.1820   19.1990 C.ar  701  0G2701      0.0000
     27  CAV      -56.2430  -17.4040   19.3280 C.ar  701  0G2701      0.0000
     28  CAW      -56.1370  -18.1300   20.5150 C.ar  701  0G2701      0.0000
     29  CAX      -55.3680  -17.6340   21.5690 C.ar  701  0G2701      0.0005
@<TRIPOS>BOND
     1    26    27   ar
     2    26    25   ar
     3    27    28   ar
     4    25    24   ar
     5    28    29   ar
     6    24    29   ar
     7    24    23    1
     8    23    20    2
     9    23    22    1
    10    20    19    1
    11    19    18    2
    12    19    21    1
    13    22    21    1
    14    18    17    1
    15    21    16    1
    16    17    16    2
    17    16    15    1
    18    15    12    1
    19    15    14    2
    20    12    11    2
    21    14    13    2
    22    11    13   ar
    23    11    10   ar
    24    13     8   ar
    25    10     9   ar
    26     8     7   ar
    27     9     7   ar
    28     7     3    1
    29     5     4    1
    30     3     4    1
    31     3     6    1
    32     3     2    1
    33     2     1    1
