@<TRIPOS>MOLECULE
3v8x_C8E_A_1.pdb
 21 20 0 0 0
SMALL
GASTEIGER

@<TRIPOS>ATOM
      1  C1        42.6440  -53.6530   16.7100 C.3   1001  C8E1001     0.0000
      2  C2        41.8370  -53.5070   17.9960 C.3   1001  C8E1001     0.0000
      3  C3        41.8450  -54.8000   18.8050 C.3   1001  C8E1001     0.0000
      4  C4        41.5930  -54.5290   20.2840 C.3   1001  C8E1001     0.0000
      5  C5        40.2770  -55.1540   20.7310 C.3   1001  C8E1001     0.0001
      6  C6        40.4600  -55.9740   22.0040 C.3   1001  C8E1001     0.0026
      7  C7        39.1140  -56.3670   22.6060 C.3   1001  C8E1001     0.0321
      8  C8        38.2320  -57.0630   21.5750 C.3   1001  C8E1001     0.1423
      9  O9        36.8780  -56.7270   21.7890 O.3   1001  C8E1001    -0.3511
     10  C10       36.5370  -55.4570   21.2720 C.3   1001  C8E1001     0.1741
     11  C11       35.0160  -55.3240   21.2070 C.3   1001  C8E1001     0.1742
     12  O12       34.4840  -55.1490   22.5040 O.3   1001  C8E1001    -0.3484
     13  C13       33.7550  -53.9480   22.6350 C.3   1001  C8E1001     0.1742
     14  C14       34.6930  -52.8160   23.0450 C.3   1001  C8E1001     0.1742
     15  O15       34.6080  -51.7740   22.0990 O.3   1001  C8E1001    -0.3484
     16  C16       35.7370  -51.7050   21.2560 C.3   1001  C8E1001     0.1742
     17  C17       36.9080  -51.0800   22.0020 C.3   1001  C8E1001     0.1742
     18  O18       37.9790  -50.8660   21.1060 O.3   1001  C8E1001    -0.3483
     19  C19       37.7570  -49.7770   20.2350 C.3   1001  C8E1001     0.1777
     20  C20       38.6490  -48.6040   20.6360 C.3   1001  C8E1001     0.2140
     21  O21       39.6950  -48.4510   19.7010 O.3   1001  C8E1001    -0.2176
@<TRIPOS>BOND
     1     1     2    1
     2     2     3    1
     3     3     4    1
     4    21    20    1
     5    19    20    1
     6    19    18    1
     7     4     5    1
     8     5     6    1
     9    18    17    1
    10    11    10    1
    11    11    12    1
    12    16    17    1
    13    16    15    1
    14    10     9    1
    15     8     9    1
    16     8     7    1
    17     6     7    1
    18    15    14    1
    19    12    13    1
    20    13    14    1
