@<TRIPOS>MOLECULE
3v8x_MAN_B_1.pdb
 11 11 0 0 0
SMALL
GASTEIGER

@<TRIPOS>ATOM
      1  C1         5.7880  -25.3360    2.2810 C.3   704  MAN704      0.1777
      2  C2         6.7120  -26.5300    2.1260 C.3   704  MAN704      0.2141
      3  C3         5.9350  -27.8000    2.4420 C.3   704  MAN704      0.2173
      4  C4         4.5500  -27.8970    1.7780 C.3   704  MAN704      0.2142
      5  C5         3.8490  -26.5580    1.7910 C.3   704  MAN704      0.1810
      6  C6         2.5060  -26.8240    2.4110 C.3   704  MAN704      0.2141
      7  O2         7.8040  -26.4040    3.0110 O.3   704  MAN704     -0.2176
      8  O3         5.7510  -27.8120    3.8440 O.3   704  MAN704     -0.2175
      9  O4         4.4080  -28.4830    0.4840 O.3   704  MAN704     -0.2176
     10  O5         4.5060  -25.7270    2.7040 O.3   704  MAN704     -0.3481
     11  O6         2.7370  -27.2080    3.7480 O.3   704  MAN704     -0.2176
@<TRIPOS>BOND
     1     9     4    1
     2     4     5    1
     3     4     3    1
     4     5     6    1
     5     5    10    1
     6     2     1    1
     7     2     3    1
     8     2     7    1
     9     1    10    1
    10     6    11    1
    11     3     8    1
