@<TRIPOS>MOLECULE
3v8x_SIA_B_1.pdb
 20 20 0 0 0
SMALL
GASTEIGER

@<TRIPOS>ATOM
      1  C1         1.0440  -25.4770   42.1600 C.2   717  SIA717      0.3914
      2  C2         1.8630  -24.5860   43.0760 C.3   717  SIA717      0.2203
      3  C3         1.5900  -25.0470   44.4990 C.3   717  SIA717      0.0760
      4  C4         2.1330  -26.4510   44.6360 C.3   717  SIA717      0.1773
      5  C5         3.6410  -26.3950   44.4770 C.3   717  SIA717      0.1552
      6  C6         4.0920  -25.6920   43.1910 C.3   717  SIA717      0.1710
      7  C7         5.5640  -25.3100   43.3680 C.3   717  SIA717      0.2134
      8  C8         6.1980  -24.7410   42.1060 C.3   717  SIA717      0.2173
      9  C9         7.6390  -24.3420   42.3990 C.3   717  SIA717      0.2175
     10  C10        5.0350  -28.1800   45.4350 C.2   717  SIA717      0.2420
     11  C11        5.5020  -27.1790   46.4520 C.3   717  SIA717      0.0964
     12  N5         4.1590  -27.7530   44.5230 N.am  717  SIA717     -0.2020
     13  O1A        1.6120  -26.2710   41.3790 O.co2 717  SIA717     -0.2430
     14  O1B       -0.2040  -25.4080   42.2330 O.co2 717  SIA717     -0.2430
     15  O4         1.7880  -26.9890   45.9170 O.3   717  SIA717     -0.2211
     16  O6         3.2720  -24.5810   42.7300 O.3   717  SIA717     -0.3429
     17  O7         5.7060  -24.3730   44.4410 O.3   717  SIA717     -0.2176
     18  O8         6.1720  -25.7190   41.0610 O.3   717  SIA717     -0.2175
     19  O9         8.3600  -24.1980   41.1720 O.3   717  SIA717     -0.2175
     20  O10        5.4420  -29.3300   45.4480 O.2   717  SIA717     -0.2733
@<TRIPOS>BOND
     1    18     8    1
     2    19     9    1
     3    13     1   ar
     4     8     9    1
     5     8     7    1
     6     1    14   ar
     7     1     2    1
     8    16     2    1
     9    16     6    1
    10     2     3    1
    11     6     7    1
    12     6     5    1
    13     7    17    1
    14     5    12    1
    15     5     4    1
    16     3     4    1
    17    12    10   am
    18     4    15    1
    19    10    20    2
    20    10    11    1
