@<TRIPOS>MOLECULE
3v8z_UDP_A_1.pdb
 25 26 0 0 0
SMALL
GASTEIGER

@<TRIPOS>ATOM
      1  N1         6.9720  -32.2490   84.9620 N.am  305  UDP305     -0.1766
      2  C2         7.6030  -31.1330   85.4900 C.1   305  UDP305      0.2845
      3  N3         7.2350  -30.6560   86.7360 N.2   305  UDP305     -0.2452
      4  C4         6.2290  -31.2770   87.4720 C.1   305  UDP305      0.2182
      5  C5         5.5930  -32.4000   86.9430 C.2   305  UDP305      0.1242
      6  C6         6.0860  -32.9500   85.7600 C.2   305  UDP305      0.0929
      7  O2         8.4870  -30.5650   84.8530 O.2   305  UDP305     -0.1918
      8  O4         5.9040  -30.8440   88.5840 O.2   305  UDP305     -0.2085
      9  C1'        7.3630  -32.7350   83.6110 C.3   305  UDP305      0.2401
     10  C2'        8.5550  -33.6770   83.6260 C.3   305  UDP305      0.2319
     11  O2'        9.2100  -33.6220   82.3700 O.3   305  UDP305     -0.2157
     12  C3'        7.8550  -35.0010   83.8220 C.3   305  UDP305      0.2158
     13  C4'        6.5760  -34.8360   82.9940 C.3   305  UDP305      0.1799
     14  O4'        6.3000  -33.4500   83.0070 O.3   305  UDP305     -0.3320
     15  O3'        8.6790  -36.1010   83.5020 O.3   305  UDP305     -0.2175
     16  C5'        5.3470  -35.5040   83.5860 C.3   305  UDP305      0.1813
     17  O5'        5.6590  -36.8180   83.9600 O.3   305  UDP305     -0.3111
     18  PA         5.8560  -37.2660   85.4960 P.3   305  UDP305      0.2231
     19  O1A        5.8520  -36.1050   86.3980 O.3   305  UDP305     -0.4370
     20  O2A        7.1360  -37.9900   85.5820 O.2   305  UDP305     -0.5169
     21  O3A        4.5360  -38.1760   85.7160 O.3   305  UDP305     -0.2261
     22  PB         4.5620  -39.7870   85.6320 P.3   305  UDP305      0.5373
     23  O1B        5.2350  -40.2330   86.8690 O.3   305  UDP305     -0.1143
     24  O2B        5.3030  -40.1970   84.4250 O.2   305  UDP305     -0.2221
     25  O3B        3.1950  -40.3590   85.5720 O.3   305  UDP305     -0.1143
@<TRIPOS>BOND
     1    11    10    1
     2    13    14    1
     3    13    16    1
     4    13    12    1
     5    14     9    1
     6    15    12    1
     7    16    17    1
     8     9    10    1
     9     9     1    1
    10    10    12    1
    11    17    18    1
    12    24    22    2
    13     7     2    2
    14     1     2   am
    15     1     6    1
    16     2     3    2
    17    18    20    2
    18    18    21    1
    19    18    19    1
    20    25    22    1
    21    22    21    1
    22    22    23    1
    23     6     5    2
    24     3     4    2
    25     5     4    1
    26     4     8    2
