@<TRIPOS>MOLECULE
3v91_UPG_A_1.pdb
 36 38 0 0 0
SMALL
GASTEIGER

@<TRIPOS>ATOM
      1  N1         6.8170  -31.4800   84.7450 N.am  304  UPG304     -0.1766
      2  C2         7.5200  -30.3770   85.3140 C.1   304  UPG304      0.2845
      3  N3         7.1830  -29.9230   86.5400 N.2   304  UPG304     -0.2452
      4  C4         6.1860  -30.4800   87.2600 C.1   304  UPG304      0.2182
      5  C5         5.4690  -31.5600   86.7360 C.2   304  UPG304      0.1242
      6  C6         5.8100  -32.0380   85.4660 C.2   304  UPG304      0.0929
      7  O2         8.4550  -29.8200   84.6960 O.2   304  UPG304     -0.1918
      8  O4         5.9040  -30.0300   88.3980 O.2   304  UPG304     -0.2085
      9  C1C        7.1560  -31.9780   83.3920 C.3   304  UPG304      0.2401
     10  C2C        8.3990  -32.8590   83.3730 C.3   304  UPG304      0.2319
     11  O2C        9.0300  -32.8250   82.0740 O.3   304  UPG304     -0.2157
     12  C3C        7.7770  -34.2110   83.6260 C.3   304  UPG304      0.2158
     13  C4C        6.4890  -34.1510   82.7970 C.3   304  UPG304      0.1799
     14  O4C        6.0820  -32.7790   82.8670 O.3   304  UPG304     -0.3320
     15  O3C        8.6730  -35.2800   83.3130 O.3   304  UPG304     -0.2175
     16  C5C        5.3370  -35.0480   83.2620 C.3   304  UPG304      0.1813
     17  O5C        5.2200  -35.0300   84.6880 O.3   304  UPG304     -0.3112
     18  PA         5.7660  -36.2540   85.5830 P.3   304  UPG304      0.2189
     19  O1A        7.0150  -36.8680   85.0070 O.2   304  UPG304     -0.5170
     20  O2A        6.0130  -35.8220   87.0130 O.3   304  UPG304     -0.4371
     21  O3A        4.5220  -37.2640   85.5100 O.3   304  UPG304     -0.2703
     22  PB         4.6310  -38.8710   85.5860 P.3   304  UPG304      0.2208
     23  O1B        5.5260  -39.4460   84.5120 O.2   304  UPG304     -0.5170
     24  O2B        5.0450  -39.3110   86.9720 O.3   304  UPG304     -0.4371
     25  O3B        3.1090  -39.2680   85.2680 O.3   304  UPG304     -0.2857
     26  C1'        2.2840  -38.3460   84.5480 C.3   304  UPG304      0.2742
     27  C2'        0.8690  -38.9000   84.4610 C.3   304  UPG304      0.2409
     28  C3'        0.8750  -40.1750   83.6200 C.3   304  UPG304      0.2198
     29  C4'        1.5380  -39.9380   82.2600 C.3   304  UPG304      0.2144
     30  C5'        2.9050  -39.2430   82.3780 C.3   304  UPG304      0.1835
     31  C6'        3.4970  -38.8720   81.0120 C.3   304  UPG304      0.2142
     32  O2'        0.4190  -39.1870   85.7870 O.3   304  UPG304     -0.2149
     33  O3'       -0.4630  -40.6770   83.4750 O.3   304  UPG304     -0.2174
     34  O4'        1.7300  -41.2140   81.6380 O.3   304  UPG304     -0.2176
     35  O5'        2.8190  -38.0930   83.2390 O.3   304  UPG304     -0.3254
     36  O6'        3.5520  -37.4540   80.8140 O.3   304  UPG304     -0.2176
@<TRIPOS>BOND
     1    36    31    1
     2    31    30    1
     3    34    29    1
     4    11    10    1
     5    29    30    1
     6    29    28    1
     7    30    35    1
     8    13    14    1
     9    13    16    1
    10    13    12    1
    11    14     9    1
    12    35    26    1
    13    16    17    1
    14    15    12    1
    15    10     9    1
    16    10    12    1
    17     9     1    1
    18    33    28    1
    19    28    27    1
    20    27    26    1
    21    27    32    1
    22    23    22    2
    23    26    25    1
    24    17    18    1
    25     7     2    2
    26     1     2   am
    27     1     6    1
    28    19    18    2
    29    25    22    1
    30     2     3    2
    31     6     5    2
    32    21    18    1
    33    21    22    1
    34    18    20    1
    35    22    24    1
    36     3     4    2
    37     5     4    1
    38     4     8    2
