@<TRIPOS>MOLECULE
3v94_WYQ_A_1.pdb
 33 35 0 0 0
SMALL
GASTEIGER

@<TRIPOS>ATOM
      1  C16      -15.0890  -27.7100  -47.0910 C.3   701  WYQ701      0.0474
      2  C15      -14.2640  -27.9480  -45.8250 C.3   701  WYQ701      0.1708
      3  C17      -14.7140  -29.2670  -45.1920 C.3   701  WYQ701      0.0474
      4  O6       -12.8780  -28.0020  -46.1940 O.3   701  WYQ701     -0.4362
      5  C14      -12.0710  -28.2040  -45.1160 C.2   701  WYQ701      0.4423
      6  O5       -12.5790  -28.3200  -44.0010 O.2   701  WYQ701     -0.2228
      7  N5       -10.7600  -28.2870  -45.3270 N.am  701  WYQ701     -0.0212
      8  S1        -9.9420  -27.2550  -44.3670 S.O2  701  WYQ701      0.0980
      9  O4        -8.6280  -27.7710  -44.1330 O.2   701  WYQ701     -0.1481
     10  O3       -10.6430  -27.0930  -43.0510 O.2   701  WYQ701     -0.1481
     11  C8        -9.7800  -25.7020  -45.1510 C.ar  701  WYQ701      0.1282
     12  C7       -10.0120  -25.5860  -46.5170 C.ar  701  WYQ701      0.0354
     13  C9        -9.2740  -24.6260  -44.4320 C.ar  701  WYQ701      0.0234
     14  C10       -8.9890  -23.4300  -45.0810 C.ar  701  WYQ701      0.0390
     15  C11       -9.2110  -23.3120  -46.4480 C.ar  701  WYQ701      0.1499
     16  O2        -8.9580  -22.1420  -47.0950 O.3   701  WYQ701     -0.4747
     17  C12       -8.0570  -21.3130  -46.3450 C.3   701  WYQ701      0.2056
     18  C13       -8.8600  -20.2790  -45.5520 C.3   701  WYQ701      0.0512
     19  C6        -9.7150  -24.3930  -47.1610 C.ar  701  WYQ701      0.1215
     20  C5        -9.7890  -24.3180  -48.5470 C.1   701  WYQ701      0.1525
     21  N4        -9.0140  -23.3640  -49.2150 N.2   701  WYQ701     -0.2682
     22  C4        -9.0050  -23.3380  -50.6130 C.1   701  WYQ701      0.2168
     23  O1        -8.3220  -22.5100  -51.2140 O.2   701  WYQ701     -0.2113
     24  N3       -10.5260  -25.2010  -49.2360 N.2   701  WYQ701     -0.3394
     25  C2       -10.5290  -25.1910  -50.5750 C.2   701  WYQ701      0.1728
     26  C3        -9.7780  -24.2710  -51.2930 C.3   701  WYQ701      0.2631
     27  N2       -10.0110  -24.5310  -52.5760 N.pl3 701  WYQ701     -0.2099
     28  C18       -9.4690  -23.8490  -53.5830 C.3   701  WYQ701      0.1358
     29  N1       -10.7910  -25.4700  -52.7290 N.2   701  WYQ701     -0.1827
     30  C1       -11.1710  -25.9490  -51.5460 C.2   701  WYQ701      0.1051
     31  C19      -12.1180  -27.1260  -51.3080 C.3   701  WYQ701      0.0498
     32  C20      -11.4280  -28.4390  -51.6840 C.3   701  WYQ701      0.0064
     33  C21      -11.2130  -29.3080  -50.4430 C.3   701  WYQ701      0.0004
@<TRIPOS>BOND
     1    28    27    1
     2    29    27    1
     3    29    30    2
     4    27    26    1
     5    32    31    1
     6    32    33    1
     7    30    31    1
     8    30    25    1
     9    26    22    1
    10    26    25    1
    11    23    22    2
    12    22    21    2
    13    25    24    2
    14    24    20    2
    15    21    20    2
    16    20    19    1
    17    19    12   ar
    18    19    15   ar
    19    16    15    1
    20    16    17    1
    21     1     2    1
    22    12    11   ar
    23    15    14   ar
    24    17    18    1
    25     4     2    1
    26     4     5    1
    27     2     3    1
    28     7     5   am
    29     7     8    1
    30    11    13   ar
    31    11     8    1
    32     5     6    2
    33    14    13   ar
    34     8     9    2
    35     8    10    2
