@<TRIPOS>MOLECULE
3v95_GAL_A_1.pdb
 11 11 0 0 0
SMALL
GASTEIGER

@<TRIPOS>ATOM
      1  C1        14.8930   16.3170   20.0770 C.3   506  GAL506      0.1777
      2  C2        14.2680   17.4840   19.3680 C.3   506  GAL506      0.2141
      3  C3        12.8040   17.0830   19.1800 C.3   506  GAL506      0.2173
      4  C4        12.0420   16.9530   20.4750 C.3   506  GAL506      0.2142
      5  C5        12.9850   16.7480   21.6400 C.3   506  GAL506      0.1810
      6  C6        12.2410   15.9530   22.7060 C.3   506  GAL506      0.2141
      7  O2        14.4780   18.6440   20.1480 O.3   506  GAL506     -0.2176
      8  O3        12.7310   15.7650   18.6600 O.3   506  GAL506     -0.2175
      9  O4        11.2620   15.7910   20.3260 O.3   506  GAL506     -0.2176
     10  O5        14.1750   16.0340   21.2830 O.3   506  GAL506     -0.3481
     11  O6        10.8760   16.3270   22.8690 O.3   506  GAL506     -0.2176
@<TRIPOS>BOND
     1     8     3    1
     2     3     2    1
     3     3     4    1
     4     2     1    1
     5     2     7    1
     6     1    10    1
     7     9     4    1
     8     4     5    1
     9    10     5    1
    10     5     6    1
    11     6    11    1
