@<TRIPOS>MOLECULE
3v95_MAN_A_1.pdb
 11 11 0 0 0
SMALL
GASTEIGER

@<TRIPOS>ATOM
      1  C1        20.8570    8.2790   11.2990 C.3   503  MAN503      0.1777
      2  C2        20.5420    6.7910   11.3610 C.3   503  MAN503      0.2141
      3  C3        19.5300    6.3730   12.4240 C.3   503  MAN503      0.2173
      4  C4        19.6660    7.1970   13.6790 C.3   503  MAN503      0.2142
      5  C5        19.4810    8.6540   13.3420 C.3   503  MAN503      0.1810
      6  C6        20.1060    9.4720   14.4420 C.3   503  MAN503      0.2141
      7  O2        21.7820    6.1540   11.5550 O.3   503  MAN503     -0.2176
      8  O3        19.7480    5.0350   12.7920 O.3   503  MAN503     -0.2175
      9  O4        18.6610    6.8400   14.5930 O.3   503  MAN503     -0.2176
     10  O5        20.0240    9.0820   12.1000 O.3   503  MAN503     -0.3481
     11  O6        19.7870   10.7970   14.1450 O.3   503  MAN503     -0.2176
@<TRIPOS>BOND
     1     1     2    1
     2     1    10    1
     3     2     7    1
     4     2     3    1
     5    10     5    1
     6     3     8    1
     7     3     4    1
     8     5     4    1
     9     5     6    1
    10     4     9    1
    11    11     6    1
