@<TRIPOS>MOLECULE
3v97_SAH_A_1.pdb
 26 28 0 0 0
SMALL
GASTEIGER

@<TRIPOS>ATOM
      1  N          3.9070   -0.9990   18.2570 N.3   801  SAH801     -0.1208
      2  CA         3.5820   -2.3760   18.8030 C.3   801  SAH801      0.1952
      3  CB         3.6450   -2.5540   20.3530 C.3   801  SAH801      0.0422
      4  CG         5.1270   -2.5210   20.8080 C.3   801  SAH801      0.0597
      5  SD         5.3760   -2.8640   22.5380 S.3   801  SAH801     -0.1375
      6  C          2.2630   -2.8680   18.1960 C.2   801  SAH801      0.3819
      7  O          1.9590   -4.0820   18.2760 O.co2 801  SAH801     -0.2441
      8  OXT        1.5140   -2.0480   17.5910 O.co2 801  SAH801     -0.2441
      9  C5'        7.1380   -2.5960   22.6830 C.3   801  SAH801      0.0899
     10  C4'        8.0230   -3.7170   22.1530 C.3   801  SAH801      0.1630
     11  O4'        9.4270   -3.5230   22.4430 O.3   801  SAH801     -0.3153
     12  C3'        7.7170   -5.1470   22.5400 C.3   801  SAH801      0.2168
     13  O3'        7.3720   -5.8620   21.2860 O.3   801  SAH801     -0.2175
     14  C2'        9.0270   -5.7020   23.0920 C.3   801  SAH801      0.2569
     15  O2'        9.2680   -6.9830   22.5380 O.3   801  SAH801     -0.2130
     16  C1'       10.0550   -4.7980   22.4050 C.3   801  SAH801      0.3185
     17  N9        11.3230   -4.5580   23.0800 N.pl3 801  SAH801     -0.1439
     18  C8        11.5120   -4.3220   24.4270 C.3   801  SAH801      0.3377
     19  N7        12.8930   -4.1000   24.5870 N.2   801  SAH801     -0.2095
     20  C5        13.5430   -4.2020   23.4240 C.2   801  SAH801      0.2526
     21  C6        14.9230   -4.0890   22.9700 C.2   801  SAH801      0.4393
     22  N6        15.8620   -3.8370   23.9240 N.pl3 801  SAH801      0.2180
     23  N1        15.2220   -4.2620   21.6430 N.2   801  SAH801      0.0021
     24  C2        14.2360   -4.5490   20.8010 C.3   801  SAH801      0.5254
     25  N3        12.9380   -4.6980   21.1630 N.2   801  SAH801     -0.0055
     26  C4        12.5300   -4.4990   22.4160 C.2   801  SAH801      0.3518
@<TRIPOS>BOND
     1     8     6   ar
     2     6     7   ar
     3     6     2    1
     4     1     2    1
     5     2     3    1
     6     3     4    1
     7    24    25    1
     8    24    23    1
     9     4     5    1
    10    25    26    2
    11    13    12    1
    12    23    21    2
    13    10    11    1
    14    10    12    1
    15    10     9    1
    16    16    11    1
    17    16    17    1
    18    16    14    1
    19    26    17    1
    20    26    20    1
    21    15    14    1
    22     5     9    1
    23    12    14    1
    24    21    20    1
    25    21    22    1
    26    17    18    1
    27    20    19    2
    28    18    19    1
