@<TRIPOS>MOLECULE
3v97_OSU_A_1.pdb
 31 32 0 0 0
SMALL
GASTEIGER

@<TRIPOS>ATOM
      1  C1       -13.0680   -8.0900   -1.7680 C.3   805  OSU805      0.2713
      2  C2       -13.4040   -7.1300   -1.2750 C.3   805  OSU805      0.2406
      3  C3       -13.8140   -7.3270    0.3370 C.3   805  OSU805      0.2198
      4  C4       -15.0570   -8.4660    0.3740 C.3   805  OSU805      0.2144
      5  C5       -14.7000   -9.3910   -0.1060 C.3   805  OSU805      0.1835
      6  C6       -15.7430  -10.5230   -0.1880 C.3   805  OSU805      0.2142
      7  O1       -11.9470   -8.8970   -1.2340 O.3   805  OSU805     -0.3033
      8  O2       -12.5320   -6.0380   -1.1320 O.3   805  OSU805     -0.2149
      9  O3       -14.1370   -6.1650    1.1100 O.3   805  OSU805     -0.2174
     10  O4       -15.4870   -8.4140    1.7480 O.3   805  OSU805     -0.2176
     11  O5       -14.3710   -9.0730   -1.6200 O.3   805  OSU805     -0.3256
     12  O6       -16.8200   -9.9070   -0.8700 O.3   805  OSU805     -0.2176
     13  C1'      -11.9290  -10.2760   -3.1430 C.3   805  OSU805      0.2406
     14  C2'      -11.4660  -10.1530   -1.7650 C.3   805  OSU805      0.2516
     15  C3'       -9.9970  -10.0460   -1.5510 C.3   805  OSU805      0.2382
     16  C4'       -9.8250  -10.4680   -0.0590 C.3   805  OSU805      0.2178
     17  C5'      -10.9180  -11.4510    0.1790 C.3   805  OSU805      0.1942
     18  C6'      -11.6820  -11.1650    1.4700 C.3   805  OSU805      0.2405
     19  O1'      -11.0240  -10.9130   -4.0300 O.3   805  OSU805     -0.2149
     20  O2'      -11.8310  -11.2690   -1.0180 O.3   805  OSU805     -0.3261
     21  O3'       -9.4630   -8.7570   -1.6930 O.3   805  OSU805     -0.2150
     22  O4'       -8.5460  -10.9020    0.2550 O.3   805  OSU805     -0.2175
     23  O6'      -12.8920  -11.9070    1.5010 O.3   805  OSU805     -0.4457
     24  C1N      -12.7810  -13.2600    1.8430 C.2   805  OSU805      0.3174
     25  C2N      -14.0470  -14.0610    2.1930 C.3   805  OSU805      0.1142
     26  C3N      -14.1890  -15.3620    1.3470 C.3   805  OSU805      0.0373
     27  C4N      -13.8040  -16.7020    2.0070 C.2   805  OSU805     -0.0301
     28  C5N      -14.7620  -17.9280    1.9400 C.2   805  OSU805     -0.0307
     29  C6N      -16.1540  -17.8240    1.2530 C.3   805  OSU805      0.0257
     30  C7N      -17.3410  -18.5320    1.9600 C.3   805  OSU805      0.0050
     31  O1N      -11.7100  -13.4680    2.6950 O.2   805  OSU805     -0.2501
@<TRIPOS>BOND
     1    19    13    1
     2    13    14    1
     3     1    11    1
     4     1     2    1
     5     1     7    1
     6    14    15    1
     7    14     7    1
     8    14    20    1
     9    21    15    1
    10    11     5    1
    11    15    16    1
    12     2     8    1
    13     2     3    1
    14    20    17    1
    15    12     6    1
    16     6     5    1
    17     5     4    1
    18    16    17    1
    19    16    22    1
    20    17    18    1
    21     3     4    1
    22     3     9    1
    23     4    10    1
    24    29    28    1
    25    29    30    1
    26    26    27    1
    27    26    25    1
    28    18    23    1
    29    23    24    1
    30    24    25    1
    31    24    31    2
    32    28    27    2
