@<TRIPOS>MOLECULE
3v9b_IHM_A_1.pdb
 39 43 0 0 0
SMALL
GASTEIGER

@<TRIPOS>ATOM
      1  C01       22.0370   -4.2780   32.7590 C.ar    1  IHM1        0.1779
      2  C02       21.7330   -3.0170   32.0400 C.ar    1  IHM1        0.0400
      3  C03       21.4470   -3.0270   30.6450 C.ar    1  IHM1        0.0009
      4  C04       21.4500   -4.2800   29.9280 C.ar    1  IHM1        0.0034
      5  C05       21.7360   -5.5000   30.6160 C.ar    1  IHM1        0.0377
      6  C06       22.0280   -5.5250   32.0140 C.ar    1  IHM1        0.1721
      7  O07       22.3520   -4.3750   34.1410 O.3     1  IHM1       -0.4205
      8  C08       22.4370   -3.2780   35.0400 C.3     1  IHM1        0.5087
      9  F09       21.2610   -2.5950   35.1890 F       1  IHM1       -0.1550
     10  F10       23.4030   -2.4000   34.5850 F       1  IHM1       -0.1550
     11  O11       22.3230   -6.6530   32.7530 O.3     1  IHM1       -0.4724
     12  C12       22.9330   -7.7620   32.0400 C.3     1  IHM1        0.2054
     13  C13       23.1440   -8.8430   33.0390 C.3     1  IHM1        0.0438
     14  C14       21.8400   -9.4940   33.4440 C.3     1  IHM1        0.0038
     15  C15       23.0720  -10.2930   33.0350 C.3     1  IHM1        0.0038
     16  C16       21.1720   -4.3070   28.4470 C.3     1  IHM1        0.1318
     17  O17       19.0310   -4.2710   22.5600 O.co2   1  IHM1       -0.6187
     18  C18       22.9210   -5.6760   27.1440 C.ar    1  IHM1        0.0970
     19  C19       22.9780   -6.9990   26.6710 C.ar    1  IHM1        0.0411
     20  C20       21.7090   -7.5970   27.0760 C.ar    1  IHM1        0.1025
     21  N21       20.9700   -6.6710   27.7470 N.ar    1  IHM1       -0.1690
     22  N22       21.6750   -5.5350   27.7910 N.ar    1  IHM1       -0.2469
     23  C23       21.2320   -8.9660   26.8300 C.ar    1  IHM1        0.0207
     24  C24       19.9250   -9.3210   27.3240 C.ar    1  IHM1        0.0181
     25  C25       19.3710  -10.6550   27.1110 C.ar    1  IHM1        0.0734
     26  C26       20.1710  -11.6430   26.3800 C.ar    1  IHM1        0.0166
     27  C27       21.4890  -11.2840   25.8860 C.ar    1  IHM1        0.0014
     28  C28       22.0260   -9.9540   26.1020 C.ar    1  IHM1        0.0016
     29  N29       18.0770  -10.9240   27.6210 N.am    1  IHM1       -0.1792
     30  C30       16.8890  -10.1890   27.4710 C.2     1  IHM1        0.2461
     31  O31       16.8000   -9.1150   26.8220 O.2     1  IHM1       -0.2730
     32  C32       19.6310   -4.0670   28.1340 C.3     1  IHM1        0.0556
     33  C33       15.6810  -10.7780   28.1600 C.3     1  IHM1        0.0968
     34  C34       19.4630   -4.1050   26.6450 C.ar    1  IHM1       -0.0076
     35  C35       20.0870   -3.1000   25.7970 C.ar    1  IHM1        0.0730
     36  C36       19.9260   -3.1690   24.3920 C.ar    1  IHM1        0.3014
     37  N37       19.1570   -4.2170   23.7870 N.ar    1  IHM1       -0.1519
     38  C38       18.5390   -5.2070   24.6280 C.ar    1  IHM1        0.3014
     39  C39       18.6840   -5.1590   26.0370 C.ar    1  IHM1        0.0730
@<TRIPOS>UNITY_ATOM_ATTR
17 1
charge -1
37 1
charge 1
@<TRIPOS>BOND
     1    17    37    1
     2    37    36   ar
     3    37    38   ar
     4    36    35   ar
     5    38    39   ar
     6    35    34   ar
     7    27    28   ar
     8    27    26   ar
     9    39    34   ar
    10    28    23   ar
    11    26    25   ar
    12    34    32    1
    13    19    20   ar
    14    19    18   ar
    15    31    30    2
    16    23    20    1
    17    23    24   ar
    18    20    21   ar
    19    25    24   ar
    20    25    29    1
    21    18    22   ar
    22    30    29   am
    23    30    33    1
    24    21    22   ar
    25    22    16    1
    26    32    16    1
    27    16     4    1
    28     4     5   ar
    29     4     3   ar
    30     5     6   ar
    31     3     2   ar
    32     6    11    1
    33     6     1   ar
    34     2     1   ar
    35    12    11    1
    36    12    13    1
    37     1     7    1
    38    15    13    1
    39    15    14    1
    40    13    14    1
    41     7     8    1
    42    10     8    1
    43     8     9    1
