@<TRIPOS>MOLECULE
3v9c_MAN_A_1.pdb
 11 11 0 0 0
SMALL
GASTEIGER

@<TRIPOS>ATOM
      1  C1        18.1650    5.9080   37.4820 C.3   1513  MAN1513     0.1777
      2  C2        19.4910    6.5920   37.8060 C.3   1513  MAN1513     0.2141
      3  C3        20.4430    5.5920   38.4710 C.3   1513  MAN1513     0.2173
      4  C4        19.7830    4.8940   39.6650 C.3   1513  MAN1513     0.2142
      5  C5        18.4250    4.3160   39.2570 C.3   1513  MAN1513     0.1810
      6  C6        17.6300    3.6620   40.3880 C.3   1513  MAN1513     0.2141
      7  O2        19.2900    7.7050   38.6680 O.3   1513  MAN1513    -0.2176
      8  O3        21.6210    6.2650   38.8820 O.3   1513  MAN1513    -0.2175
      9  O4        20.6500    3.8930   40.1450 O.3   1513  MAN1513    -0.2176
     10  O5        17.6330    5.3490   38.6760 O.3   1513  MAN1513    -0.3481
     11  O6        17.1910    4.6180   41.3230 O.3   1513  MAN1513    -0.2176
@<TRIPOS>BOND
     1     1     2    1
     2     1    10    1
     3     2     3    1
     4     2     7    1
     5     3     8    1
     6     3     4    1
     7    10     5    1
     8     5     4    1
     9     5     6    1
    10     4     9    1
    11     6    11    1
