@<TRIPOS>MOLECULE
3v9e_BMA_A_1.pdb
 11 11 0 0 0
SMALL
GASTEIGER

@<TRIPOS>ATOM
      1  C1       -34.7560  -21.1520  -22.7880 C.3   606  BMA606      0.1777
      2  C2       -34.8450  -22.3910  -23.6950 C.3   606  BMA606      0.2141
      3  C3       -35.2630  -21.9090  -25.0660 C.3   606  BMA606      0.2173
      4  C4       -36.5310  -21.0890  -24.9630 C.3   606  BMA606      0.2142
      5  C5       -36.3500  -19.8770  -24.0200 C.3   606  BMA606      0.1810
      6  C6       -37.5830  -18.9690  -23.8990 C.3   606  BMA606      0.2141
      7  O2       -35.7970  -23.2880  -23.1370 O.3   606  BMA606     -0.2176
      8  O3       -35.3370  -22.9190  -26.0820 O.3   606  BMA606     -0.2175
      9  O4       -36.7570  -20.5650  -26.2630 O.3   606  BMA606     -0.2176
     10  O5       -35.9420  -20.3780  -22.7640 O.3   606  BMA606     -0.3481
     11  O6       -38.8350  -19.6190  -23.5960 O.3   606  BMA606     -0.2176
@<TRIPOS>BOND
     1     9     4    1
     2     8     3    1
     3     3     4    1
     4     3     2    1
     5     4     5    1
     6     5     6    1
     7     5    10    1
     8     6    11    1
     9     2     7    1
    10     2     1    1
    11     1    10    1
