@<TRIPOS>MOLECULE
3v9e_MAN_A_1.pdb
 11 11 0 0 0
SMALL
GASTEIGER

@<TRIPOS>ATOM
      1  C1       -14.1500   18.7830  -26.2700 C.3   613  MAN613      0.1777
      2  C2       -15.2670   19.2410  -27.2220 C.3   613  MAN613      0.2141
      3  C3       -14.8280   19.0480  -28.6750 C.3   613  MAN613      0.2173
      4  C4       -13.5450   19.8410  -28.9400 C.3   613  MAN613      0.2142
      5  C5       -12.4960   19.3890  -27.9270 C.3   613  MAN613      0.1810
      6  C6       -11.2340   20.2330  -28.1690 C.3   613  MAN613      0.2141
      7  O2       -15.5590   20.5720  -26.8520 O.3   613  MAN613     -0.2176
      8  O3       -15.9210   19.2090  -29.5600 O.3   613  MAN613     -0.2175
      9  O4       -13.0090   19.5000  -30.1890 O.3   613  MAN613     -0.2176
     10  O5       -12.9650   19.5280  -26.5950 O.3   613  MAN613     -0.3481
     11  O6       -11.4820   21.5940  -27.8510 O.3   613  MAN613     -0.2176
@<TRIPOS>BOND
     1     9     4    1
     2     8     3    1
     3     4     3    1
     4     4     5    1
     5     3     2    1
     6     6     5    1
     7     6    11    1
     8     5    10    1
     9     2     7    1
    10     2     1    1
    11    10     1    1
