@<TRIPOS>MOLECULE
3v9k_GLU_A_1.pdb
 10 9 0 0 0
SMALL
GASTEIGER

@<TRIPOS>ATOM
      1  N         18.5130    2.8880   -1.6920 N.3   1517  GLU1517    -0.1208
      2  CA        19.6200    2.1260   -2.2690 C.3   1517  GLU1517     0.1949
      3  C         19.5390    2.2230   -3.7830 C.2   1517  GLU1517     0.3819
      4  O         20.4080    1.7150   -4.5040 O.co2 1517  GLU1517    -0.2441
      5  CB        19.5520    0.6610   -1.8340 C.3   1517  GLU1517     0.0424
      6  CG        19.6490    0.4400   -0.3270 C.3   1517  GLU1517     0.1161
      7  CD        19.8830   -1.0180    0.0230 C.2   1517  GLU1517     0.3649
      8  OE1       20.4880   -1.7360   -0.8020 O.co2 1517  GLU1517    -0.2457
      9  OE2       19.4520   -1.4430    1.1150 O.co2 1517  GLU1517    -0.2457
     10  OXT       18.5740    2.7910   -4.3040 O.co2 1517  GLU1517    -0.2441
@<TRIPOS>BOND
     1     4     3   ar
     2    10     3   ar
     3     3     2    1
     4     2     5    1
     5     2     1    1
     6     5     6    1
     7     8     7   ar
     8     6     7    1
     9     7     9   ar
