@<TRIPOS>MOLECULE
3v9l_NAD_A_1.pdb
 44 48 0 0 0
SMALL
GASTEIGER

@<TRIPOS>ATOM
      1  PA        20.7680   -9.8380    8.0100 P.3   1518  NAD1518     0.2189
      2  O1A       19.2280   -9.7770    8.2630 O.3   1518  NAD1518    -0.4371
      3  O2A       21.2510  -11.2960    8.2460 O.2   1518  NAD1518    -0.5170
      4  O5B       21.5140   -8.8910    9.0330 O.3   1518  NAD1518    -0.3112
      5  C5B       21.1660   -7.5380    9.1570 C.3   1518  NAD1518     0.1813
      6  C4B       21.4830   -7.1350   10.5770 C.3   1518  NAD1518     0.1821
      7  O4B       20.6340   -7.8580   11.4490 O.3   1518  NAD1518    -0.3135
      8  C3B       22.8980   -7.3940   10.9910 C.3   1518  NAD1518     0.2184
      9  O3B       23.3400   -6.3400   11.7580 O.3   1518  NAD1518    -0.2174
     10  C2B       22.7790   -8.6460   11.7720 C.3   1518  NAD1518     0.2570
     11  O2B       23.8000   -8.8490   12.6870 O.3   1518  NAD1518    -0.2130
     12  C1B       21.4840   -8.3890   12.4480 C.3   1518  NAD1518     0.3186
     13  N9A       20.7940   -9.5340   13.0210 N.pl3 1518  NAD1518    -0.1439
     14  C8A       20.7110  -10.8400   12.5770 C.3   1518  NAD1518     0.3377
     15  N7A       19.9240  -11.5480   13.4070 N.2   1518  NAD1518    -0.2095
     16  C5A       19.4410  -10.7070   14.4150 C.2   1518  NAD1518     0.2526
     17  C6A       18.6130  -10.8390   15.5110 C.2   1518  NAD1518     0.4393
     18  N6A       17.9960  -12.0840   15.8510 N.pl3 1518  NAD1518     0.2180
     19  N1A       18.3680   -9.7670   16.2840 N.2   1518  NAD1518     0.0021
     20  C2A       18.9050   -8.5550   16.0370 C.3   1518  NAD1518     0.5254
     21  N3A       19.7240   -8.3760   14.9740 N.2   1518  NAD1518    -0.0055
     22  C4A       19.9880   -9.4190   14.1670 C.2   1518  NAD1518     0.3518
     23  O3        21.0060   -9.3620    6.5030 O.3   1518  NAD1518    -0.2703
     24  PN        22.2740   -8.5430    5.9790 P.3   1518  NAD1518     0.2189
     25  O1N       23.4060   -9.4550    5.6440 O.2   1518  NAD1518    -0.5170
     26  O2N       22.9030   -7.6920    7.0300 O.3   1518  NAD1518    -0.4371
     27  O5D       21.8610   -7.6520    4.7160 O.3   1518  NAD1518    -0.3112
     28  C5D       21.2690   -8.2520    3.5860 C.3   1518  NAD1518     0.1813
     29  C4D       19.8150   -7.8430    3.4510 C.3   1518  NAD1518     0.1799
     30  O4D       19.6170   -6.4890    3.8110 O.3   1518  NAD1518    -0.3327
     31  C3D       19.3030   -8.0420    2.0640 C.3   1518  NAD1518     0.2158
     32  O3D       18.1210   -8.7500    2.0310 O.3   1518  NAD1518    -0.2175
     33  C2D       19.1090   -6.6600    1.5900 C.3   1518  NAD1518     0.2309
     34  O2D       18.1450   -6.5810    0.6160 O.3   1518  NAD1518    -0.2158
     35  C1D       18.7310   -5.9610    2.8470 C.3   1518  NAD1518     0.2263
     36  N1N       18.7900   -4.5080    2.6970 N.pl3 1518  NAD1518    -0.2787
     37  C2N       17.5970   -3.7740    2.4660 C.3   1518  NAD1518     0.1244
     38  C3N       17.6460   -2.3800    2.3140 C.2   1518  NAD1518     0.0544
     39  C7N       16.3650   -1.6040    2.0700 C.2   1518  NAD1518     0.2818
     40  O7N       16.3730   -0.3830    2.1310 O.2   1518  NAD1518    -0.2670
     41  N7N       15.1430   -2.2920    1.7680 N.am  1518  NAD1518    -0.0839
     42  C4N       18.8870   -1.7080    2.3890 C.2   1518  NAD1518     0.0033
     43  C5N       20.0760   -2.4390    2.6190 C.2   1518  NAD1518     0.0157
     44  C6N       20.0290   -3.8320    2.7700 C.2   1518  NAD1518     0.0633
@<TRIPOS>BOND
     1    34    33    1
     2    33    31    1
     3    33    35    1
     4    41    39   am
     5    32    31    1
     6    31    29    1
     7    39    40    2
     8    39    38    1
     9    38    42    2
    10    38    37    1
    11    42    43    1
    12    37    36    1
    13    43    44    2
    14    36    44    1
    15    36    35    1
    16    35    30    1
    17    29    28    1
    18    29    30    1
    19    28    27    1
    20    27    24    1
    21    25    24    2
    22    24    23    1
    23    24    26    1
    24    23     1    1
    25     1     3    2
    26     1     2    1
    27     1     4    1
    28     4     5    1
    29     5     6    1
    30     6     8    1
    31     6     7    1
    32     8     9    1
    33     8    10    1
    34     7    12    1
    35    10    12    1
    36    10    11    1
    37    12    13    1
    38    14    13    1
    39    14    15    1
    40    13    22    1
    41    15    16    2
    42    22    16    1
    43    22    21    2
    44    16    17    1
    45    21    20    1
    46    17    18    1
    47    17    19    2
    48    20    19    1
