@<TRIPOS>MOLECULE
3v9q_NAP_A_1.pdb
 48 52 0 0 0
SMALL
GASTEIGER

@<TRIPOS>ATOM
      1  PA         2.5070    4.7660   23.6530 P.3   401  NAP401      0.2189
      2  O1A        2.0010    3.7260   24.6240 O.3   401  NAP401     -0.4371
      3  O2A        3.5430    4.4120   22.6120 O.2   401  NAP401     -0.5170
      4  O5B        3.0530    5.9690   24.5600 O.3   401  NAP401     -0.3112
      5  C5B        3.5780    7.1700   23.9920 C.3   401  NAP401      0.1813
      6  C4B        3.8160    8.1160   25.1570 C.3   401  NAP401      0.1820
      7  O4B        4.8130    7.5600   26.0250 O.3   401  NAP401     -0.3136
      8  C3B        4.3240    9.4820   24.7390 C.3   401  NAP401      0.2157
      9  O3B        3.7970   10.4090   25.6920 O.3   401  NAP401     -0.2175
     10  C2B        5.8210    9.3860   24.9280 C.3   401  NAP401      0.2314
     11  O2B        6.3850   10.6490   25.2550 O.3   401  NAP401     -0.2630
     12  C1B        5.9280    8.4440   26.1140 C.3   401  NAP401      0.3158
     13  N9A        7.1860    7.6590   26.1100 N.pl3 401  NAP401     -0.1439
     14  C8A        7.7560    7.0820   25.0440 C.3   401  NAP401      0.3377
     15  N7A        8.8840    6.4620   25.4420 N.2   401  NAP401     -0.2095
     16  C5A        9.0160    6.6540   26.7670 C.2   401  NAP401      0.2526
     17  C6A        9.9640    6.2560   27.6980 C.2   401  NAP401      0.4393
     18  N6A       11.0320    5.5140   27.3060 N.pl3 401  NAP401      0.2180
     19  N1A        9.8180    6.6300   28.9890 N.2   401  NAP401      0.0021
     20  C2A        8.7680    7.3700   29.3770 C.3   401  NAP401      0.5254
     21  N3A        7.8360    7.7560   28.4940 N.2   401  NAP401     -0.0055
     22  C4A        7.9400    7.4100   27.1840 C.2   401  NAP401      0.3518
     23  O3         1.1870    5.5000   23.0750 O.3   401  NAP401     -0.2703
     24  PN         0.4590    5.5390   21.6370 P.3   401  NAP401      0.2189
     25  O1N        1.0380    6.6910   20.8420 O.2   401  NAP401     -0.5170
     26  O2N       -1.0250    5.5330   21.9660 O.3   401  NAP401     -0.4371
     27  O5D        0.7350    4.1200   20.9070 O.3   401  NAP401     -0.3112
     28  C5D        1.8950    3.8710   20.1050 C.3   401  NAP401      0.1813
     29  C4D        1.5470    3.9430   18.6160 C.3   401  NAP401      0.1799
     30  O4D        0.5710    2.9560   18.2600 O.3   401  NAP401     -0.3327
     31  C3D        0.8840    5.2340   18.1920 C.3   401  NAP401      0.2158
     32  O3D        1.7320    6.3910   18.2070 O.3   401  NAP401     -0.2175
     33  C2D        0.2950    4.8400   16.8570 C.3   401  NAP401      0.2309
     34  O2D        1.3510    4.7430   15.8840 O.3   401  NAP401     -0.2158
     35  C1D       -0.2410    3.4470   17.1790 C.3   401  NAP401      0.2263
     36  N1N       -1.6620    3.4470   17.5800 N.pl3 401  NAP401     -0.2787
     37  C2N       -2.5750    2.9110   16.7470 C.3   401  NAP401      0.1244
     38  C3N       -3.9240    2.8950   17.0910 C.2   401  NAP401      0.0544
     39  C7N       -4.9330    2.2860   16.1640 C.2   401  NAP401      0.2818
     40  O7N       -6.1160    2.5450   16.2720 O.2   401  NAP401     -0.2670
     41  N7N       -4.4920    1.4360   15.2480 N.am  401  NAP401     -0.0839
     42  C4N       -4.3240    3.4190   18.3060 C.2   401  NAP401      0.0033
     43  C5N       -3.3750    3.9700   19.1600 C.2   401  NAP401      0.0157
     44  C6N       -2.0420    3.9510   18.7650 C.2   401  NAP401      0.0633
     45  P2B        7.2240   11.5210   24.1910 P.3   401  NAP401      0.5328
     46  O1X        6.5790   11.2850   22.8470 O.2   401  NAP401     -0.2224
     47  O2X        6.9890   12.9060   24.7370 O.3   401  NAP401     -0.1145
     48  O3X        8.6380   11.0090   24.3120 O.3   401  NAP401     -0.1145
@<TRIPOS>BOND
     1    41    39   am
     2    34    33    1
     3    39    40    2
     4    39    38    1
     5    37    38    1
     6    37    36    1
     7    33    35    1
     8    33    31    1
     9    38    42    2
    10    35    36    1
    11    35    30    1
    12    36    44    1
    13    31    32    1
    14    31    29    1
    15    30    29    1
    16    42    43    1
    17    29    28    1
    18    44    43    2
    19    28    27    1
    20    25    24    2
    21    27    24    1
    22    24    26    1
    23    24    23    1
    24     3     1    2
    25    46    45    2
    26    23     1    1
    27     1     4    1
    28     1     2    1
    29     5     4    1
    30     5     6    1
    31    45    48    1
    32    45    47    1
    33    45    11    1
    34     8    10    1
    35     8     6    1
    36     8     9    1
    37    10    11    1
    38    10    12    1
    39    14    15    1
    40    14    13    1
    41     6     7    1
    42    15    16    2
    43     7    12    1
    44    13    12    1
    45    13    22    1
    46    16    22    1
    47    16    17    1
    48    22    21    2
    49    18    17    1
    50    17    19    2
    51    21    20    1
    52    19    20    1
