@<TRIPOS>MOLECULE
3v9q_QAP_A_1.pdb
 21 22 0 0 0
SMALL
GASTEIGER

@<TRIPOS>ATOM
      1  C1       -14.5280    9.0410   19.0870 C.3   402  QAP402      0.0738
      2  O1       -12.2320    8.3600   19.0020 O.3   402  QAP402     -0.4451
      3  C2       -14.4260   10.5430   19.0000 C.ar  402  QAP402     -0.0184
      4  O2        -7.3740    4.8700   15.2810 O.3   402  QAP402     -0.2831
      5  C3       -13.3790    8.4290   19.8530 C.3   402  QAP402      0.2134
      6  O3        -4.7520    5.5780   15.9670 O.3   402  QAP402     -0.2831
      7  C4       -13.3130   11.1110   18.4020 C.ar  402  QAP402     -0.0041
      8  O4       -10.9940    8.8050   20.8600 O.2   402  QAP402     -0.2449
      9  C5       -15.4390   11.3280   19.5300 C.ar  402  QAP402     -0.0041
     10  C6        -7.9920    6.7270   18.2920 C.ar  402  QAP402      0.0036
     11  C7       -13.2240   12.4920   18.3340 C.ar  402  QAP402     -0.0003
     12  C8       -15.3610   12.7160   19.4540 C.ar  402  QAP402     -0.0003
     13  C9       -14.2460   13.2940   18.8580 C.ar  402  QAP402     -0.0000
     14  C10       -8.2030    5.9910   17.1440 C.ar  402  QAP402      0.0454
     15  C11       -6.6930    7.0890   18.6380 C.ar  402  QAP402      0.0035
     16  C12       -9.1270    7.1430   19.0850 C.2   402  QAP402      0.0068
     17  C13       -7.1120    5.6010   16.3840 C.ar  402  QAP402      0.2343
     18  C14      -11.0760    8.4990   19.6810 C.2   402  QAP402      0.3414
     19  C15       -5.8050    5.9540   16.7260 C.ar  402  QAP402      0.2343
     20  C16       -5.5850    6.7050   17.8670 C.ar  402  QAP402      0.0454
     21  C17       -9.9540    8.1660   18.7680 C.2   402  QAP402      0.0819
@<TRIPOS>BOND
     1     4    17    1
     2     6    19    1
     3    17    19   ar
     4    17    14   ar
     5    19    20   ar
     6    14    10   ar
     7    20    15   ar
     8    10    15   ar
     9    10    16    1
    10    11     7   ar
    11    11    13   ar
    12     7     3   ar
    13    21    16    2
    14    21    18    1
    15    13    12   ar
    16     3     1    1
    17     3     9   ar
    18     2    18    1
    19     2     5    1
    20     1     5    1
    21    12     9   ar
    22    18     8    2
