@<TRIPOS>MOLECULE
3v9t_17L_A_1.pdb
 39 43 0 0 0
SMALL
GASTEIGER

@<TRIPOS>ATOM
      1  C1        15.5180   50.4540   64.8580 C.2   501  17L501      0.1090
      2  C2        15.9120   51.0550   63.6320 C.2   501  17L501      0.2039
      3  C3        15.5460   50.5380   62.3830 C.2   501  17L501      0.0759
      4  C4        14.8800   49.3950   62.2470 C.2   501  17L501      0.1360
      5  C5        14.6610   48.5160   63.4890 C.3   501  17L501      0.1311
      6  C6        14.8060   49.2010   64.8310 C.2   501  17L501      0.1888
      7  O7        14.3360   48.6700   61.2530 O.3   501  17L501     -0.4569
      8  C8        13.2990   47.9230   61.7660 C.ar  501  17L501      0.1520
      9  C9        13.3890   47.7800   63.1570 C.ar  501  17L501      0.0646
     10  C10       12.2220   47.3130   61.1080 C.ar  501  17L501      0.1232
     11  C11       11.2690   46.5690   61.8280 C.ar  501  17L501      0.1492
     12  C12       11.3990   46.4270   63.2110 C.ar  501  17L501      0.0789
     13  C13       12.4710   47.0230   63.8680 C.ar  501  17L501      0.1985
     14  O14       14.4510   48.6180   65.8340 O.2   501  17L501     -0.2904
     15  C15       15.8220   51.1170   66.0890 C.2   501  17L501      0.1794
     16  C16       15.4400   50.5540   67.4340 C.3   501  17L501      0.0775
     17  O17       16.4330   52.1720   66.0860 O.2   501  17L501     -0.2911
     18  O18       16.5610   52.2360   63.6080 O.2   501  17L501     -0.2863
     19  C19       15.7590   47.4410   63.5400 C.3   501  17L501      0.0200
     20  O20       12.5960   46.8760   65.2150 O.3   501  17L501     -0.2867
     21  C21       12.0890   47.4880   59.6540 C.2   501  17L501      0.2710
     22  O22       13.0700   47.4860   58.9350 O.2   501  17L501     -0.2681
     23  N23       10.8440   47.6780   59.1660 N.am  501  17L501     -0.1966
     24  C24       10.5680   47.8600   57.7340 C.3   501  17L501      0.1419
     25  C25        9.1140   48.2190   57.6390 C.ar  501  17L501      0.0025
     26  C26        8.7910   49.5100   57.3350 C.ar  501  17L501      0.0343
     27  C27        7.4560   49.9210   57.2420 C.ar  501  17L501      0.1383
     28  C28        6.4340   49.0250   57.4540 C.ar  501  17L501      0.0369
     29  C29        6.7280   47.6750   57.7630 C.ar  501  17L501      0.0028
     30  C30        8.0920   47.2600   57.8600 C.ar  501  17L501     -0.0021
     31  C31        5.6990   46.7300   57.9810 C.ar  501  17L501      0.0001
     32  C32        6.0110   45.4280   58.2790 C.ar  501  17L501      0.0000
     33  C33        7.3440   45.0130   58.3710 C.ar  501  17L501     -0.0000
     34  C34        8.3670   45.9040   58.1700 C.ar  501  17L501     -0.0003
     35  O35       10.2340   45.9980   61.1570 O.3   501  17L501     -0.4711
     36  C36        9.2940   45.1660   61.8440 C.3   501  17L501      0.2525
     37  O37        7.2330   51.2350   56.9360 O.3   501  17L501     -0.4755
     38  C38        5.9120   51.7020   56.6300 C.3   501  17L501      0.2055
     39  C39        5.6680   51.5900   55.1220 C.3   501  17L501      0.0512
@<TRIPOS>BOND
     1    39    38    1
     2    38    37    1
     3    37    27    1
     4    27    26   ar
     5    27    28   ar
     6    26    25   ar
     7    28    29   ar
     8    25    24    1
     9    25    30   ar
    10    24    23    1
    11    29    30   ar
    12    29    31   ar
    13    30    34   ar
    14    31    32   ar
    15    34    33   ar
    16    32    33   ar
    17    22    21    2
    18    23    21   am
    19    21    10    1
    20    10     8   ar
    21    10    11   ar
    22    35    11    1
    23    35    36    1
    24     7     8    1
    25     7     4    1
    26     8     9   ar
    27    11    12   ar
    28     4     3    2
    29     4     5    1
    30     3     2    1
    31     9     5    1
    32     9    13   ar
    33    12    13   ar
    34     5    19    1
    35     5     6    1
    36    18     2    1
    37     2     1    2
    38    13    20    1
    39     6     1    1
    40     6    14    2
    41     1    15    1
    42    17    15    2
    43    15    16    1
