@<TRIPOS>MOLECULE
3v9u_NUC_E_1.pdb
 41 45 0 0 0
SMALL
GASTEIGER

@<TRIPOS>ATOM
      1  P        -22.1500   25.8000   -5.2020 P.3     6  DA6         0.3942
      2  OP1      -21.0020   25.3530   -4.3850 O.3     6  DA6        -0.1425
      3  OP2      -21.9300   26.1920   -6.6160 O.3     6  DA6        -0.1425
      4  O5'      -23.3020   24.6820   -5.1880 O.3     6  DA6        -0.2926
      5  C5'      -24.5000   24.9200   -5.9320 C.3     6  DA6         0.1829
      6  C4'      -25.3760   23.6830   -6.0060 C.3     6  DA6         0.1767
      7  O4'      -25.8920   23.3780   -4.6920 O.3     6  DA6        -0.3156
      8  C3'      -26.6470   23.8180   -6.8340 C.3     6  DA6         0.1581
      9  O3'      -26.3630   23.6400   -8.2140 O.3     6  DA6        -0.3138
     10  C2'      -27.4810   22.6560   -6.3030 C.3     6  DA6         0.1122
     11  C1'      -27.0080   22.5260   -4.8540 C.3     6  DA6         0.2872
     12  N9       -28.0470   22.8850   -3.8950 N.pl3   6  DA6        -0.1460
     13  C8       -28.7930   22.0240   -3.1360 C.3     6  DA6         0.3377
     14  N7       -29.6660   22.6250   -2.3620 N.2     6  DA6        -0.2095
     15  C5       -29.4820   23.9730   -2.6360 C.2     6  DA6         0.2526
     16  C6       -30.1090   25.1330   -2.1360 C.2     6  DA6         0.4393
     17  N6       -31.0860   25.1010   -1.2210 N.pl3   6  DA6         0.2180
     18  N1       -29.6910   26.3260   -2.6170 N.2     6  DA6         0.0021
     19  C2       -28.7100   26.3450   -3.5350 C.3     6  DA6         0.5254
     20  N3       -28.0470   25.3210   -4.0800 N.2     6  DA6        -0.0055
     21  C4       -28.4870   24.1520   -3.5820 C.2     6  DA6         0.3518
     22  P        -26.5820   24.8500   -9.2520 P.3     7  DT7         0.2141
     23  OP1      -26.1700   24.3820  -10.5800 O.2     7  DT7        -0.5172
     24  OP2      -25.9510   26.0630   -8.6800 O.3     7  DT7        -0.4373
     25  O5'      -28.1680   25.0400   -9.2810 O.3     7  DT7        -0.3114
     26  C5'      -28.9780   23.9280   -9.6080 C.3     7  DT7         0.1812
     27  C4'      -30.4460   24.3010   -9.6020 C.3     7  DT7         0.1773
     28  O4'      -30.8490   24.7220   -8.2740 O.3     7  DT7        -0.3339
     29  C3'      -30.8230   25.4740  -10.4960 C.3     7  DT7         0.1857
     30  O3'      -30.9880   25.0420  -11.8410 O.3     7  DT7        -0.2203
     31  C2'      -32.1550   25.8840   -9.8750 C.3     7  DT7         0.0874
     32  C1'      -31.8940   25.6740   -8.3810 C.3     7  DT7         0.2090
     33  N1       -31.4730   26.9300   -7.6950 N.am    7  DT7        -0.1794
     34  C2       -32.4110   27.9140   -7.4520 C.1     7  DT7         0.2844
     35  O2       -33.5840   27.8120   -7.7660 O.2     7  DT7        -0.1918
     36  N3       -31.9210   29.0320   -6.8230 N.2     7  DT7        -0.2455
     37  C4       -30.6130   29.2500   -6.4200 C.1     7  DT7         0.2134
     38  O4       -30.2660   30.2890   -5.8580 O.2     7  DT7        -0.2088
     39  C5       -29.6860   28.1730   -6.7050 C.2     7  DT7         0.0891
     40  C7       -28.2390   28.2890   -6.3180 C.3     7  DT7         0.0462
     41  C6       -30.1530   27.0820   -7.3230 C.2     7  DT7         0.0877
@<TRIPOS>BOND
     1    30    29    1
     2    23    22    2
     3    29    31    1
     4    29    27    1
     5    31    32    1
     6    26    27    1
     7    26    25    1
     8    27    28    1
     9    25    22    1
    10    22    24    1
    11    22     9    1
    12    32    28    1
    13    32    33    1
    14     9     8    1
    15    35    34    2
    16    33    34   am
    17    33    41    1
    18    34    36    2
    19    41    39    2
    20     8    10    1
    21     8     6    1
    22    36    37    2
    23    39    37    1
    24    39    40    1
    25     3     1    1
    26    37    38    2
    27    10    11    1
    28     6     5    1
    29     6     7    1
    30     5     4    1
    31     1     4    1
    32     1     2    1
    33    11     7    1
    34    11    12    1
    35    20    21    2
    36    20    19    1
    37    12    21    1
    38    12    13    1
    39    21    15    1
    40    19    18    1
    41    13    14    1
    42    15    14    2
    43    15    16    1
    44    18    16    2
    45    16    17    1
