@<TRIPOS>MOLECULE
3v9v_21L_A_1.pdb
 42 46 0 0 0
SMALL
GASTEIGER

@<TRIPOS>ATOM
      1  C1         6.2430   45.6110   57.9550 C.ar  501  21L501     -0.0000
      2  C2         7.5560   45.2070   57.9930 C.ar  501  21L501     -0.0000
      3  C3         5.9430   46.9470   57.8280 C.ar  501  21L501     -0.0000
      4  C4         8.5660   46.1390   57.9030 C.ar  501  21L501     -0.0003
      5  C5         6.6220   49.2110   57.6100 C.ar  501  21L501     -0.0043
      6  C6         8.9290   49.7710   57.5530 C.ar  501  21L501     -0.0068
      7  C7        11.9050   46.3200   62.9370 C.ar  501  21L501      0.0789
      8  C8         6.9530   47.8790   57.7370 C.ar  501  21L501     -0.0006
      9  C9         8.2750   47.4830   57.7730 C.ar  501  21L501     -0.0023
     10  C10       12.5720   47.3270   60.8670 C.ar  501  21L501      0.1232
     11  C11       13.8650   47.6800   62.8420 C.ar  501  21L501      0.0646
     12  C12        7.6120   50.1630   57.5140 C.ar  501  21L501     -0.0219
     13  C13        9.2680   48.4400   57.6780 C.ar  501  21L501     -0.0009
     14  C14       13.6510   47.8860   61.5070 C.ar  501  21L501      0.1520
     15  C15       11.6940   46.5380   61.5840 C.ar  501  21L501      0.1492
     16  C16       12.9940   46.8940   63.5610 C.ar  501  21L501      0.1985
     17  C17       15.7990   50.4700   62.0690 C.2   501  21L501      0.0759
     18  C18       16.0420   50.3980   64.4740 C.2   501  21L501      0.1090
     19  C19       16.3520   50.9560   63.2940 C.2   501  21L501      0.2039
     20  C20       15.2230   49.2700   62.0450 C.2   501  21L501      0.1360
     21  C21       15.1110   49.2460   64.4710 C.2   501  21L501      0.1888
     22  C22       12.3780   47.5700   59.4340 C.2   501  21L501      0.2710
     23  C23       16.6390   50.9560   65.7000 C.2   501  21L501      0.1794
     24  C24        6.1200   51.7590   55.2100 C.2   501  21L501      0.3174
     25  C25       15.0990   48.3960   63.2390 C.3   501  21L501      0.1311
     26  C26       18.1190   51.1710   65.6990 C.3   501  21L501      0.0775
     27  C27       16.2480   47.4210   63.3100 C.3   501  21L501      0.0200
     28  C28        9.5970   45.6550   61.8230 C.3   501  21L501      0.2525
     29  C29        4.9970   51.9540   53.2500 C.3   501  21L501      0.2556
     30  C30        7.2760   51.6110   57.3860 C.3   501  21L501      0.0380
     31  C31       10.7170   48.0920   57.7220 C.3   501  21L501      0.1418
     32  C32        7.3780   52.0810   55.9510 C.3   501  21L501      0.1142
     33  N33       11.0780   47.8450   59.0960 N.am  501  21L501     -0.1966
     34  O34       14.4230   48.9960   65.4470 O.2   501  21L501     -0.2904
     35  O35       13.3340   47.5090   58.6760 O.2   501  21L501     -0.2681
     36  O36       15.9360   51.2140   66.6670 O.2   501  21L501     -0.2911
     37  O37        5.1340   51.2190   55.6860 O.2   501  21L501     -0.2501
     38  O38       14.6170   48.6970   60.9410 O.3   501  21L501     -0.4569
     39  O39       13.1960   46.6740   64.9050 O.3   501  21L501     -0.2867
     40  O40       17.1940   52.0310   63.1400 O.2   501  21L501     -0.2863
     41  O41       10.6220   45.9880   60.8970 O.3   501  21L501     -0.4711
     42  O42        6.2340   52.1550   53.9180 O.3   501  21L501     -0.4444
@<TRIPOS>BOND
     1    29    42    1
     2    42    24    1
     3    24    37    2
     4    24    32    1
     5    32    30    1
     6    30    12    1
     7    12     6   ar
     8    12     5   ar
     9     6    13   ar
    10     5     8   ar
    11    13    31    1
    12    13     9   ar
    13    31    33    1
    14     8     9   ar
    15     8     3   ar
    16     9     4   ar
    17     3     1   ar
    18     4     2   ar
    19     1     2   ar
    20    35    22    2
    21    33    22   am
    22    22    10    1
    23    10    14   ar
    24    10    15   ar
    25    41    15    1
    26    41    28    1
    27    38    14    1
    28    38    20    1
    29    14    11   ar
    30    15     7   ar
    31    20    17    2
    32    20    25    1
    33    17    19    1
    34    11    25    1
    35    11    16   ar
    36     7    16   ar
    37    40    19    1
    38    25    27    1
    39    25    21    1
    40    19    18    2
    41    16    39    1
    42    21    18    1
    43    21    34    2
    44    18    23    1
    45    26    23    1
    46    23    36    2
