@<TRIPOS>MOLECULE
3v9y_24L_A_1.pdb
 42 46 0 0 0
SMALL
GASTEIGER

@<TRIPOS>ATOM
      1  C1        18.6560   51.8560   64.9170 C.3   501  24L501      0.0775
      2  C2        17.3380   51.0780   65.0030 C.2   501  24L501      0.1794
      3  O3        16.7740   50.9280   66.0830 O.2   501  24L501     -0.2911
      4  C4        16.7300   50.5070   63.7320 C.2   501  24L501      0.1090
      5  C5        15.8870   49.1970   63.8430 C.2   501  24L501      0.1888
      6  C6        15.8180   48.3540   62.5140 C.3   501  24L501      0.1311
      7  C7        15.8130   49.3060   61.3070 C.2   501  24L501      0.1360
      8  C8        16.3220   50.5700   61.3490 C.2   501  24L501      0.0759
      9  C9        16.8750   51.0760   62.4890 C.2   501  24L501      0.2039
     10  O10       15.2430   48.7710   60.1910 O.3   501  24L501     -0.4569
     11  C11       14.2870   47.9200   60.7320 C.ar  501  24L501      0.1520
     12  C12       14.5420   47.6310   62.0720 C.ar  501  24L501      0.0646
     13  C13       13.6870   46.7910   62.7860 C.ar  501  24L501      0.1985
     14  C14       12.5750   46.2380   62.1550 C.ar  501  24L501      0.0789
     15  C15       12.3020   46.5180   60.7960 C.ar  501  24L501      0.1492
     16  C16       13.1730   47.3810   60.0590 C.ar  501  24L501      0.1232
     17  C17       17.0400   47.4030   62.4540 C.3   501  24L501      0.0200
     18  O18       15.3580   48.8250   64.8840 O.2   501  24L501     -0.2904
     19  O19       17.6080   52.2250   62.3490 O.2   501  24L501     -0.2863
     20  O20       13.9180   46.4930   64.1020 O.3   501  24L501     -0.2867
     21  O21       11.1870   45.9710   60.1410 O.3   501  24L501     -0.4711
     22  C22       10.4200   44.8180   60.5720 C.3   501  24L501      0.2525
     23  C23       13.0080   47.7780   58.5890 C.2   501  24L501      0.2710
     24  O24       13.8690   47.5260   57.7480 O.2   501  24L501     -0.2681
     25  N25       11.9000   48.4400   58.2210 N.am  501  24L501     -0.1966
     26  C26       11.2860   48.3590   56.8860 C.3   501  24L501      0.1418
     27  C27        9.7730   48.6280   56.8920 C.ar  501  24L501     -0.0009
     28  C28        8.8770   47.5590   56.9770 C.ar  501  24L501     -0.0023
     29  C29        7.4710   47.8120   56.9870 C.ar  501  24L501     -0.0006
     30  C30        7.0030   49.1310   56.9100 C.ar  501  24L501     -0.0043
     31  C31        7.9160   50.1880   56.8250 C.ar  501  24L501     -0.0224
     32  C32        9.2870   49.9360   56.8160 C.ar  501  24L501     -0.0068
     33  C33        6.5800   46.7350   57.0720 C.ar  501  24L501     -0.0000
     34  C34        7.0720   45.4270   57.1480 C.ar  501  24L501     -0.0000
     35  C35        8.4480   45.1780   57.1390 C.ar  501  24L501     -0.0000
     36  C36        9.3570   46.2330   57.0540 C.ar  501  24L501     -0.0003
     37  C37        7.4170   51.6420   56.7340 C.3   501  24L501      0.0269
     38  C38        6.8300   52.1840   58.0470 C.3   501  24L501      0.0165
     39  C39        7.1710   53.6670   58.2790 C.3   501  24L501      0.1144
     40  C40        6.6410   54.5900   57.1720 C.2   501  24L501      0.3649
     41  O41        7.4700   54.6380   56.0820 O.co2 501  24L501     -0.2457
     42  O42        5.5990   55.2330   57.2740 O.co2 501  24L501     -0.2457
@<TRIPOS>BOND
     1    41    40   ar
     2    37    31    1
     3    37    38    1
     4    32    31   ar
     5    32    27   ar
     6    31    30   ar
     7    26    27    1
     8    26    25    1
     9    27    28   ar
    10    30    29   ar
    11    28    29   ar
    12    28    36   ar
    13    29    33   ar
    14    36    35   ar
    15    33    34   ar
    16    35    34   ar
    17    40    42   ar
    18    40    39    1
    19    24    23    2
    20    38    39    1
    21    25    23   am
    22    23    16    1
    23    16    11   ar
    24    16    15   ar
    25    21    22    1
    26    21    15    1
    27    10    11    1
    28    10     7    1
    29    11    12   ar
    30    15    14   ar
    31     7     8    2
    32     7     6    1
    33     8     9    1
    34    12     6    1
    35    12    13   ar
    36    14    13   ar
    37    19     9    1
    38    17     6    1
    39     9     4    2
    40     6     5    1
    41    13    20    1
    42     4     5    1
    43     4     2    1
    44     5    18    2
    45     1     2    1
    46     2     3    2
