@<TRIPOS>MOLECULE
3va0_NUC_C_1.pdb
 41 46 0 0 0
SMALL
GASTEIGER

@<TRIPOS>ATOM
      1  O5'       29.1560   49.4150   22.3960 O.3     1  DG1        -0.2176
      2  C5'       28.9220   50.3970   21.3950 C.3     1  DG1         0.2140
      3  C4'       27.7650   50.0120   20.4840 C.3     1  DG1         0.1774
      4  O4'       27.8370   48.5940   20.1750 O.3     1  DG1        -0.3347
      5  C3'       26.3650   50.2730   21.0390 C.3     1  DG1         0.1556
      6  O3'       25.5290   50.8200   20.0200 O.3     1  DG1        -0.3139
      7  C2'       25.8910   48.8880   21.4630 C.3     1  DG1         0.0836
      8  C1'       26.6020   47.9770   20.4690 C.3     1  DG1         0.1980
      9  N9        26.8540   46.6460   21.0140 N.pl3   1  DG1        -0.2374
     10  C8        26.4030   45.4500   20.5120 C.3     1  DG1         0.2245
     11  N7        26.7730   44.4160   21.2120 N.2     1  DG1        -0.2322
     12  C5        27.5180   44.9570   22.2510 C.2     1  DG1         0.2182
     13  C6        28.1770   44.3140   23.3260 C.1     1  DG1         0.2372
     14  O6        28.2340   43.1020   23.5790 O.2     1  DG1        -0.2069
     15  N1        28.8170   45.2300   24.1560 N.2     1  DG1        -0.2485
     16  C2        28.8190   46.5920   23.9660 C.1     1  DG1         0.2531
     17  N2        29.4930   47.3110   24.8740 N.pl3   1  DG1        -0.0226
     18  N3        28.2070   47.2080   22.9610 N.2     1  DG1        -0.3074
     19  C4        27.5760   46.3300   22.1450 C.2     1  DG1         0.2299
     20  P         25.1850   52.3890   20.0150 P.3     2  DG2         0.2141
     21  OP1       24.1420   52.6280   18.9960 O.2     2  DG2        -0.5172
     22  OP2       26.4620   53.1350   19.9540 O.3     2  DG2        -0.4373
     23  O5'       24.5220   52.6290   21.4470 O.3     2  DG2        -0.3114
     24  C5'       23.4460   51.8100   21.8820 C.3     2  DG2         0.1812
     25  C4'       23.1990   52.0820   23.3510 C.3     2  DG2         0.1772
     26  O4'       24.3830   51.7180   24.1020 O.3     2  DG2        -0.3347
     27  C3'       22.9740   53.5520   23.6670 C.3     2  DG2         0.1857
     28  O3'       21.5890   53.8700   23.5520 O.3     2  DG2        -0.2203
     29  C2'       23.4740   53.6740   25.1040 C.3     2  DG2         0.0865
     30  C1'       24.5560   52.5980   25.1970 C.3     2  DG2         0.1981
     31  N9        25.9200   53.1240   25.1670 N.pl3   2  DG2        -0.2374
     32  C8        26.5920   53.6420   24.0860 C.3     2  DG2         0.2245
     33  N7        27.8040   54.0340   24.3690 N.2     2  DG2        -0.2322
     34  C5        27.9460   53.7550   25.7230 C.2     2  DG2         0.2182
     35  C6        29.0480   53.9640   26.5880 C.1     2  DG2         0.2372
     36  O6        30.1560   54.4500   26.3190 O.2     2  DG2        -0.2069
     37  N1        28.7710   53.5430   27.8860 N.2     2  DG2        -0.2485
     38  C2        27.5800   52.9900   28.2960 C.1     2  DG2         0.2531
     39  N2        27.5040   52.6430   29.5890 N.pl3   2  DG2        -0.0226
     40  N3        26.5410   52.7900   27.4940 N.2     2  DG2        -0.3074
     41  C4        26.7940   53.1950   26.2280 C.2     2  DG2         0.2299
@<TRIPOS>BOND
     1    21    20    2
     2    22    20    1
     3    20     6    1
     4    20    23    1
     5     6     5    1
     6     4     8    1
     7     4     3    1
     8     8     9    1
     9     8     7    1
    10     3     5    1
    11     3     2    1
    12    10     9    1
    13    10    11    1
    14     9    19    1
    15     5     7    1
    16    11    12    2
    17     2     1    1
    18    23    24    1
    19    24    25    1
    20    19    12    1
    21    19    18    2
    22    12    13    1
    23    18    16    2
    24    13    14    2
    25    13    15    2
    26    25    27    1
    27    25    26    1
    28    28    27    1
    29    27    29    1
    30    16    15    2
    31    16    17    1
    32    32    33    1
    33    32    31    1
    34    26    30    1
    35    33    34    2
    36    29    30    1
    37    31    30    1
    38    31    41    1
    39    34    41    1
    40    34    35    1
    41    41    40    2
    42    36    35    2
    43    35    37    2
    44    40    38    2
    45    37    38    2
    46    38    39    1
