@<TRIPOS>MOLECULE
3va5_THP_A_1.pdb
 25 26 0 0 0
SMALL
GASTEIGER

@<TRIPOS>ATOM
      1  P2        17.8780   44.5960    4.9550 P.3   202  THP202      0.5327
      2  O4P       16.6590   45.3330    5.4890 O.3   202  THP202     -0.1145
      3  O5P       17.8740   43.0620    5.2760 O.2   202  THP202     -0.2224
      4  O6P       19.1660   45.2720    5.5910 O.3   202  THP202     -0.1145
      5  P1        21.1400   48.1360    1.2090 P.3   202  THP202      0.5326
      6  O1P       21.7920   47.0560    2.0500 O.3   202  THP202     -0.1145
      7  O2P       22.2610   48.7620    0.2840 O.2   202  THP202     -0.2224
      8  O3P       20.4710   49.1490    2.2330 O.3   202  THP202     -0.1145
      9  O5'       17.8380   44.6230    3.3690 O.3   202  THP202     -0.2675
     10  C5'       17.9780   45.9360    2.8190 C.3   202  THP202      0.1857
     11  C4'       18.8550   45.9000    1.5680 C.3   202  THP202      0.1748
     12  O4'       18.4540   44.8190    0.7170 O.3   202  THP202     -0.3340
     13  C3'       18.7730   47.1900    0.7160 C.3   202  THP202      0.1600
     14  O3'       20.0960   47.4600    0.1540 O.3   202  THP202     -0.2700
     15  C2'       17.8790   46.7020   -0.4420 C.3   202  THP202      0.0847
     16  C1'       18.1510   45.1780   -0.6240 C.3   202  THP202      0.2089
     17  N1        16.8220   44.5350   -0.9920 N.am  202  THP202     -0.1794
     18  C2        16.5530   44.3490   -2.3160 C.1   202  THP202      0.2844
     19  O2        17.3760   44.7370   -3.2150 O.2   202  THP202     -0.1918
     20  N3        15.3630   43.8840   -2.7810 N.2   202  THP202     -0.2455
     21  C4        14.4120   43.5330   -1.8310 C.1   202  THP202      0.2134
     22  O4        13.3310   43.1710   -2.2580 O.2   202  THP202     -0.2088
     23  C5        14.6690   43.7270   -0.4410 C.2   202  THP202      0.0891
     24  C5M       13.6350   43.3320    0.6210 C.3   202  THP202      0.0462
     25  C6        15.8920   44.1630   -0.0290 C.2   202  THP202      0.0877
@<TRIPOS>BOND
     1    19    18    2
     2    20    18    2
     3    20    21    2
     4    18    17   am
     5    22    21    2
     6    21    23    1
     7    17    16    1
     8    17    25    1
     9    16    15    1
    10    16    12    1
    11    15    13    1
    12    23    25    2
    13    23    24    1
    14    14    13    1
    15    14     5    1
    16     7     5    2
    17    13    11    1
    18    12    11    1
    19     5     6    1
    20     5     8    1
    21    11    10    1
    22    10     9    1
    23     9     1    1
    24     1     3    2
    25     1     2    1
    26     1     4    1
