@<TRIPOS>MOLECULE
3va7_BTI_A_1.pdb
 15 16 0 0 0
SMALL
GASTEIGER

@<TRIPOS>ATOM
      1  C11       11.9610  -53.4910  -15.6820 C.2   1901  BTI1901     0.2074
      2  O11       11.6680  -54.2500  -16.6570 O.2   1901  BTI1901    -0.2883
      3  C10       11.5130  -53.7210  -14.2070 C.3   1901  BTI1901     0.0722
      4  C9        10.5910  -54.9350  -14.1100 C.3   1901  BTI1901     0.0082
      5  C8        10.3290  -55.4650  -12.7070 C.3   1901  BTI1901     0.0014
      6  C7         9.8390  -56.9260  -12.6390 C.3   1901  BTI1901     0.0129
      7  C2         8.6810  -57.2610  -13.5560 C.3   1901  BTI1901     0.0729
      8  S1         7.2420  -56.2840  -13.2360 S.3   1901  BTI1901    -0.1369
      9  C6         6.1330  -57.4600  -13.9270 C.3   1901  BTI1901     0.0848
     10  C5         6.7740  -58.8270  -13.8260 C.3   1901  BTI1901     0.1509
     11  N3         6.1380  -59.3760  -12.6570 N.2   1901  BTI1901    -0.1859
     12  C3         6.9800  -59.4680  -11.6620 C.1   1901  BTI1901     0.2386
     13  O3         6.6670  -59.9870  -10.4920 O.2   1901  BTI1901    -0.2023
     14  N2         8.1790  -59.0280  -11.9820 N.2   1901  BTI1901    -0.1860
     15  C4         8.2440  -58.7080  -13.4030 C.3   1901  BTI1901     0.1500
@<TRIPOS>BOND
     1     2     1    2
     2     1     3    1
     3     3     4    1
     4     4     5    1
     5     9    10    1
     6     9     8    1
     7    10    15    1
     8    10    11    1
     9     7    15    1
    10     7     8    1
    11     7     6    1
    12    15    14    1
    13     5     6    1
    14    11    12    2
    15    14    12    2
    16    12    13    2
