@<TRIPOS>MOLECULE
3vad_0F1_A_1.pdb
 14 15 0 0 0
SMALL
GASTEIGER

@<TRIPOS>ATOM
      1 CL1        -8.8640  -32.3720   21.4510 Cl    404  0F1404     -0.0822
      2  C2        -8.8960  -31.9960   19.6980 C.ar  404  0F1404      0.0582
      3  C1        -9.7870  -31.0280   19.2260 C.ar  404  0F1404      0.0115
      4  C6        -9.8640  -30.7020   17.8770 C.ar  404  0F1404      0.0022
      5  C3        -8.0340  -32.6820   18.8440 C.ar  404  0F1404      0.0179
      6  C4        -8.0790  -32.3770   17.4950 C.ar  404  0F1404      0.0313
      7  C5        -9.0200  -31.3600   16.9960 C.ar  404  0F1404      0.0173
      8  C8        -8.8560  -31.2360   15.5120 C.ar  404  0F1404      0.0705
      9 CL2        -9.8390  -30.0720   14.4890 Cl    404  0F1404     -0.0815
     10  S         -7.1760  -33.0420   16.3200 S.2   404  0F1404     -0.0795
     11  C7        -7.7910  -32.1800   15.0200 C.ar  404  0F1404      0.1198
     12  C9        -7.3930  -32.3100   13.5960 C.2   404  0F1404      0.3945
     13  O1        -6.4820  -33.1150   13.3300 O.co2 404  0F1404     -0.2400
     14  O2        -7.9780  -31.6570   12.7050 O.co2 404  0F1404     -0.2400
@<TRIPOS>BOND
     1    14    12   ar
     2    13    12   ar
     3    12    11    1
     4     9     8    1
     5    11     8   ar
     6    11    10   ar
     7     8     7   ar
     8    10     6   ar
     9     7     6   ar
    10     7     4   ar
    11     6     5   ar
    12     4     3   ar
    13     5     2   ar
    14     3     2   ar
    15     2     1    1
