@<TRIPOS>MOLECULE
3vad_ADP_A_1.pdb
 27 29 0 0 0
SMALL
GASTEIGER

@<TRIPOS>ATOM
      1  PB         5.0300  -32.9110   -4.6400 P.3   401  ADP401      0.5373
      2  O1B        4.9920  -32.6530   -6.1260 O.2   401  ADP401     -0.2221
      3  O2B        6.4050  -33.2950   -4.1390 O.3   401  ADP401     -0.1143
      4  O3B        3.9140  -33.7810   -4.1090 O.3   401  ADP401     -0.1143
      5  PA         5.6740  -30.5220   -3.1560 P.3   401  ADP401      0.2231
      6  O1A        4.9150  -29.3330   -2.6570 O.2   401  ADP401     -0.5169
      7  O2A        6.4400  -31.3810   -2.1740 O.3   401  ADP401     -0.4370
      8  O3A        4.6380  -31.4720   -3.9750 O.3   401  ADP401     -0.2261
      9  O5'        6.7210  -30.0910   -4.2970 O.3   401  ADP401     -0.3111
     10  C5'        6.3300  -29.1690   -5.3120 C.3   401  ADP401      0.1813
     11  C4'        7.1400  -29.3820   -6.5770 C.3   401  ADP401      0.1821
     12  O4'        8.3410  -28.6130   -6.5210 O.3   401  ADP401     -0.3135
     13  C3'        7.5730  -30.8210   -6.8110 C.3   401  ADP401      0.2184
     14  O3'        6.5740  -31.5230   -7.5400 O.3   401  ADP401     -0.2174
     15  C2'        8.8320  -30.6670   -7.6140 C.3   401  ADP401      0.2570
     16  O2'        8.5500  -30.3770   -8.9830 O.3   401  ADP401     -0.2130
     17  C1'        9.4110  -29.3790   -7.0730 C.3   401  ADP401      0.3186
     18  N9        10.4520  -29.6690   -6.0590 N.pl3 401  ADP401     -0.1439
     19  C8        10.3300  -29.6630   -4.7190 C.3   401  ADP401      0.3377
     20  N7        11.5110  -29.9640   -4.1280 N.2   401  ADP401     -0.2095
     21  C5        12.4100  -30.1630   -5.0950 C.2   401  ADP401      0.2526
     22  C6        13.8350  -30.5210   -5.1910 C.2   401  ADP401      0.4393
     23  N6        14.6100  -30.7400   -4.1030 N.pl3 401  ADP401      0.2180
     24  N1        14.3530  -30.6320   -6.4350 N.2   401  ADP401      0.0021
     25  C2        13.6500  -30.4440   -7.5560 C.3   401  ADP401      0.5254
     26  N3        12.3540  -30.1240   -7.5310 N.2   401  ADP401     -0.0055
     27  C4        11.6980  -29.9760   -6.3640 C.2   401  ADP401      0.3518
@<TRIPOS>BOND
     1    16    15    1
     2    15    17    1
     3    15    13    1
     4    25    26    1
     5    25    24    1
     6    14    13    1
     7    26    27    2
     8    17    12    1
     9    17    18    1
    10    13    11    1
    11    11    12    1
    12    11    10    1
    13    24    22    2
    14    27    18    1
    15    27    21    1
    16     2     1    2
    17    18    19    1
    18    10     9    1
    19    22    21    1
    20    22    23    1
    21    21    20    2
    22    19    20    1
    23     1     3    1
    24     1     4    1
    25     1     8    1
    26     9     5    1
    27     8     5    1
    28     5     6    2
    29     5     7    1
