@<TRIPOS>MOLECULE
3vaf_CPQ_B_1.pdb
 27 30 0 0 0
SMALL
GASTEIGER

@<TRIPOS>ATOM
      1  C1        30.7760  109.9670   81.7760 C.3   401  CPQ401      0.0026
      2  C2        29.5720  110.1260   82.7010 C.3   401  CPQ401      0.0002
      3  C3        28.6460  112.0750   81.3190 C.3   401  CPQ401      0.0329
      4  C4        28.2320  113.5500   81.3690 C.3   401  CPQ401      0.1519
      5  C5        27.0850  113.7490   82.3410 C.3   401  CPQ401      0.0282
      6  C6        27.5370  113.2500   83.7050 C.3   401  CPQ401      0.0024
      7  C7        26.4170  113.6910   84.6410 C.3   401  CPQ401      0.0001
      8  C8        25.8510  114.9650   84.0030 C.3   401  CPQ401      0.0001
      9  C9        26.6440  115.1750   82.7090 C.3   401  CPQ401      0.0024
     10  C10       25.8850  112.9380   81.8630 C.3   401  CPQ401      0.0025
     11  C11       28.4850  109.1680   82.2270 C.3   401  CPQ401      0.0000
     12  C12       32.0270  110.7180   82.2430 C.3   401  CPQ401      0.0329
     13  C13       32.4190  110.3280   83.6750 C.3   401  CPQ401      0.1520
     14  C14       31.2310  110.4770   84.6250 C.3   401  CPQ401      0.0329
     15  C15       29.9820  109.7350   84.1230 C.3   401  CPQ401      0.0025
     16  C16       28.8500  109.9270   85.1400 C.3   401  CPQ401      0.0001
     17  C17       28.2780  111.3430   85.1120 C.3   401  CPQ401      0.0000
     18  C18       27.9100  111.7760   83.6990 C.3   401  CPQ401      0.0002
     19  C19       29.0570  111.5690   82.7030 C.3   401  CPQ401      0.0025
     20  C20       25.8820  116.0440   81.6860 C.3   401  CPQ401      0.0005
     21  C21       26.0890  115.6190   80.2370 C.3   401  CPQ401      0.0000
     22  C22       26.3020  117.5180   81.7760 C.3   401  CPQ401      0.0082
     23  C23       25.8840  118.2160   83.0700 C.3   401  CPQ401      0.0722
     24  O2        33.4890  111.1550   84.1420 O.3   401  CPQ401     -0.2232
     25  O4        29.3800  114.3050   81.7520 O.3   401  CPQ401     -0.2232
     26  C57       25.6420  119.7020   82.8250 C.2   401  CPQ401      0.2074
     27  O58       24.4890  120.1440   82.7550 O.2   401  CPQ401     -0.2883
@<TRIPOS>BOND
     1    21    20    1
     2     3     4    1
     3     3    19    1
     4     4    25    1
     5     4     5    1
     6    20    22    1
     7    20     9    1
     8     1    12    1
     9     1     2    1
    10    22    23    1
    11    10     5    1
    12    11     2    1
    13    12    13    1
    14     5     9    1
    15     5     6    1
    16     2    19    1
    17     2    15    1
    18    19    18    1
    19     9     8    1
    20    27    26    2
    21    26    23    1
    22    13    24    1
    23    13    14    1
    24    18     6    1
    25    18    17    1
    26     6     7    1
    27     8     7    1
    28    15    14    1
    29    15    16    1
    30    17    16    1
