@<TRIPOS>MOLECULE
3vaj_CPQ_B_1.pdb
 27 30 0 0 0
SMALL
GASTEIGER

@<TRIPOS>ATOM
      1  C1         6.7410   -0.5540    0.9780 C.3   404  CPQ404      0.0026
      2  C2         5.5500   -0.3460    1.9160 C.3   404  CPQ404      0.0002
      3  C3         4.6530    1.6680    0.5390 C.3   404  CPQ404      0.0329
      4  C4         4.1250    3.1080    0.5650 C.3   404  CPQ404      0.1519
      5  C5         2.9750    3.2540    1.5570 C.3   404  CPQ404      0.0282
      6  C6         3.4360    2.7110    2.9040 C.3   404  CPQ404      0.0024
      7  C7         2.3150    3.0850    3.8520 C.3   404  CPQ404      0.0001
      8  C8         1.8160    4.4290    3.3300 C.3   404  CPQ404      0.0001
      9  C9         2.5390    4.6630    1.9940 C.3   404  CPQ404      0.0024
     10  C10        1.7790    2.4730    1.0150 C.3   404  CPQ404      0.0025
     11  C11        4.4190   -1.2630    1.4630 C.3   404  CPQ404      0.0000
     12  C12        7.9910    0.2040    1.4150 C.3   404  CPQ404      0.0329
     13  C13        8.4050   -0.2270    2.8230 C.3   404  CPQ404      0.1520
     14  C14        7.2540    0.0140    3.7910 C.3   404  CPQ404      0.0329
     15  C15        5.9920   -0.7440    3.3350 C.3   404  CPQ404      0.0025
     16  C16        4.8870   -0.5480    4.3730 C.3   404  CPQ404      0.0001
     17  C17        4.2790    0.8410    4.3190 C.3   404  CPQ404      0.0000
     18  C18        3.8750    1.2610    2.9050 C.3   404  CPQ404      0.0002
     19  C19        5.0360    1.1060    1.9210 C.3   404  CPQ404      0.0025
     20  C20        1.6870    5.4870    1.0210 C.3   404  CPQ404      0.0005
     21  C21        2.3130    5.5110   -0.3720 C.3   404  CPQ404      0.0000
     22  C22        1.4380    6.9060    1.5670 C.3   404  CPQ404      0.0082
     23  C23        1.9740    8.0320    0.6780 C.3   404  CPQ404      0.0722
     24  O2         9.5830    0.4930    3.2350 O.3   404  CPQ404     -0.2232
     25  O4         5.1950    4.0090    0.8840 O.3   404  CPQ404     -0.2232
     26  C57        1.6840    9.3870    1.2860 C.2   404  CPQ404      0.2074
     27  O58        2.5760   10.2320    1.3140 O.2   404  CPQ404     -0.2883
@<TRIPOS>BOND
     1    21    20    1
     2     3     4    1
     3     3    19    1
     4     4    25    1
     5     4     5    1
     6    23    26    1
     7    23    22    1
     8     1    12    1
     9     1     2    1
    10    10     5    1
    11    20    22    1
    12    20     9    1
    13    26    27    2
    14    12    13    1
    15    11     2    1
    16     5     9    1
    17     5     6    1
    18     2    19    1
    19     2    15    1
    20    19    18    1
    21     9     8    1
    22    13    24    1
    23    13    14    1
    24     6    18    1
    25     6     7    1
    26    18    17    1
    27     8     7    1
    28    15    14    1
    29    15    16    1
    30    17    16    1
