@<TRIPOS>MOLECULE
3vam_CPQ_B_1.pdb
 27 30 0 0 0
SMALL
GASTEIGER

@<TRIPOS>ATOM
      1  C1         6.8810   -0.3880    1.0480 C.3   401  CPQ401      0.0026
      2  C2         5.6410   -0.2380    1.9320 C.3   401  CPQ401      0.0002
      3  C3         4.7550    1.8120    0.6100 C.3   401  CPQ401      0.0329
      4  C4         4.1770    3.2380    0.6720 C.3   401  CPQ401      0.1519
      5  C5         3.0240    3.3370    1.6610 C.3   401  CPQ401      0.0282
      6  C6         3.5130    2.8150    3.0060 C.3   401  CPQ401      0.0024
      7  C7         2.3870    3.1670    3.9690 C.3   401  CPQ401      0.0001
      8  C8         1.7890    4.4580    3.4000 C.3   401  CPQ401      0.0001
      9  C9         2.5010    4.7250    2.0690 C.3   401  CPQ401      0.0024
     10  C10        1.8700    2.4910    1.1300 C.3   401  CPQ401      0.0025
     11  C11        4.5300   -1.1230    1.3670 C.3   401  CPQ401      0.0000
     12  C12        8.1380    0.2790    1.6260 C.3   401  CPQ401      0.0329
     13  C13        8.4570   -0.2560    3.0250 C.3   401  CPQ401      0.1520
     14  C14        7.2510   -0.0460    3.9210 C.3   401  CPQ401      0.0329
     15  C15        6.0070   -0.7260    3.3450 C.3   401  CPQ401      0.0025
     16  C16        4.8690   -0.5600    4.3510 C.3   401  CPQ401      0.0001
     17  C17        4.3070    0.8550    4.3720 C.3   401  CPQ401      0.0000
     18  C18        3.9570    1.3550    2.9670 C.3   401  CPQ401      0.0002
     19  C19        5.1280    1.2190    1.9850 C.3   401  CPQ401      0.0025
     20  C20        1.5830    5.4580    1.0850 C.3   401  CPQ401      0.0005
     21  C21        2.3300    5.7850   -0.2100 C.3   401  CPQ401      0.0000
     22  C22        0.9340    6.7130    1.7010 C.3   401  CPQ401      0.0082
     23  C23        1.8580    7.9300    1.7930 C.3   401  CPQ401      0.0722
     24  O2         9.5890    0.4060    3.6110 O.3   401  CPQ401     -0.2232
     25  O4         5.2320    4.1430    1.0200 O.3   401  CPQ401     -0.2232
     26  C57        1.0440    9.1510    2.1760 C.2   401  CPQ401      0.2074
     27  O58        1.4420   10.2610    1.8510 O.2   401  CPQ401     -0.2883
@<TRIPOS>BOND
     1    21    20    1
     2     3     4    1
     3     3    19    1
     4     4    25    1
     5     4     5    1
     6     1    12    1
     7     1     2    1
     8    20    22    1
     9    20     9    1
    10    10     5    1
    11    11     2    1
    12    12    13    1
    13     5     9    1
    14     5     6    1
    15    22    23    1
    16    23    26    1
    17    27    26    2
    18     2    19    1
    19     2    15    1
    20    19    18    1
    21     9     8    1
    22    18     6    1
    23    18    17    1
    24     6     7    1
    25    13    24    1
    26    13    14    1
    27    15    14    1
    28    15    16    1
    29     8     7    1
    30    16    17    1
