@<TRIPOS>MOLECULE
3vaq_ADN_A_1.pdb
 19 21 0 0 0
SMALL
GASTEIGER

@<TRIPOS>ATOM
      1  O5'       13.5650  -18.0690   10.8730 O.3   401  ADN401     -0.2176
      2  C5'       14.6440  -17.7830    9.9880 C.3   401  ADN401      0.2143
      3  C4'       14.1520  -17.1970    8.6890 C.3   401  ADN401      0.1851
      4  O4'       13.4460  -15.9740    8.9550 O.3   401  ADN401     -0.3134
      5  C3'       15.2380  -16.8360    7.6720 C.3   401  ADN401      0.2186
      6  O3'       15.2170  -17.7720    6.5950 O.3   401  ADN401     -0.2174
      7  C2'       14.8370  -15.4370    7.1560 C.3   401  ADN401      0.2570
      8  O2'       14.7910  -15.3180    5.7500 O.3   401  ADN401     -0.2130
      9  C1'       13.4620  -15.2020    7.7880 C.3   401  ADN401      0.3186
     10  N9        13.2010  -13.8050    8.1440 N.pl3 401  ADN401     -0.1439
     11  C8        14.0290  -13.0170    8.8060 C.3   401  ADN401      0.3377
     12  N7        13.3970  -11.6950    8.9320 N.2   401  ADN401     -0.2095
     13  C5        12.1220  -11.7520    8.2900 C.2   401  ADN401      0.2526
     14  C6        11.1210  -10.7910    8.1180 C.2   401  ADN401      0.4393
     15  N6        11.2990   -9.4580    8.6380 N.pl3 401  ADN401      0.2180
     16  N1         9.9590  -11.1240    7.4370 N.2   401  ADN401      0.0021
     17  C2         9.7880  -12.3910    6.9370 C.3   401  ADN401      0.5254
     18  N3        10.7670  -13.3330    7.1060 N.2   401  ADN401     -0.0055
     19  C4        11.9570  -12.9920    7.8000 C.2   401  ADN401      0.3518
@<TRIPOS>BOND
     1     8     7    1
     2     6     5    1
     3    17    18    1
     4    17    16    1
     5    18    19    2
     6     7     5    1
     7     7     9    1
     8    16    14    2
     9     5     3    1
    10     9    10    1
    11     9     4    1
    12    19    10    1
    13    19    13    1
    14    14    13    1
    15    14    15    1
    16    10    11    1
    17    13    12    2
    18     3     4    1
    19     3     2    1
    20    11    12    1
    21     2     1    1
