@<TRIPOS>MOLECULE
3vas_ADN_A_1.pdb
 19 21 0 0 0
SMALL
GASTEIGER

@<TRIPOS>ATOM
      1  O5'       13.3650  -18.0760   10.8580 O.3   401  ADN401     -0.2176
      2  C5'       14.4700  -17.7710   10.0090 C.3   401  ADN401      0.2143
      3  C4'       14.0130  -17.1190    8.7270 C.3   401  ADN401      0.1851
      4  O4'       13.3930  -15.8570    9.0190 O.3   401  ADN401     -0.3134
      5  C3'       15.1030  -16.8130    7.6930 C.3   401  ADN401      0.2186
      6  O3'       14.9890  -17.7200    6.5950 O.3   401  ADN401     -0.2174
      7  C2'       14.7770  -15.3820    7.2080 C.3   401  ADN401      0.2570
      8  O2'       14.7190  -15.2350    5.8060 O.3   401  ADN401     -0.2130
      9  C1'       13.4170  -15.0980    7.8480 C.3   401  ADN401      0.3186
     10  N9        13.1790  -13.6910    8.1710 N.pl3 401  ADN401     -0.1439
     11  C8        14.0190  -12.8570    8.7540 C.3   401  ADN401      0.3377
     12  N7        13.3520  -11.5470    8.8390 N.2   401  ADN401     -0.2095
     13  C5        12.0560  -11.6720    8.2550 C.2   401  ADN401      0.2526
     14  C6        11.0230  -10.7580    8.0700 C.2   401  ADN401      0.4393
     15  N6        11.1810   -9.3980    8.5110 N.pl3 401  ADN401      0.2180
     16  N1         9.8470  -11.1630    7.4520 N.2   401  ADN401      0.0021
     17  C2         9.6920  -12.4590    7.0290 C.3   401  ADN401      0.5254
     18  N3        10.7070  -13.3610    7.2140 N.2   401  ADN401     -0.0055
     19  C4        11.9070  -12.9370    7.8390 C.2   401  ADN401      0.3518
@<TRIPOS>BOND
     1     8     7    1
     2     6     5    1
     3    17    18    1
     4    17    16    1
     5     7     5    1
     6     7     9    1
     7    18    19    2
     8    16    14    2
     9     5     3    1
    10    19    10    1
    11    19    13    1
    12     9    10    1
    13     9     4    1
    14    14    13    1
    15    14    15    1
    16    10    11    1
    17    13    12    2
    18     3     4    1
    19     3     2    1
    20    11    12    1
    21     2     1    1
