@<TRIPOS>MOLECULE
3vau_NTE_A_1.pdb
 46 53 0 0 0
SMALL
GASTEIGER

@<TRIPOS>ATOM
      1  N          0.8350   -0.5460   14.2840 N.2   201  NTE201      0.0000
      2 FE         -0.5670    0.8340   14.8890 Fe    201  NTE201      0.0000
      3  O1        -5.2370   -6.3470   12.4430 O.2   201  NTE201      0.0000
      4  O2        -3.3940   -5.8870   11.6430 O.2   201  NTE201      0.0000
      5  NA        -1.9500    2.1750   15.5450 N.2   201  NTE201      0.0000
      6  NB        -2.0620   -0.4640   14.4140 N.ar  201  NTE201      0.0000
      7  NC        -4.3100   -5.6010   12.4250 N.pl3 201  NTE201      0.0000
      8  ND         0.9210    2.0950   15.3680 N.ar  201  NTE201      0.0000
      9  C1A       -1.6770    3.3760   16.0430 C.2   201  NTE201      0.0000
     10  O1A       -1.4480    6.7750   14.6530 O.co2 201  NTE201      0.0000
     11  C1B       -3.3650   -0.3010   14.5740 C.ar  201  NTE201      0.0000
     12  C1C        0.5850   -1.7950   13.8710 C.2   201  NTE201      0.0000
     13  C1D        2.2330    1.8970   15.3090 C.ar  201  NTE201      0.0000
     14  O1D        1.7430    6.8270   19.6540 O.co2 201  NTE201      0.0000
     15  C2A       -2.9000    4.0710   16.4240 C.2   201  NTE201      0.0000
     16  O2A       -3.1770    6.0430   13.4280 O.co2 201  NTE201      0.0000
     17  C2B       -4.1530   -1.4290   14.1470 C.ar  201  NTE201      0.0000
     18  C2C        1.8170   -2.5500   13.6280 C.2   201  NTE201      0.0000
     19  C2D        3.0360    3.0430   15.8090 C.ar  201  NTE201      0.0000
     20  O2D        3.8700    6.4210   19.4930 O.co2 201  NTE201      0.0000
     21  C3A       -3.8850    3.1900   16.1590 C.2   201  NTE201      0.0000
     22  C3B       -3.2260   -2.3240   13.6810 C.ar  201  NTE201      0.0000
     23  C3C        2.8280   -1.6860   14.0430 C.2   201  NTE201      0.0000
     24  C3D        2.0950    3.9600   16.1910 C.ar  201  NTE201      0.0000
     25  C4A       -3.2360    1.9790   15.6160 C.2   201  NTE201      0.0000
     26  C4B       -1.9310   -1.6570   13.8390 C.ar  201  NTE201      0.0000
     27  C4C        2.1460   -0.4090   14.4380 C.2   201  NTE201      0.0000
     28  C4D        0.7770    3.3160   15.9380 C.ar  201  NTE201      0.0000
     29  CAA       -2.9340    5.4950   16.9390 C.3   201  NTE201      0.0000
     30  CAB       -3.3810   -3.6480   13.0430 C.2   201  NTE201      0.0000
     31  CAC        4.3330   -1.8020   14.0450 C.2   201  NTE201      0.0000
     32  CAD        2.3270    5.3130   16.8100 C.3   201  NTE201      0.0000
     33  CBA       -3.5060    6.3050   15.7380 C.3   201  NTE201      0.0000
     34  CBB       -4.3410   -4.5390   13.1710 C.2   201  NTE201      0.0000
     35  CBC        4.7910   -3.0180   14.0720 C.2   201  NTE201      0.0000
     36  CBD        2.5010    4.9700   18.3000 C.3   201  NTE201      0.0000
     37  CGA       -2.6360    6.3640   14.5150 C.2   201  NTE201      0.0000
     38  CGD        2.7060    6.1700   19.1980 C.2   201  NTE201      0.0000
     39  CHA       -0.4470    4.0430   16.2490 C.2   201  NTE201      0.0000
     40  CHB       -3.9960    0.8190   15.1840 C.2   201  NTE201      0.0000
     41  CHC       -0.7050   -2.3320   13.5320 C.2   201  NTE201      0.0000
     42  CHD        2.9200    0.7330   14.8490 C.2   201  NTE201      0.0000
     43  CMA       -5.3810    3.3900   16.3200 C.3   201  NTE201      0.0000
     44  CMB       -5.6880   -1.5210   14.1950 C.3   201  NTE201      0.0000
     45  CMC        1.8160   -3.9630   13.1300 C.3   201  NTE201      0.0000
     46  CMD        4.5340    3.2080   15.8430 C.3   201  NTE201      0.0000
@<TRIPOS>BOND
     1     4     7    2
     2     7     3    2
     3     7    34    1
     4    30    34    2
     5    30    22    1
     6    45    18    1
     7    16    37   ar
     8    41    26    1
     9    41    12    2
    10    18    12    1
    11    18    23    2
    12    22    26   ar
    13    22    17   ar
    14    26     6   ar
    15    12     1    1
    16    23    31    1
    17    23    27    1
    18    31    35    2
    19    17    44    1
    20    17    11   ar
    21     1    27    2
    22     1     2    1
    23     6    11   ar
    24     6     2    1
    25    27    42    1
    26    37    10   ar
    27    37    33    1
    28    11    40    1
    29    42    13    2
    30     2     8    1
    31     2     5    1
    32    40    25    2
    33    13     8   ar
    34    13    19   ar
    35     8    28   ar
    36     5    25    1
    37     5     9    2
    38    25    21    1
    39    33    29    1
    40    19    46    1
    41    19    24   ar
    42    28    24   ar
    43    28    39    2
    44     9    39    1
    45     9    15    1
    46    21    43    1
    47    21    15    2
    48    24    32    1
    49    15    29    1
    50    32    36    1
    51    36    38    1
    52    38    20   ar
    53    38    14   ar
