@<TRIPOS>MOLECULE
3vax_PLP_A_1.pdb
 15 15 0 0 0
SMALL
GASTEIGER

@<TRIPOS>ATOM
      1  N1        10.1330   -9.3310   27.1250 N.2   400  PLP400     -0.2505
      2  C2         9.3770  -10.4100   26.7270 C.2   400  PLP400      0.0675
      3  C2A        8.6770  -11.2370   27.7670 C.3   400  PLP400      0.0499
      4  C3         9.2750  -10.7080   25.3740 C.3   400  PLP400      0.1913
      5  O3         8.5210  -11.7690   24.9440 O.3   400  PLP400     -0.2167
      6  C4         9.9370   -9.9230   24.4290 C.3   400  PLP400      0.0581
      7  C4A       10.0890  -10.4500   23.0320 C.3   400  PLP400      0.0075
      8  C5        10.7060   -8.8390   24.8440 C.2   400  PLP400      0.0073
      9  C6        10.7990   -8.5550   26.1990 C.2   400  PLP400      0.0921
     10  C5A       11.4370   -7.9770   23.8380 C.3   400  PLP400      0.1776
     11  O4P       10.4690   -7.2080   23.1580 O.3   400  PLP400     -0.2656
     12  P         10.8690   -6.1970   21.9620 P.3   400  PLP400      0.5329
     13  O1P        9.7090   -5.2530   21.7160 O.3   400  PLP400     -0.1145
     14  O2P       12.1100   -5.4480   22.4060 O.3   400  PLP400     -0.1145
     15  O3P       11.1830   -6.9960   20.7260 O.2   400  PLP400     -0.2224
@<TRIPOS>BOND
     1    15    12    2
     2    13    12    1
     3    12    14    1
     4    12    11    1
     5     7     6    1
     6    11    10    1
     7    10     8    1
     8     6     8    1
     9     6     4    1
    10     8     9    2
    11     5     4    1
    12     4     2    1
    13     9     1    1
    14     2     1    2
    15     2     3    1
