@<TRIPOS>MOLECULE
3vaz_NAD_A_1.pdb
 44 48 0 0 0
SMALL
GASTEIGER

@<TRIPOS>ATOM
      1  PA       -40.5030   48.9350    7.6100 P.3   401  NAD401      0.2189
      2  O1A      -41.2050   48.5360    8.8820 O.co2 401  NAD401     -0.4371
      3  O2A      -40.9390   50.1430    6.8940 O.2   401  NAD401     -0.5170
      4  O5B      -40.8450   47.7660    6.5930 O.3   401  NAD401     -0.3112
      5  C5B      -41.3830   46.6140    7.1300 C.3   401  NAD401      0.1813
      6  C4B      -42.3930   46.2820    6.0800 C.3   401  NAD401      0.1821
      7  O4B      -42.4420   44.8910    5.8860 O.3   401  NAD401     -0.3135
      8  C3B      -43.7240   46.6940    6.6210 C.3   401  NAD401      0.2184
      9  O3B      -44.4940   47.1830    5.5540 O.3   401  NAD401     -0.2174
     10  C2B      -44.2760   45.4140    7.2110 C.3   401  NAD401      0.2570
     11  O2B      -45.6740   45.4870    7.2480 O.3   401  NAD401     -0.2130
     12  C1B      -43.7500   44.4150    6.2120 C.3   401  NAD401      0.3186
     13  N9A      -43.6640   43.0620    6.7580 N.pl3 401  NAD401     -0.1439
     14  C8A      -43.2290   42.6930    8.0220 C.3   401  NAD401      0.3377
     15  N7A      -43.3060   41.3420    8.1110 N.2   401  NAD401     -0.2095
     16  C5A      -43.7620   40.8550    6.9110 C.2   401  NAD401      0.2526
     17  C6A      -44.0190   39.5740    6.4370 C.2   401  NAD401      0.4393
     18  N6A      -43.3330   38.5540    6.9400 N.pl3 401  NAD401      0.2180
     19  N1A      -44.4890   39.4050    5.1580 N.2   401  NAD401      0.0021
     20  C2A      -44.7060   40.4870    4.3390 C.3   401  NAD401      0.5254
     21  N3A      -44.4440   41.7420    4.8240 N.2   401  NAD401     -0.0055
     22  C4A      -43.9780   41.9320    6.0650 C.2   401  NAD401      0.3518
     23  O3       -38.8940   48.8160    7.6900 O.3   401  NAD401     -0.2703
     24  PN       -37.8640   49.4100    6.6010 P.3   401  NAD401      0.2189
     25  O1N      -37.2680   50.6290    7.2040 O.co2 401  NAD401     -0.4371
     26  O2N      -38.3780   49.4690    5.2410 O.2   401  NAD401     -0.5170
     27  O5D      -36.7630   48.2610    6.5250 O.3   401  NAD401     -0.3112
     28  C5D      -36.9380   46.9340    6.0460 C.3   401  NAD401      0.1813
     29  C4D      -35.5560   46.2220    5.9840 C.3   401  NAD401      0.1799
     30  O4D      -34.6080   47.0950    5.3900 O.3   401  NAD401     -0.3327
     31  C3D      -34.8780   45.9220    7.3340 C.3   401  NAD401      0.2158
     32  O3D      -34.0940   44.7740    7.1850 O.3   401  NAD401     -0.2175
     33  C2D      -33.9390   47.0930    7.5960 C.3   401  NAD401      0.2309
     34  O2D      -32.8470   46.8850    8.4730 O.3   401  NAD401     -0.2158
     35  C1D      -33.4560   47.3300    6.1900 C.3   401  NAD401      0.2263
     36  N1N      -32.9220   48.6830    5.9750 N.pl3 401  NAD401     -0.2787
     37  C2N      -33.5380   49.7870    6.5180 C.3   401  NAD401      0.1244
     38  C3N      -33.0200   51.0730    6.2960 C.2   401  NAD401      0.0544
     39  C7N      -33.8140   52.2970    6.6600 C.2   401  NAD401      0.2818
     40  O7N      -33.1930   53.5520    6.6860 O.2   401  NAD401     -0.2670
     41  N7N      -35.1130   52.2140    6.9280 N.am  401  NAD401     -0.0839
     42  C4N      -31.8810   51.2110    5.5150 C.2   401  NAD401      0.0033
     43  C5N      -31.2840   50.0780    4.9360 C.2   401  NAD401      0.0157
     44  C6N      -31.8090   48.8140    5.1750 C.2   401  NAD401      0.0633
@<TRIPOS>UNITY_ATOM_ATTR
2 1
charge -1
25 1
charge -1
@<TRIPOS>BOND
     1    20    21    1
     2    20    19    1
     3    21    22    2
     4    43    44    2
     5    43    42    1
     6    19    17    2
     7    44    36    1
     8    26    24    2
     9    30    29    1
    10    30    35    1
    11    42    38    2
    12     9     8    1
    13     7     6    1
    14     7    12    1
    15    36    35    1
    16    36    37    1
    17    29    28    1
    18    29    31    1
    19    28    27    1
    20    22    13    1
    21    22    16    1
    22     6     8    1
    23     6     5    1
    24    35    33    1
    25    12    13    1
    26    12    10    1
    27    38    37    1
    28    38    39    1
    29    17    16    1
    30    17    18    1
    31    27    24    1
    32     4     5    1
    33     4     1    1
    34    24    25    1
    35    24    23    1
    36     8    10    1
    37    39    40    2
    38    39    41   am
    39    13    14    1
    40     3     1    2
    41    16    15    2
    42    32    31    1
    43    10    11    1
    44    31    33    1
    45    33    34    1
    46     1    23    1
    47     1     2    1
    48    14    15    1
