@<TRIPOS>MOLECULE
3vbd_0FZ_A_1.pdb
 22 24 0 0 0
SMALL
GASTEIGER

@<TRIPOS>ATOM
      1  CAB       -5.8180   10.5810   10.2290 C.3   2002  0FZ2002     0.2525
      2  OAR       -6.5820    9.3930   10.4320 O.3   2002  0FZ2002    -0.4714
      3  CAX       -5.8440    8.3990   10.9560 C.ar  2002  0FZ2002     0.1384
      4  CAM       -4.5190    8.5380   11.3120 C.ar  2002  0FZ2002     0.0327
      5  CAW       -6.4800    7.1880   11.2200 C.ar  2002  0FZ2002     0.0369
      6  CAL       -5.7310    6.2650   11.8900 C.ar  2002  0FZ2002     0.0043
      7  CAG       -4.4280    6.3610   12.3770 C.ar  2002  0FZ2002     0.0135
      8  CAT       -3.8000    7.5610   11.9970 C.ar  2002  0FZ2002    -0.0157
      9  CAO       -2.4530    7.8110   12.2330 C.3   2002  0FZ2002     0.0528
     10  CAN       -1.7260    6.4630   12.4300 C.3   2002  0FZ2002     0.1302
     11  NAP       -2.4570    5.7340   13.5120 N.2   2002  0FZ2002    -0.2701
     12  CAS       -3.7850    5.4880   13.2610 C.2   2002  0FZ2002     0.0756
     13  CAU       -4.2620    4.4090   13.9940 C.ar  2002  0FZ2002     0.0173
     14  CAI       -5.5720    4.3050   14.4440 C.ar  2002  0FZ2002     0.0029
     15  CAK       -6.0460    3.2270   15.1730 C.ar  2002  0FZ2002     0.0201
     16  CAH       -3.4270    3.3280   14.3410 C.ar  2002  0FZ2002     0.0029
     17  CAJ       -3.8900    2.2270   15.0920 C.ar  2002  0FZ2002     0.0201
     18  CAV       -5.2190    2.1730   15.5400 C.ar  2002  0FZ2002     0.1250
     19  SAY       -5.8070    0.8320   16.5930 S.O2  2002  0FZ2002     0.0935
     20  OAE       -5.2410    1.1410   17.9210 O.2   2002  0FZ2002    -0.1503
     21  OAF       -7.3180    1.0140   16.5570 O.2   2002  0FZ2002    -0.1503
     22  NAC       -5.3480   -0.5110   16.1290 N.3   2002  0FZ2002     0.0392
@<TRIPOS>BOND
     1     1     2    1
     2     2     3    1
     3     3     5   ar
     4     3     4   ar
     5     5     6   ar
     6     4     8   ar
     7     6     7   ar
     8     8     9    1
     9     8     7   ar
    10     9    10    1
    11     7    12    1
    12    10    11    1
    13    12    11    2
    14    12    13    1
    15    13    16   ar
    16    13    14   ar
    17    16    17   ar
    18    14    15   ar
    19    17    18   ar
    20    15    18   ar
    21    18    19    1
    22    22    19    1
    23    21    19    2
    24    19    20    2
