@<TRIPOS>MOLECULE
3vbe_PLP_A_1.pdb
 15 15 0 0 0
SMALL
GASTEIGER

@<TRIPOS>ATOM
      1  N1       -27.5760   -3.8430    1.3400 N.ar  500  PLP500     -0.2452
      2  C2       -28.7100   -3.1490    1.7130 C.ar  500  PLP500      0.0978
      3  C2A      -29.4130   -3.4640    3.0010 C.3   500  PLP500      0.0555
      4  C3       -29.1880   -2.1550    0.8880 C.ar  500  PLP500      0.2049
      5  O3       -30.3090   -1.4370    1.2180 O.3   500  PLP500     -0.2857
      6  C4       -28.5180   -1.8830   -0.2900 C.ar  500  PLP500      0.0182
      7  C4A      -28.9790   -0.7280   -1.0900 C.3   500  PLP500      0.0342
      8  C5       -27.3740   -2.5720   -0.6710 C.ar  500  PLP500      0.0261
      9  C6       -26.9110   -3.5750    0.1650 C.ar  500  PLP500      0.0965
     10  C5A      -26.6640   -2.2690   -1.9840 C.3   500  PLP500      0.1815
     11  O4P      -26.3550   -0.9020   -2.2000 O.3   500  PLP500     -0.2653
     12  P        -26.4610   -0.2470   -3.6750 P.3   500  PLP500      0.5329
     13  O1P      -25.7250    1.0720   -3.6500 O.3   500  PLP500     -0.1145
     14  O2P      -27.9210   -0.0350   -4.0480 O.3   500  PLP500     -0.1145
     15  O3P      -25.8600   -1.1380   -4.7500 O.2   500  PLP500     -0.2224
@<TRIPOS>BOND
     1    15    12    2
     2    14    12    1
     3    12    13    1
     4    12    11    1
     5    11    10    1
     6    10     8    1
     7     7     6    1
     8     8     6   ar
     9     8     9   ar
    10     6     4   ar
    11     9     1   ar
    12     4     5    1
    13     4     2   ar
    14     1     2   ar
    15     2     3    1
