@<TRIPOS>MOLECULE
3vbf_AMP_A_1.pdb
 23 25 0 0 0
SMALL
GASTEIGER

@<TRIPOS>ATOM
      1  P        142.4680  247.8790  114.7500 P.3   302  AMP302      0.5327
      2  O1P      142.4390  246.3850  114.8590 O.3   302  AMP302     -0.1145
      3  O2P      141.7360  248.3510  113.3730 O.2   302  AMP302     -0.2224
      4  O3P      144.0060  248.3950  114.7480 O.3   302  AMP302     -0.1145
      5  O5'      141.7000  248.5430  116.0270 O.3   302  AMP302     -0.2675
      6  C5'      140.3250  248.0940  116.0470 C.3   302  AMP302      0.1860
      7  C4'      139.6020  248.7450  117.2420 C.3   302  AMP302      0.1823
      8  O4'      139.6610  250.2140  117.1100 O.3   302  AMP302     -0.3135
      9  C3'      138.1050  248.3050  117.3090 C.3   302  AMP302      0.2184
     10  O3'      137.7970  247.6430  118.5710 O.3   302  AMP302     -0.2174
     11  C2'      137.2720  249.6140  117.0710 C.3   302  AMP302      0.2570
     12  O2'      136.3630  249.8830  118.1760 O.3   302  AMP302     -0.2130
     13  C1'      138.3190  250.7750  116.8750 C.3   302  AMP302      0.3186
     14  N9       138.2460  251.4430  115.4880 N.pl3 302  AMP302     -0.1439
     15  C8       138.8180  250.9890  114.2990 C.3   302  AMP302      0.3377
     16  N7       138.5610  251.8160  113.3000 N.2   302  AMP302     -0.2095
     17  C5       137.8000  252.8750  113.7530 C.2   302  AMP302      0.2526
     18  C6       137.2090  254.0840  113.1540 C.2   302  AMP302      0.4393
     19  N6       137.3640  254.3800  111.7930 N.pl3 302  AMP302      0.2180
     20  N1       136.4870  254.9370  113.9550 N.2   302  AMP302      0.0021
     21  C2       136.3110  254.6910  115.2690 C.3   302  AMP302      0.5254
     22  N3       136.8380  253.5880  115.8690 N.2   302  AMP302     -0.0055
     23  C4       137.5820  252.6580  115.1670 C.2   302  AMP302      0.3518
@<TRIPOS>BOND
     1    19    18    1
     2    18    17    1
     3    18    20    2
     4    16    17    2
     5    16    15    1
     6     3     1    2
     7    17    23    1
     8    20    21    1
     9    15    14    1
    10     4     1    1
    11     1     2    1
    12     1     5    1
    13    23    14    1
    14    23    22    2
    15    21    22    1
    16    14    13    1
    17     5     6    1
    18     6     7    1
    19    13    11    1
    20    13     8    1
    21    11     9    1
    22    11    12    1
    23     8     7    1
    24     7     9    1
    25     9    10    1
