@<TRIPOS>MOLECULE
3vbg_03M_A_1.pdb
 28 31 0 0 0
SMALL
GASTEIGER

@<TRIPOS>ATOM
      1  C4        12.0190  -19.0310   -9.1740 C.2     1  03M1        0.0015
      2  C6        15.0810  -20.6420   -8.0750 C.2     1  03M1        0.0946
      3  C7        13.7130  -20.3840   -7.9660 C.2     1  03M1        0.0053
      4  C8        13.2850  -19.4680   -8.9050 C.2     1  03M1        0.0118
      5  C10       12.7210  -21.0890   -7.1140 C.3     1  03M1        0.0927
      6  N12       14.4200  -22.6130   -5.9770 N.2     1  03M1       -0.3203
      7  C13       14.1740  -23.6380   -5.0920 C.1     1  03M1        0.2749
      8  C15       12.2320  -22.9430   -5.4300 C.2     1  03M1        0.2897
      9  C20       10.8690  -23.9770   -2.0650 C.ar    1  03M1       -0.0001
     10  C21       10.7240  -23.5790   -0.7520 C.ar    1  03M1        0.0317
     11  C22       11.8700  -23.5750    0.0790 C.ar    1  03M1        0.1674
     12  C24       13.2800  -24.3720   -1.6260 C.ar    1  03M1        0.0294
     13  C1        11.8960  -18.1090  -10.1930 C.2     1  03M1        0.0074
     14  C2        12.9730  -17.6410  -10.9100 C.2     1  03M1        0.0406
     15  C3        14.2410  -18.1060  -10.6510 C.3     1  03M1        0.0732
     16  N5        15.4990  -19.7780   -9.1020 N.2     1  03M1       -0.2481
     17  C9        14.4120  -19.0630   -9.6260 C.2     1  03M1        0.0633
     18  C11       13.1380  -22.1670   -6.2060 C.2     1  03M1        0.1817
     19  N14       12.9360  -23.8540   -4.7720 N.am    1  03M1       -0.1663
     20  O16       15.0220  -24.4110   -4.4920 O.2     1  03M1       -0.1926
     21  O17       10.9580  -22.7770   -5.4090 O.2     1  03M1       -0.2664
     22  C18       12.4970  -24.8600   -3.8320 C.3     1  03M1        0.1385
     23  C19       12.1730  -24.3640   -2.4600 C.ar    1  03M1        0.0012
     24  C23       13.1060  -23.9430   -0.3350 C.ar    1  03M1        0.1671
     25  F25       14.1440  -23.9120    0.4990 F       1  03M1       -0.2018
     26  F26       11.8140  -23.2230    1.3370 F       1  03M1       -0.2018
     27  C27       15.4030  -17.5490  -11.4700 C.3     1  03M1        0.0119
     28 CL         12.6070  -16.3850  -12.1640 Cl      1  03M1       -0.0865
@<TRIPOS>BOND
     1    28    14    1
     2    27    15    1
     3    14    15    1
     4    14    13    2
     5    15    17    1
     6    13     1    1
     7    17    16    2
     8    17     4    1
     9     1     4    2
    10    16     2    1
    11     4     3    1
    12     2     3    2
    13     3     5    1
    14     5    18    1
    15    18     6    2
    16    18     8    1
    17     6     7    2
    18     8    21    2
    19     8    19   am
    20     7    19   am
    21     7    20    2
    22    19    22    1
    23    22    23    1
    24    23     9   ar
    25    23    12   ar
    26     9    10   ar
    27    12    24   ar
    28    10    11   ar
    29    24    11   ar
    30    24    25    1
    31    11    26    1
