@<TRIPOS>MOLECULE
3vbi_COA_A_1.pdb
 48 50 0 0 0
SMALL
GASTEIGER

@<TRIPOS>ATOM
      1  N1A      -26.1130   16.8410    9.7080 N.2   189  COA189      0.0021
      2  C2A      -26.3110   18.1440    9.4480 C.3   189  COA189      0.5254
      3  N3A      -25.3650   19.0740    9.6780 N.2   189  COA189     -0.0055
      4  C4A      -24.1600   18.6870   10.1690 C.2   189  COA189      0.3518
      5  C5A      -23.9070   17.3560   10.4820 C.2   189  COA189      0.2526
      6  C6A      -24.8980   16.4250   10.1660 C.2   189  COA189      0.4393
      7  N6A      -24.6750   15.1200   10.4220 N.pl3 189  COA189      0.2180
      8  N7A      -22.6440   17.2650   10.9550 N.2   189  COA189     -0.2095
      9  C8A      -22.1480   18.5220   10.9590 C.3   189  COA189      0.3377
     10  N9A      -23.0800   19.3770   10.4930 N.pl3 189  COA189     -0.1439
     11  C1B      -22.9440   20.8460   10.2920 C.3   189  COA189      0.3185
     12  C2B      -22.5330   21.6110   11.5260 C.3   189  COA189      0.2543
     13  O2B      -23.7010   22.0100   12.2490 O.3   189  COA189     -0.2131
     14  C3B      -21.6670   22.7140   10.9450 C.3   189  COA189      0.1928
     15  O3B      -22.5250   23.7070   10.3730 O.3   189  COA189     -0.2673
     16  P3B      -22.2130   25.2980   10.1470 P.3   189  COA189      0.5327
     17  O7A      -23.4970   25.7620    9.5130 O.3   189  COA189     -0.1145
     18  O8A      -21.0340   25.2820    9.2070 O.2   189  COA189     -0.2224
     19  O9A      -22.0180   25.7080   11.5780 O.3   189  COA189     -0.1145
     20  C4B      -20.8930   22.0200    9.8290 C.3   189  COA189      0.1795
     21  O4B      -21.7690   20.9360    9.4770 O.3   189  COA189     -0.3136
     22  C5B      -19.5320   21.4390   10.2510 C.3   189  COA189      0.1812
     23  O5B      -19.7300   20.6970   11.4610 O.3   189  COA189     -0.3112
     24  P1A      -18.5440   20.0420   12.3200 P.3   189  COA189      0.2189
     25  O1A      -18.9740   19.1530   13.4570 O.3   189  COA189     -0.4371
     26  O2A      -17.6370   21.1940   12.6040 O.2   189  COA189     -0.5170
     27  O3A      -17.8240   19.1360   11.2070 O.3   189  COA189     -0.2703
     28  P2A      -16.9250   17.8310   11.4380 P.3   189  COA189      0.2188
     29  O4A      -16.0570   17.6270   10.2190 O.2   189  COA189     -0.5170
     30  O5A      -16.2740   17.7430   12.7780 O.3   189  COA189     -0.4371
     31  O6A      -18.0110   16.6420   11.4280 O.3   189  COA189     -0.3138
     32  CBP      -19.3630   14.9740   10.1860 C.3   189  COA189      0.0645
     33  CCP      -18.8740   16.4160   10.3060 C.3   189  COA189      0.1519
     34  CDP      -20.2360   14.9300    8.9210 C.3   189  COA189      0.0056
     35  CEP      -18.1580   14.0670   10.0070 C.3   189  COA189      0.0056
     36  CAP      -20.0380   14.6010   11.5220 C.3   189  COA189      0.2312
     37  OAP      -20.8400   15.6250   12.1550 O.3   189  COA189     -0.2131
     38  C9P      -20.8820   13.3730   11.3420 C.2   189  COA189      0.2719
     39  O9P      -22.0390   13.4370   10.9560 O.2   189  COA189     -0.2706
     40  N8P      -20.3150   12.1960   11.5800 N.am  189  COA189     -0.2028
     41  C7P      -21.1370   10.9900   11.3710 C.3   189  COA189      0.1248
     42  C6P      -20.6090    9.9470   12.3550 C.3   189  COA189      0.1102
     43  C5P      -21.2490    8.6010   12.1420 C.2   189  COA189      0.2432
     44  O5P      -22.3670    8.4840   11.6400 O.2   189  COA189     -0.2733
     45  N4P      -20.5140    7.5830   12.5930 N.am  189  COA189     -0.2044
     46  C3P      -20.9270    6.1860   12.4870 C.3   189  COA189      0.1276
     47  C2P      -20.2010    5.2950   13.4900 C.3   189  COA189      0.0920
     48  S1P      -18.4760    4.9690   12.9960 S.3   189  COA189     -0.0802
@<TRIPOS>BOND
     1    34    32    1
     2    18    16    2
     3     2     3    1
     4     2     1    1
     5    21    20    1
     6    21    11    1
     7    17    16    1
     8     3     4    2
     9     1     6    2
    10    20    22    1
    11    20    14    1
    12    35    32    1
    13    16    15    1
    14    16    19    1
    15     6     7    1
    16     6     5    1
    17     4     5    1
    18     4    10    1
    19    32    33    1
    20    32    36    1
    21    29    28    2
    22    22    23    1
    23    11    10    1
    24    11    12    1
    25    33    31    1
    26    15    14    1
    27     5     8    2
    28    10     9    1
    29    14    12    1
    30     8     9    1
    31    39    38    2
    32    27    28    1
    33    27    24    1
    34    38    36    1
    35    38    40   am
    36    41    40    1
    37    41    42    1
    38    31    28    1
    39    28    30    1
    40    23    24    1
    41    36    37    1
    42    12    13    1
    43    44    43    2
    44    43    42    1
    45    43    45   am
    46    24    26    2
    47    24    25    1
    48    46    45    1
    49    46    47    1
    50    48    47    1
