@<TRIPOS>MOLECULE
3vbi_0FX_A_1.pdb
 35 37 0 0 0
SMALL
GASTEIGER

@<TRIPOS>ATOM
      1  O4P      -46.6090    1.8900   26.6640 O.2   1500  0FX1500    -0.5170
      2  P2       -45.6030    0.8270   26.2650 P.3   1500  0FX1500     0.2208
      3  O3P      -45.2020   -0.2520   27.2500 O.3   1500  0FX1500    -0.4371
      4  O1G      -44.2110    1.5080   25.7720 O.3   1500  0FX1500    -0.2857
      5  C1G      -44.1490    2.4620   24.7020 C.3   1500  0FX1500     0.2740
      6  C2G      -42.8210    2.8090   24.0280 C.3   1500  0FX1500     0.2398
      7  O2G      -41.9900    1.6900   23.7070 O.3   1500  0FX1500    -0.2149
      8  C3G      -42.1350    3.8030   24.9660 C.3   1500  0FX1500     0.2070
      9  O3G      -40.8650    4.2940   24.5070 O.3   1500  0FX1500    -0.2186
     10  C4G      -43.0230    5.0310   25.1660 C.3   1500  0FX1500     0.1518
     11  N4A      -42.3380    5.9860   26.0280 N.3   1500  0FX1500    -0.1276
     12  C5G      -44.4280    4.6380   25.6520 C.3   1500  0FX1500     0.1380
     13  C6G      -45.3680    5.8250   25.8940 C.3   1500  0FX1500     0.0338
     14  O5G      -44.9730    3.6350   24.7760 O.3   1500  0FX1500    -0.3293
     15  OPP      -46.2300    0.0160   25.0260 O.3   1500  0FX1500    -0.2703
     16  P        -45.4030   -1.0500   24.1540 P.3   1500  0FX1500     0.2189
     17  O1P      -43.9700   -0.6100   23.9380 O.3   1500  0FX1500    -0.4371
     18  O2P      -46.2990   -1.2210   22.9480 O.2   1500  0FX1500    -0.5170
     19  O5       -45.4190   -2.4750   24.9200 O.3   1500  0FX1500    -0.3112
     20  C5       -46.6210   -3.1240   25.3300 C.3   1500  0FX1500     0.1812
     21  C4       -46.3380   -4.6050   25.5630 C.3   1500  0FX1500     0.1773
     22  O4       -45.8650   -5.2460   24.3760 O.3   1500  0FX1500    -0.3339
     23  C3       -45.2310   -4.8680   26.5800 C.3   1500  0FX1500     0.1857
     24  O3       -45.6920   -4.8400   27.9350 O.3   1500  0FX1500    -0.2203
     25  C2       -44.6770   -6.2210   26.1440 C.3   1500  0FX1500     0.0874
     26  C1       -44.8470   -6.2220   24.6270 C.3   1500  0FX1500     0.2090
     27  N11      -43.5770   -5.8450   23.9770 N.am  1500  0FX1500    -0.1794
     28  C61      -43.4260   -4.6520   23.3560 C.2   1500  0FX1500     0.0877
     29  C51      -42.2310   -4.2610   22.7380 C.2   1500  0FX1500     0.0891
     30  C5A      -42.0940   -2.9190   22.0410 C.3   1500  0FX1500     0.0462
     31  C21      -42.5360   -6.6950   24.0000 C.1   1500  0FX1500     0.2844
     32  O21      -42.6510   -7.8060   24.5720 O.2   1500  0FX1500    -0.1918
     33  N31      -41.3560   -6.3590   23.4200 N.2   1500  0FX1500    -0.2455
     34  C41      -41.1740   -5.1690   22.7860 C.1   1500  0FX1500     0.2134
     35  O41      -40.0760   -4.9150   22.2400 O.2   1500  0FX1500    -0.2088
@<TRIPOS>BOND
     1    30    29    1
     2    35    34    2
     3    29    34    1
     4    29    28    2
     5    34    33    2
     6    18    16    2
     7    28    27    1
     8    33    31    2
     9     7     6    1
    10    17    16    1
    11    27    31   am
    12    27    26    1
    13    31    32    2
    14     6     5    1
    15     6     8    1
    16    16    19    1
    17    16    15    1
    18    22    26    1
    19    22    21    1
    20     9     8    1
    21    26    25    1
    22     5    14    1
    23     5     4    1
    24    14    12    1
    25    19    20    1
    26     8    10    1
    27    15     2    1
    28    10    12    1
    29    10    11    1
    30    20    21    1
    31    21    23    1
    32    12    13    1
    33     4     2    1
    34    25    23    1
    35     2     1    2
    36     2     3    1
    37    23    24    1
