@<TRIPOS>MOLECULE
3vbj_TYD_A_1.pdb
 25 26 0 0 0
SMALL
GASTEIGER

@<TRIPOS>ATOM
      1  PA        -1.6170  -45.6640  -24.0870 P.3   301  TYD301      0.2231
      2  O1A       -0.9370  -44.3230  -24.2500 O.2   301  TYD301     -0.5169
      3  O2A       -1.7660  -46.1250  -22.6550 O.3   301  TYD301     -0.4370
      4  O3A       -0.7840  -46.7660  -24.9230 O.3   301  TYD301     -0.2261
      5  PB        -0.6730  -46.8250  -26.5320 P.3   301  TYD301      0.5373
      6  O1B       -2.0780  -47.0260  -27.0510 O.2   301  TYD301     -0.2221
      7  O2B       -0.1410  -45.4700  -26.9410 O.3   301  TYD301     -0.1143
      8  O3B        0.2390  -48.0090  -26.7630 O.3   301  TYD301     -0.1143
      9  O5'       -3.0800  -45.7060  -24.7810 O.3   301  TYD301     -0.3111
     10  C5'       -4.0400  -46.7600  -24.6480 C.3   301  TYD301      0.1812
     11  C4'       -5.3980  -46.4340  -25.2700 C.3   301  TYD301      0.1773
     12  O4'       -6.2790  -45.8650  -24.2970 O.3   301  TYD301     -0.3339
     13  C3'       -5.2860  -45.4140  -26.3980 C.3   301  TYD301      0.1857
     14  O3'       -5.3510  -46.0340  -27.6860 O.3   301  TYD301     -0.2203
     15  C2'       -6.4330  -44.4410  -26.1610 C.3   301  TYD301      0.0874
     16  C1'       -6.7190  -44.5580  -24.6680 C.3   301  TYD301      0.2090
     17  N1        -6.1350  -43.4510  -23.8820 N.am  301  TYD301     -0.1794
     18  C2        -6.8440  -42.3090  -23.7840 C.1   301  TYD301      0.2844
     19  O2        -7.9650  -42.1860  -24.3400 O.2   301  TYD301     -0.1918
     20  N3        -6.3780  -41.2420  -23.0880 N.2   301  TYD301     -0.2455
     21  C4        -5.1880  -41.2960  -22.4470 C.1   301  TYD301      0.2134
     22  O4        -4.8240  -40.2920  -21.8040 O.2   301  TYD301     -0.2088
     23  C5        -4.4170  -42.4530  -22.5110 C.2   301  TYD301      0.0891
     24  C5M       -3.0810  -42.4990  -21.8000 C.3   301  TYD301      0.0462
     25  C6        -4.9400  -43.5180  -23.2550 C.2   301  TYD301      0.0877
@<TRIPOS>BOND
     1    14    13    1
     2     6     5    2
     3     7     5    1
     4     8     5    1
     5     5     4    1
     6    13    15    1
     7    13    11    1
     8    15    16    1
     9    11    10    1
    10    11    12    1
    11     4     1    1
    12     9    10    1
    13     9     1    1
    14    16    12    1
    15    16    17    1
    16    19    18    2
    17     2     1    2
    18     1     3    1
    19    17    18   am
    20    17    25    1
    21    18    20    2
    22    25    23    2
    23    20    21    2
    24    23    21    1
    25    23    24    1
    26    21    22    2
