@<TRIPOS>MOLECULE
3vbk_0FX_A_1.pdb
 35 37 0 0 0
SMALL
GASTEIGER

@<TRIPOS>ATOM
      1  O4P        1.8390  -46.8160  -26.6470 O.3   1500  0FX1500    -0.4371
      2  P2         0.7000  -45.8900  -26.2710 P.3   1500  0FX1500     0.2208
      3  O3P       -0.4280  -45.6530  -27.2550 O.2   1500  0FX1500    -0.5170
      4  O1G        1.4000  -44.5080  -25.7590 O.3   1500  0FX1500    -0.2857
      5  C1G        2.4500  -44.3660  -24.7780 C.3   1500  0FX1500     0.2740
      6  C2G        2.8500  -43.0490  -24.0860 C.3   1500  0FX1500     0.2398
      7  O2G        1.8320  -42.0960  -23.7320 O.3   1500  0FX1500    -0.2149
      8  C3G        3.9610  -42.4190  -24.9370 C.3   1500  0FX1500     0.2070
      9  O3G        4.4010  -41.1630  -24.4090 O.3   1500  0FX1500    -0.2186
     10  C4G        5.1460  -43.3830  -25.0720 C.3   1500  0FX1500     0.1518
     11  N4A        6.2190  -42.7930  -25.8560 N.3   1500  0FX1500    -0.1276
     12  C5G        4.6740  -44.7400  -25.6130 C.3   1500  0FX1500     0.1380
     13  C6G        5.7790  -45.7910  -25.7040 C.3   1500  0FX1500     0.0338
     14  O5G        3.5870  -45.2370  -24.8210 O.3   1500  0FX1500    -0.3293
     15  OPP        0.0080  -46.4560  -24.9320 O.3   1500  0FX1500    -0.2703
     16  P         -1.0490  -45.5590  -24.1150 P.3   1500  0FX1500     0.2189
     17  O1P       -0.6040  -44.1250  -23.9240 O.2   1500  0FX1500    -0.5170
     18  O2P       -1.2590  -46.4030  -22.8810 O.3   1500  0FX1500    -0.4371
     19  O5        -2.4580  -45.6180  -24.9160 O.3   1500  0FX1500    -0.3112
     20  C5        -3.3640  -46.7310  -24.8270 C.3   1500  0FX1500     0.1812
     21  C4        -4.8030  -46.4460  -25.2600 C.3   1500  0FX1500     0.1773
     22  O4        -5.5740  -45.9450  -24.1650 O.3   1500  0FX1500    -0.3339
     23  C3        -4.9120  -45.3680  -26.3370 C.3   1500  0FX1500     0.1857
     24  O3        -4.7370  -45.7980  -27.6960 O.3   1500  0FX1500    -0.2203
     25  C2        -6.2160  -44.6710  -25.9950 C.3   1500  0FX1500     0.0874
     26  C1        -6.3980  -44.8250  -24.4880 C.3   1500  0FX1500     0.2090
     27  N11       -5.9650  -43.5780  -23.8130 N.am  1500  0FX1500    -0.1794
     28  C61       -4.7830  -43.4420  -23.1790 C.2   1500  0FX1500     0.0877
     29  C51       -4.3690  -42.2640  -22.5390 C.2   1500  0FX1500     0.0891
     30  C5A       -3.0170  -42.1910  -21.8650 C.3   1500  0FX1500     0.0462
     31  C21       -6.7630  -42.4960  -23.8090 C.1   1500  0FX1500     0.2844
     32  O21       -7.8750  -42.5630  -24.3770 O.2   1500  0FX1500    -0.1918
     33  N31       -6.4030  -41.3340  -23.2130 N.2   1500  0FX1500    -0.2455
     34  C41       -5.2250  -41.1710  -22.5730 C.1   1500  0FX1500     0.2134
     35  O41       -4.9660  -40.0740  -22.0250 O.2   1500  0FX1500    -0.2088
@<TRIPOS>BOND
     1    24    23    1
     2     3     2    2
     3     1     2    1
     4    23    25    1
     5    23    21    1
     6     2     4    1
     7     2    15    1
     8    25    26    1
     9    11    10    1
    10     4     5    1
    11    13    12    1
    12    12    10    1
    13    12    14    1
    14    21    20    1
    15    21    22    1
    16    10     8    1
    17     8     9    1
    18     8     6    1
    19    15    16    1
    20    19    20    1
    21    19    16    1
    22    14     5    1
    23     5     6    1
    24    26    22    1
    25    26    27    1
    26    32    31    2
    27    16    17    2
    28    16    18    1
    29     6     7    1
    30    27    31   am
    31    27    28    1
    32    31    33    2
    33    33    34    2
    34    28    29    2
    35    34    29    1
    36    34    35    2
    37    29    30    1
