@<TRIPOS>MOLECULE
3vbk_COA_A_1.pdb
 48 50 0 0 0
SMALL
GASTEIGER

@<TRIPOS>ATOM
      1  N1A       16.8240  -26.1020   -9.4760 N.2   189  COA189      0.0021
      2  C2A       18.1230  -26.3880   -9.2860 C.3   189  COA189      0.5254
      3  N3A       19.0900  -25.4840   -9.5170 N.2   189  COA189     -0.0055
      4  C4A       18.7370  -24.2610   -9.9900 C.2   189  COA189      0.3518
      5  C5A       17.4000  -23.9410  -10.1970 C.2   189  COA189      0.2526
      6  C6A       16.4170  -24.8910   -9.9340 C.2   189  COA189      0.4393
      7  N6A       15.0990  -24.6330  -10.1570 N.pl3 189  COA189      0.2180
      8  N7A       17.3660  -22.6890  -10.6730 N.2   189  COA189     -0.2095
      9  C8A       18.6220  -22.2340  -10.7690 C.3   189  COA189      0.3377
     10  N9A       19.4460  -23.2030  -10.3510 N.pl3 189  COA189     -0.1439
     11  C1B       20.9120  -23.0470  -10.1860 C.3   189  COA189      0.3185
     12  C2B       21.6640  -22.5630  -11.3940 C.3   189  COA189      0.2543
     13  O2B       22.1380  -23.6910  -12.1180 O.3   189  COA189     -0.2131
     14  C3B       22.7810  -21.7410  -10.7760 C.3   189  COA189      0.1928
     15  O3B       23.7590  -22.5240  -10.1120 O.3   189  COA189     -0.2673
     16  P3B       25.3390  -22.1980   -9.9910 P.3   189  COA189      0.5327
     17  O7A       25.9190  -23.4550   -9.3960 O.3   189  COA189     -0.1145
     18  O8A       25.4950  -20.9940   -9.1000 O.3   189  COA189     -0.1145
     19  O9A       25.6180  -22.0330  -11.4710 O.2   189  COA189     -0.2224
     20  C4B       22.0790  -21.0190   -9.6250 C.3   189  COA189      0.1795
     21  O4B       20.9960  -21.9010   -9.3290 O.3   189  COA189     -0.3136
     22  C5B       21.5490  -19.6140   -9.9550 C.3   189  COA189      0.1812
     23  O5B       20.8060  -19.7570  -11.1730 O.3   189  COA189     -0.3112
     24  P1A       20.2900  -18.5340  -12.0810 P.3   189  COA189      0.2189
     25  O1A       19.3170  -19.0240  -13.1120 O.2   189  COA189     -0.5170
     26  O2A       21.4840  -17.7000  -12.4690 O.3   189  COA189     -0.4371
     27  O3A       19.3620  -17.7660  -11.0160 O.3   189  COA189     -0.2703
     28  P2A       18.0010  -16.9600  -11.3080 P.3   189  COA189      0.2188
     29  O4A       17.7090  -16.1150  -10.0810 O.3   189  COA189     -0.4371
     30  O5A       17.9640  -16.3620  -12.6800 O.2   189  COA189     -0.5170
     31  O6A       16.8050  -18.0490  -11.2150 O.3   189  COA189     -0.3138
     32  CBP       15.0970  -19.3410  -10.0140 C.3   189  COA189      0.0645
     33  CCP       16.5640  -18.9430  -10.1250 C.3   189  COA189      0.1519
     34  CDP       14.9160  -20.2130   -8.7780 C.3   189  COA189      0.0056
     35  CEP       14.3160  -18.0610   -9.7700 C.3   189  COA189      0.0056
     36  CAP       14.6350  -20.0140  -11.3190 C.3   189  COA189      0.2312
     37  OAP       15.7020  -20.7690  -11.9110 O.3   189  COA189     -0.2131
     38  C9P       13.4340  -20.8800  -11.1430 C.2   189  COA189      0.2719
     39  O9P       13.5250  -22.0370  -10.7460 O.2   189  COA189     -0.2706
     40  N8P       12.2660  -20.3020  -11.4310 N.am  189  COA189     -0.2028
     41  C7P       11.0580  -21.0760  -11.2720 C.3   189  COA189      0.1248
     42  C6P        9.9360  -20.3460  -11.9990 C.3   189  COA189      0.1102
     43  C5P        8.6480  -21.0930  -11.7690 C.2   189  COA189      0.2432
     44  O5P        8.6010  -22.2370  -11.2770 O.2   189  COA189     -0.2733
     45  N4P        7.6150  -20.4300  -12.2780 N.am  189  COA189     -0.2044
     46  C3P        6.2630  -20.9570  -12.1850 C.3   189  COA189      0.1276
     47  C2P        5.2930  -20.1410  -13.0140 C.3   189  COA189      0.0920
     48  S1P        5.1740  -18.4580  -12.3760 S.3   189  COA189     -0.0802
@<TRIPOS>BOND
     1    25    24    2
     2    47    48    1
     3    47    46    1
     4    30    28    2
     5    26    24    1
     6    45    46    1
     7    45    43   am
     8    13    12    1
     9    24    23    1
    10    24    27    1
    11    42    43    1
    12    42    41    1
    13    37    36    1
    14    43    44    2
    15    19    16    2
    16    40    41    1
    17    40    38   am
    18    12    14    1
    19    12    11    1
    20    36    38    1
    21    36    32    1
    22    28    31    1
    23    28    27    1
    24    28    29    1
    25    31    33    1
    26    23    22    1
    27    38    39    2
    28    14    15    1
    29    14    20    1
    30     9     8    1
    31     9    10    1
    32     8     5    2
    33    10    11    1
    34    10     4    1
    35     5     4    1
    36     5     6    1
    37    11    21    1
    38     7     6    1
    39    33    32    1
    40    15    16    1
    41    32    35    1
    42    32    34    1
    43    16    17    1
    44    16    18    1
    45     4     3    2
    46    22    20    1
    47     6     1    2
    48    20    21    1
    49     3     2    1
    50     1     2    1
