@<TRIPOS>MOLECULE
3vbl_COA_A_1.pdb
 48 50 0 0 0
SMALL
GASTEIGER

@<TRIPOS>ATOM
      1  N1A       -0.3100   16.9760  -15.9580 N.2   189  COA189      0.0021
      2  C2A       -0.0370   15.7620  -15.4560 C.3   189  COA189      0.5254
      3  N3A       -0.7300   14.6840  -15.8300 N.2   189  COA189     -0.0055
      4  C4A       -1.7600   14.7930  -16.7040 C.2   189  COA189      0.3518
      5  C5A       -2.0730   16.0480  -17.2170 C.2   189  COA189      0.2526
      6  C6A       -1.3330   17.1510  -16.8050 C.2   189  COA189      0.4393
      7  N6A       -1.6820   18.3430  -17.3540 N.pl3 189  COA189      0.2180
      8  N7A       -3.1350   15.9330  -18.0420 N.2   189  COA189     -0.2095
      9  C8A       -3.4740   14.6160  -18.0730 C.3   189  COA189      0.3377
     10  N9A       -2.6460   13.9510  -17.2480 N.pl3 189  COA189     -0.1439
     11  C1B       -2.6120   12.4860  -17.0300 C.3   189  COA189      0.3185
     12  C2B       -3.8940   11.7590  -16.6490 C.3   189  COA189      0.2543
     13  O2B       -3.8470   11.7530  -15.2170 O.3   189  COA189     -0.2131
     14  C3B       -3.7750   10.3980  -17.3320 C.3   189  COA189      0.1928
     15  O3B       -2.8250    9.6440  -16.5850 O.3   189  COA189     -0.2673
     16  P3B       -2.9660    8.0260  -16.4460 P.3   189  COA189      0.5327
     17  O7A       -1.6950    7.7170  -15.6990 O.3   189  COA189     -0.1145
     18  O8A       -3.2310    7.4850  -17.8300 O.2   189  COA189     -0.2224
     19  O9A       -4.2340    7.8830  -15.6440 O.3   189  COA189     -0.1145
     20  C4B       -3.0910   10.8030  -18.6390 C.3   189  COA189      0.1795
     21  O4B       -2.3690   12.0180  -18.3530 O.3   189  COA189     -0.3136
     22  C5B       -4.0840   11.1070  -19.7540 C.3   189  COA189      0.1812
     23  O5B       -5.0990   11.9330  -19.1710 O.3   189  COA189     -0.3112
     24  P1A       -6.4340   12.3150  -19.9730 P.3   189  COA189      0.2189
     25  O1A       -7.1890   13.4070  -19.2590 O.3   189  COA189     -0.4371
     26  O2A       -7.1740   11.0460  -20.3230 O.2   189  COA189     -0.5170
     27  O3A       -5.9490   12.7850  -21.4240 O.3   189  COA189     -0.2703
     28  P2A       -6.5470   13.8850  -22.4140 P.3   189  COA189      0.2188
     29  O4A       -5.8940   13.7760  -23.7600 O.2   189  COA189     -0.5170
     30  O5A       -8.0310   14.0470  -22.2940 O.3   189  COA189     -0.4371
     31  O6A       -6.0410   15.2670  -21.7360 O.3   189  COA189     -0.3138
     32  CBP       -4.2770   16.9620  -21.8090 C.3   189  COA189      0.0645
     33  CCP       -4.6410   15.4950  -21.6000 C.3   189  COA189      0.1519
     34  CDP       -2.7560   17.0730  -21.6470 C.3   189  COA189      0.0056
     35  CEP       -4.6890   17.4470  -23.2010 C.3   189  COA189      0.0056
     36  CAP       -4.9690   17.7890  -20.7230 C.3   189  COA189      0.2312
     37  OAP       -5.1450   17.1400  -19.4550 O.3   189  COA189     -0.2131
     38  C9P       -4.2800   19.0960  -20.4830 C.2   189  COA189      0.2719
     39  O9P       -3.3880   19.2120  -19.6460 O.2   189  COA189     -0.2706
     40  N8P       -4.7580   20.0830  -21.2160 N.am  189  COA189     -0.2028
     41  C7P       -4.1900   21.4330  -21.0710 C.3   189  COA189      0.1248
     42  C6P       -5.1000   22.5520  -21.5690 C.3   189  COA189      0.1102
     43  C5P       -4.6280   23.9680  -21.2540 C.2   189  COA189      0.2432
     44  O5P       -3.7240   24.1710  -20.4510 O.2   189  COA189     -0.2733
     45  N4P       -5.1960   24.9950  -21.8820 N.am  189  COA189     -0.2044
     46  C3P       -4.8980   26.4010  -21.6340 C.3   189  COA189      0.1276
     47  C2P       -5.6360   27.3160  -22.6070 C.3   189  COA189      0.0920
     48  S1P       -4.3510   27.5970  -23.8430 S.3   189  COA189     -0.0802
@<TRIPOS>BOND
     1    48    47    1
     2    29    28    2
     3    35    32    1
     4    47    46    1
     5    28    30    1
     6    28    31    1
     7    28    27    1
     8    45    46    1
     9    45    43   am
    10    32    34    1
    11    32    33    1
    12    32    36    1
    13    31    33    1
    14    42    43    1
    15    42    41    1
    16    27    24    1
    17    43    44    2
    18    40    41    1
    19    40    38   am
    20    36    38    1
    21    36    37    1
    22    38    39    2
    23    26    24    2
    24    24    25    1
    25    24    23    1
    26    22    23    1
    27    22    20    1
    28    20    21    1
    29    20    14    1
    30    21    11    1
    31     9     8    1
    32     9    10    1
    33     8     5    2
    34    18    16    2
    35     7     6    1
    36    14    12    1
    37    14    15    1
    38    10    11    1
    39    10     4    1
    40     5     6    1
    41     5     4    1
    42    11    12    1
    43     6     1    2
    44     4     3    2
    45    12    13    1
    46    15    16    1
    47    16    17    1
    48    16    19    1
    49     1     2    1
    50     3     2    1
