@<TRIPOS>MOLECULE
3vbl_0FX_A_1.pdb
 35 37 0 0 0
SMALL
GASTEIGER

@<TRIPOS>ATOM
      1  O4P      -10.5130   36.5570  -27.2740 O.2   1500  0FX1500    -0.5170
      2  P2       -11.2500   35.5440  -26.4350 P.3   1500  0FX1500     0.2208
      3  O3P      -10.7820   34.1390  -26.1530 O.3   1500  0FX1500    -0.4371
      4  O1G      -12.6550   35.2460  -27.1540 O.3   1500  0FX1500    -0.2857
      5  C1G      -13.5190   36.3060  -27.5670 C.3   1500  0FX1500     0.2740
      6  C2G      -14.9380   36.1250  -27.0400 C.3   1500  0FX1500     0.2398
      7  O2G      -14.9050   35.7870  -25.6490 O.3   1500  0FX1500    -0.2149
      8  C3G      -15.4420   34.9070  -27.8090 C.3   1500  0FX1500     0.2070
      9  O3G      -16.7510   34.5310  -27.3550 O.3   1500  0FX1500    -0.2186
     10  C4G      -15.2980   35.1000  -29.3220 C.3   1500  0FX1500     0.1518
     11  N4A      -15.6460   33.8700  -30.0130 N.3   1500  0FX1500    -0.1276
     12  C5G      -13.8780   35.5310  -29.7080 C.3   1500  0FX1500     0.1380
     13  C6G      -13.5980   35.6000  -31.2120 C.3   1500  0FX1500     0.0338
     14  O5G      -13.4810   36.6850  -28.9450 O.3   1500  0FX1500    -0.3293
     15  OPP      -11.6530   36.1670  -25.0090 O.3   1500  0FX1500    -0.2703
     16  P        -10.5810   36.9380  -24.0850 P.3   1500  0FX1500     0.2189
     17  O1P       -9.2600   36.1800  -24.1260 O.2   1500  0FX1500    -0.5170
     18  O2P      -11.3360   37.1730  -22.8000 O.3   1500  0FX1500    -0.4371
     19  O5       -10.3670   38.3950  -24.7190 O.3   1500  0FX1500    -0.3112
     20  C5       -11.5020   39.2260  -24.9770 C.3   1500  0FX1500     0.1812
     21  C4       -11.0750   40.6710  -25.2160 C.3   1500  0FX1500     0.1773
     22  O4       -10.5170   41.2200  -24.0210 O.3   1500  0FX1500    -0.3339
     23  C3        -9.9190   40.6770  -26.2160 C.3   1500  0FX1500     0.1857
     24  O3       -10.4450   40.7660  -27.5430 O.3   1500  0FX1500    -0.2203
     25  C2        -9.0910   41.8900  -25.8100 C.3   1500  0FX1500     0.0874
     26  C1        -9.3240   41.9660  -24.3050 C.3   1500  0FX1500     0.2090
     27  N11       -8.1600   41.4700  -23.5610 N.am  1500  0FX1500    -0.1794
     28  C61       -8.1730   40.2310  -23.0310 C.2   1500  0FX1500     0.0877
     29  C51       -7.0730   39.7670  -22.3250 C.2   1500  0FX1500     0.0891
     30  C5A       -7.0110   38.3940  -21.6940 C.3   1500  0FX1500     0.0462
     31  C21       -7.0900   42.2640  -23.4520 C.1   1500  0FX1500     0.2844
     32  O21       -7.0980   43.4130  -23.9620 O.2   1500  0FX1500    -0.1918
     33  N31       -5.9990   41.8580  -22.7760 N.2   1500  0FX1500    -0.2455
     34  C41       -5.9930   40.6250  -22.2180 C.1   1500  0FX1500     0.2134
     35  O41       -4.9790   40.2560  -21.6000 O.2   1500  0FX1500    -0.2088
@<TRIPOS>BOND
     1    13    12    1
     2    11    10    1
     3    12    10    1
     4    12    14    1
     5    10     8    1
     6    14     5    1
     7     8     9    1
     8     8     6    1
     9     5     4    1
    10     5     6    1
    11    24    23    1
    12     1     2    2
    13     4     2    1
    14     6     7    1
    15     2     3    1
    16     2    15    1
    17    23    25    1
    18    23    21    1
    19    25    26    1
    20    21    20    1
    21    21    22    1
    22    15    16    1
    23    20    19    1
    24    19    16    1
    25    26    22    1
    26    26    27    1
    27    17    16    2
    28    16    18    1
    29    32    31    2
    30    27    31   am
    31    27    28    1
    32    31    33    2
    33    28    29    2
    34    33    34    2
    35    29    34    1
    36    29    30    1
    37    34    35    2
