@<TRIPOS>MOLECULE
3vbm_TYD_A_1.pdb
 25 26 0 0 0
SMALL
GASTEIGER

@<TRIPOS>ATOM
      1  PA        -1.5000   46.0550   25.2250 P.3   301  TYD301      0.2231
      2  O1A       -1.6380   46.9160   23.9940 O.2   301  TYD301     -0.5169
      3  O2A       -0.7900   44.7270   25.1210 O.3   301  TYD301     -0.4370
      4  O3A       -0.6610   47.0230   26.1990 O.3   301  TYD301     -0.2261
      5  PB         0.0490   46.6740   27.6050 P.3   301  TYD301      0.5373
      6  O1B        1.2670   45.8700   27.2210 O.2   301  TYD301     -0.2221
      7  O2B        0.3790   48.0820   28.0690 O.3   301  TYD301     -0.1143
      8  O3B       -0.9740   45.9880   28.4860 O.3   301  TYD301     -0.1143
      9  O5'       -2.9400   45.9390   25.9080 O.3   301  TYD301     -0.3111
     10  C5'       -3.7840   47.0630   26.1320 C.3   301  TYD301      0.1812
     11  C4'       -5.2000   46.5800   26.4470 C.3   301  TYD301      0.1773
     12  O4'       -5.8100   46.0350   25.2820 O.3   301  TYD301     -0.3339
     13  C3'       -5.1800   45.4420   27.4600 C.3   301  TYD301      0.1857
     14  O3'       -5.2240   45.9240   28.8170 O.3   301  TYD301     -0.2203
     15  C2'       -6.3750   44.5970   27.0490 C.3   301  TYD301      0.0874
     16  C1'       -6.5670   44.8570   25.5540 C.3   301  TYD301      0.2090
     17  N1        -6.1180   43.6740   24.7970 N.am  301  TYD301     -0.1794
     18  C2        -6.9470   42.6190   24.6940 C.1   301  TYD301      0.2844
     19  O2        -8.0860   42.7360   25.2080 O.2   301  TYD301     -0.1918
     20  N3        -6.5970   41.4890   24.0310 N.2   301  TYD301     -0.2455
     21  C4        -5.3660   41.3910   23.4570 C.1   301  TYD301      0.2134
     22  O4        -5.0230   40.3720   22.8270 O.2   301  TYD301     -0.2088
     23  C5        -4.4640   42.4410   23.5720 C.2   301  TYD301      0.0891
     24  C5M       -3.0900   42.3550   22.9370 C.3   301  TYD301      0.0462
     25  C6        -4.8810   43.5830   24.2600 C.2   301  TYD301      0.0877
@<TRIPOS>BOND
     1    22    21    2
     2    24    23    1
     3    21    23    1
     4    21    20    2
     5    23    25    2
     6     2     1    2
     7    20    18    2
     8    25    17    1
     9    18    17   am
    10    18    19    2
    11    17    16    1
    12     3     1    1
    13     1     9    1
    14     1     4    1
    15    12    16    1
    16    12    11    1
    17    16    15    1
    18     9    10    1
    19    10    11    1
    20     4     5    1
    21    11    13    1
    22    15    13    1
    23     6     5    2
    24    13    14    1
    25     5     7    1
    26     5     8    1
