@<TRIPOS>MOLECULE
3vbm_COA_A_1.pdb
 48 50 0 0 0
SMALL
GASTEIGER

@<TRIPOS>ATOM
      1  N1A       18.5290   35.8530   17.1690 N.2   189  COA189      0.0021
      2  C2A       19.7630   35.5550   16.6910 C.3   189  COA189      0.5254
      3  N3A       20.8220   36.3020   17.0260 N.2   189  COA189     -0.0055
      4  C4A       20.6570   37.3370   17.8930 C.2   189  COA189      0.3518
      5  C5A       19.4010   37.6390   18.4360 C.2   189  COA189      0.2526
      6  C6A       18.3170   36.8720   18.0140 C.2   189  COA189      0.4393
      7  N6A       17.0780   37.1100   18.5030 N.pl3 189  COA189      0.2180
      8  N7A       19.5050   38.7090   19.2740 N.2   189  COA189     -0.2095
      9  C8A       20.8160   39.0260   19.2940 C.3   189  COA189      0.3377
     10  N9A       21.4840   38.2110   18.4630 N.pl3 189  COA189     -0.1439
     11  C1B       22.9590   38.1910   18.3130 C.3   189  COA189      0.3185
     12  C2B       23.6720   39.4920   17.9860 C.3   189  COA189      0.2543
     13  O2B       23.7290   39.5330   16.5700 O.3   189  COA189     -0.2131
     14  C3B       25.0420   39.3240   18.6340 C.3   189  COA189      0.1928
     15  O3B       25.7990   38.3910   17.8750 O.3   189  COA189     -0.2673
     16  P3B       27.4140   38.5400   17.7510 P.3   189  COA189      0.5327
     17  O7A       27.6980   37.3920   16.8160 O.2   189  COA189     -0.2224
     18  O8A       27.9890   38.5020   19.1410 O.3   189  COA189     -0.1145
     19  O9A       27.5540   39.9760   17.3010 O.3   189  COA189     -0.1145
     20  C4B       24.6360   38.6690   19.9440 C.3   189  COA189      0.1795
     21  O4B       23.3810   38.0210   19.6650 O.3   189  COA189     -0.3136
     22  C5B       24.4770   39.7550   21.0050 C.3   189  COA189      0.1812
     23  O5B       23.4800   40.6410   20.4920 O.3   189  COA189     -0.3112
     24  P1A       22.9940   41.9860   21.2220 P.3   189  COA189      0.2189
     25  O1A       21.9000   42.7460   20.5230 O.2   189  COA189     -0.5170
     26  O2A       24.2780   42.6790   21.5450 O.3   189  COA189     -0.4371
     27  O3A       22.5190   41.4710   22.6840 O.3   189  COA189     -0.2703
     28  P2A       21.4560   42.0990   23.7040 P.3   189  COA189      0.2188
     29  O4A       21.6320   41.5030   25.0800 O.3   189  COA189     -0.4371
     30  O5A       21.1890   43.5780   23.5920 O.2   189  COA189     -0.5170
     31  O6A       20.1090   41.5040   23.0430 O.3   189  COA189     -0.3138
     32  CBP       18.3320   39.7780   23.1050 C.3   189  COA189      0.0645
     33  CCP       19.8300   40.0940   22.9960 C.3   189  COA189      0.1519
     34  CDP       18.2370   38.2840   22.8290 C.3   189  COA189      0.0056
     35  CEP       17.8140   40.1080   24.5150 C.3   189  COA189      0.0056
     36  CAP       17.5100   40.5680   22.0540 C.3   189  COA189      0.2312
     37  OAP       18.2340   40.6240   20.8110 O.3   189  COA189     -0.2131
     38  C9P       16.1990   39.9170   21.7330 C.2   189  COA189      0.2719
     39  O9P       16.1630   39.0020   20.9090 O.2   189  COA189     -0.2706
     40  N8P       15.1300   40.3670   22.3810 N.am  189  COA189     -0.2028
     41  C7P       13.8020   39.7830   22.1460 C.3   189  COA189      0.1248
     42  C6P       12.6910   40.7670   22.5640 C.3   189  COA189      0.1102
     43  C5P       11.2650   40.2850   22.4010 C.2   189  COA189      0.2432
     44  O5P       11.1060   39.3030   21.6890 O.2   189  COA189     -0.2733
     45  N4P       10.2870   40.9370   23.0450 N.am  189  COA189     -0.2044
     46  C3P        8.8220   40.8690   23.1510 C.3   189  COA189      0.1276
     47  C2P        8.1380   41.0440   24.5430 C.3   189  COA189      0.0920
     48  S1P        8.2600   42.4130   25.7830 S.3   189  COA189     -0.0802
@<TRIPOS>BOND
     1    13    12    1
     2     2     3    1
     3     2     1    1
     4    17    16    2
     5     3     4    2
     6     1     6    2
     7    19    16    1
     8    16    15    1
     9    16    18    1
    10    15    14    1
    11     4     5    1
    12     4    10    1
    13    12    11    1
    14    12    14    1
    15     6     5    1
    16     6     7    1
    17    11    10    1
    18    11    21    1
    19     5     8    2
    20    10     9    1
    21    14    20    1
    22     8     9    1
    23    21    20    1
    24    20    22    1
    25    23    22    1
    26    23    24    1
    27    25    24    2
    28    37    36    1
    29    39    38    2
    30    24    26    1
    31    24    27    1
    32    44    43    2
    33    38    36    1
    34    38    40   am
    35    36    32    1
    36    41    40    1
    37    41    42    1
    38    43    42    1
    39    43    45   am
    40    27    28    1
    41    34    32    1
    42    33    31    1
    43    33    32    1
    44    31    28    1
    45    45    46    1
    46    32    35    1
    47    46    47    1
    48    30    28    2
    49    28    29    1
    50    47    48    1
