@<TRIPOS>MOLECULE
3vbn_TYD_A_1.pdb
 25 26 0 0 0
SMALL
GASTEIGER

@<TRIPOS>ATOM
      1  PA       -10.2170   37.1190  -24.6230 P.3   301  TYD301      0.2231
      2  O1A      -10.4750   37.4240  -23.1680 O.3   301  TYD301     -0.4370
      3  O2A       -8.8040   36.7150  -24.9580 O.2   301  TYD301     -0.5169
      4  O3A      -11.2080   35.9590  -25.1610 O.3   301  TYD301     -0.2261
      5  PB       -11.3810   35.4790  -26.7040 P.3   301  TYD301      0.5373
      6  O1B      -12.8740   35.5400  -27.0040 O.3   301  TYD301     -0.1143
      7  O2B      -10.7620   34.0930  -26.6760 O.3   301  TYD301     -0.1143
      8  O3B      -10.5800   36.4900  -27.5100 O.2   301  TYD301     -0.2221
      9  O5'      -10.7520   38.3980  -25.4550 O.3   301  TYD301     -0.3111
     10  C5'      -11.5590   39.4500  -24.9240 C.3   301  TYD301      0.1812
     11  C4'      -11.1030   40.8170  -25.4440 C.3   301  TYD301      0.1773
     12  O4'      -10.5590   41.6080  -24.3810 O.3   301  TYD301     -0.3339
     13  C3'      -10.0380   40.7760  -26.5450 C.3   301  TYD301      0.1857
     14  O3'      -10.5540   40.9370  -27.8770 O.3   301  TYD301     -0.2203
     15  C2'       -9.0560   41.8840  -26.1930 C.3   301  TYD301      0.0874
     16  C1'       -9.3000   42.1870  -24.7170 C.3   301  TYD301      0.2090
     17  N1        -8.1630   41.6710  -23.9310 N.am  301  TYD301     -0.1794
     18  C2        -7.0810   42.4670  -23.7480 C.1   301  TYD301      0.2844
     19  O2        -7.0260   43.6280  -24.2250 O.2   301  TYD301     -0.1918
     20  N3        -6.0010   42.0410  -23.0410 N.2   301  TYD301     -0.2455
     21  C4        -5.9560   40.8100  -22.4870 C.1   301  TYD301      0.2134
     22  O4        -4.9100   40.5100  -21.8740 O.2   301  TYD301     -0.2088
     23  C5        -7.0530   39.9680  -22.6480 C.2   301  TYD301      0.0891
     24  C5M       -7.0860   38.5770  -22.0660 C.3   301  TYD301      0.0462
     25  C6        -8.1440   40.4310  -23.3930 C.2   301  TYD301      0.0877
@<TRIPOS>BOND
     1    14    13    1
     2     8     5    2
     3     6     5    1
     4     5     7    1
     5     5     4    1
     6    13    15    1
     7    13    11    1
     8    15    16    1
     9     9    10    1
    10     9     1    1
    11    11    10    1
    12    11    12    1
    13     4     1    1
    14     3     1    2
    15    16    12    1
    16    16    17    1
    17     1     2    1
    18    19    18    2
    19    17    18   am
    20    17    25    1
    21    18    20    2
    22    25    23    2
    23    20    21    2
    24    23    21    1
    25    23    24    1
    26    21    22    2
