@<TRIPOS>MOLECULE
3vbn_COA_A_1.pdb
 48 50 0 0 0
SMALL
GASTEIGER

@<TRIPOS>ATOM
      1  N1A        9.4170   18.8290   -9.2850 N.2   189  COA189      0.0021
      2  C2A        9.1010   17.5300   -9.1330 C.3   189  COA189      0.5254
      3  N3A       10.0110   16.5700   -9.3740 N.2   189  COA189     -0.0055
      4  C4A       11.2280   16.9610   -9.8020 C.2   189  COA189      0.3518
      5  C5A       11.5910   18.2860  -10.0020 C.2   189  COA189      0.2526
      6  C6A       10.6270   19.2430   -9.7080 C.2   189  COA189      0.4393
      7  N6A       10.8390   20.5700   -9.8440 N.pl3 189  COA189      0.2180
      8  N7A       12.8640   18.3150  -10.4560 N.2   189  COA189     -0.2095
      9  C8A       13.2680   17.0340  -10.5380 C.3   189  COA189      0.3377
     10  N9A       12.2590   16.2380  -10.1450 N.pl3 189  COA189     -0.1439
     11  C1B       12.2010   14.7800  -10.0040 C.3   189  COA189      0.3185
     12  C2B       12.6120   14.0840  -11.2800 C.3   189  COA189      0.2543
     13  O2B       11.5380   13.3180  -11.8150 O.3   189  COA189     -0.2131
     14  C3B       13.6170   13.0720  -10.8140 C.3   189  COA189      0.1928
     15  O3B       12.7550   12.0830  -10.2720 O.3   189  COA189     -0.2673
     16  P3B       13.3030   10.6040   -9.9350 P.3   189  COA189      0.5327
     17  O7A       14.1970   10.3240  -11.1340 O.2   189  COA189     -0.2224
     18  O8A       14.0550   10.7730   -8.6350 O.3   189  COA189     -0.1145
     19  O9A       12.0520    9.7200   -9.8650 O.3   189  COA189     -0.1145
     20  C4B       14.2450   13.6920   -9.5750 C.3   189  COA189      0.1795
     21  O4B       13.2750   14.6170   -9.0750 O.3   189  COA189     -0.3136
     22  C5B       15.6700   14.2110   -9.7770 C.3   189  COA189      0.1812
     23  O5B       15.6570   15.1600  -10.8350 O.3   189  COA189     -0.3112
     24  P1A       16.9490   15.3940  -11.7930 P.3   189  COA189      0.2189
     25  O1A       16.4260   16.3310  -12.8490 O.2   189  COA189     -0.5170
     26  O2A       17.5320   14.0670  -12.2230 O.3   189  COA189     -0.4371
     27  O3A       17.9270   16.2160  -10.7940 O.3   189  COA189     -0.2703
     28  P2A       18.5190   17.6720  -11.1670 P.3   189  COA189      0.2188
     29  O4A       19.4980   18.1450  -10.1210 O.3   189  COA189     -0.4371
     30  O5A       19.0310   17.5840  -12.5840 O.2   189  COA189     -0.5170
     31  O6A       17.2840   18.6970  -11.1310 O.3   189  COA189     -0.3138
     32  CBP       16.4100   20.7210  -10.0230 C.3   189  COA189      0.0645
     33  CCP       16.8710   19.2760   -9.8960 C.3   189  COA189      0.1519
     34  CDP       15.7200   20.9070   -8.6860 C.3   189  COA189      0.0056
     35  CEP       17.5970   21.6770  -10.0690 C.3   189  COA189      0.0056
     36  CAP       15.4920   20.9900  -11.2380 C.3   189  COA189      0.2312
     37  OAP       14.8050   19.8060  -11.6800 O.3   189  COA189     -0.2131
     38  C9P       14.5020   22.0890  -10.9480 C.2   189  COA189      0.2719
     39  O9P       13.3680   21.8930  -10.5200 O.2   189  COA189     -0.2706
     40  N8P       14.9680   23.3220  -11.1150 N.am  189  COA189     -0.2028
     41  C7P       14.2830   24.5820  -10.8690 C.3   189  COA189      0.1248
     42  C6P       14.9760   25.6470  -11.7120 C.3   189  COA189      0.1102
     43  C5P       14.1830   26.9280  -11.6340 C.2   189  COA189      0.2432
     44  O5P       13.1470   27.0090  -10.9920 O.2   189  COA189     -0.2733
     45  N4P       14.7020   27.9650  -12.2910 N.am  189  COA189     -0.2044
     46  C3P       14.1760   29.3240  -12.3860 C.3   189  COA189      0.1276
     47  C2P       15.1720   30.1570  -13.1900 C.3   189  COA189      0.0920
     48  S1P       16.7020   30.5320  -12.2850 S.3   189  COA189     -0.0802
@<TRIPOS>BOND
     1    47    46    1
     2    47    48    1
     3    25    24    2
     4    30    28    2
     5    46    45    1
     6    45    43   am
     7    26    24    1
     8    13    12    1
     9    24    23    1
    10    24    27    1
    11    42    43    1
    12    42    41    1
    13    37    36    1
    14    43    44    2
    15    12    14    1
    16    12    11    1
    17    36    38    1
    18    36    32    1
    19    28    31    1
    20    28    27    1
    21    28    29    1
    22    17    16    2
    23    31    33    1
    24    40    38   am
    25    40    41    1
    26    38    39    2
    27    23    22    1
    28    14    15    1
    29    14    20    1
    30     9     8    1
    31     9    10    1
    32     8     5    2
    33    15    16    1
    34    10    11    1
    35    10     4    1
    36    35    32    1
    37    32    33    1
    38    32    34    1
    39    11    21    1
    40     5     4    1
    41     5     6    1
    42    16    19    1
    43    16    18    1
    44     7     6    1
    45     4     3    2
    46    22    20    1
    47     6     1    2
    48    20    21    1
    49     3     2    1
    50     1     2    1
