@<TRIPOS>MOLECULE
3vbp_COA_A_1.pdb
 48 50 0 0 0
SMALL
GASTEIGER

@<TRIPOS>ATOM
      1  N1A        9.5560   18.6810   -9.3290 N.2   189  COA189      0.0021
      2  C2A        9.3670   17.3570   -9.1480 C.3   189  COA189      0.5254
      3  N3A       10.3220   16.4460   -9.4030 N.2   189  COA189     -0.0055
      4  C4A       11.5150   16.8860   -9.8790 C.2   189  COA189      0.3518
      5  C5A       11.7560   18.2350  -10.0990 C.2   189  COA189      0.2526
      6  C6A       10.7430   19.1410   -9.7920 C.2   189  COA189      0.4393
      7  N6A       10.8870   20.4790   -9.9860 N.pl3 189  COA189      0.2180
      8  N7A       13.0190   18.3350  -10.5750 N.2   189  COA189     -0.2095
      9  C8A       13.5690   17.1050  -10.6300 C.3   189  COA189      0.3377
     10  N9A       12.6280   16.2410  -10.2120 N.pl3 189  COA189     -0.1439
     11  C1B       12.7360   14.7770  -10.0570 C.3   189  COA189      0.3185
     12  C2B       13.0220   14.0010  -11.3230 C.3   189  COA189      0.2543
     13  O2B       11.8320   13.4430  -11.8910 O.3   189  COA189     -0.2131
     14  C3B       13.8960   12.8810  -10.7800 C.3   189  COA189      0.1928
     15  O3B       12.9470   11.9440  -10.2820 O.3   189  COA189     -0.2673
     16  P3B       13.2250   10.3880   -9.9340 P.3   189  COA189      0.5327
     17  O7A       11.8550    9.9220   -9.4830 O.3   189  COA189     -0.1145
     18  O8A       14.2280   10.3480   -8.8100 O.3   189  COA189     -0.1145
     19  O9A       13.7240    9.9580  -11.2910 O.2   189  COA189     -0.2224
     20  C4B       14.6420   13.4730   -9.5860 C.3   189  COA189      0.1795
     21  O4B       13.8530   14.5840   -9.1800 O.3   189  COA189     -0.3136
     22  C5B       16.0930   13.8630   -9.8730 C.3   189  COA189      0.1812
     23  O5B       16.0630   14.8740  -10.8840 O.3   189  COA189     -0.3112
     24  P1A       17.2950   15.3860  -11.8080 P.3   189  COA189      0.2189
     25  O1A       16.7770   16.2900  -12.9070 O.2   189  COA189     -0.5170
     26  O2A       18.0440   14.1010  -12.1320 O.3   189  COA189     -0.4371
     27  O3A       18.2170   16.2980  -10.8370 O.3   189  COA189     -0.2703
     28  P2A       18.6790   17.8370  -11.0420 P.3   189  COA189      0.2188
     29  O4A       19.5530   18.1780   -9.8450 O.3   189  COA189     -0.4371
     30  O5A       19.2770   18.0620  -12.4090 O.2   189  COA189     -0.5170
     31  O6A       17.2480   18.5630  -10.8890 O.3   189  COA189     -0.3138
     32  CBP       16.3690   20.6710   -9.8980 C.3   189  COA189      0.0645
     33  CCP       16.6510   19.1710   -9.7420 C.3   189  COA189      0.1519
     34  CDP       15.6260   20.9990   -8.6070 C.3   189  COA189      0.0056
     35  CEP       17.6730   21.4670   -9.8260 C.3   189  COA189      0.0056
     36  CAP       15.5690   21.1270  -11.1530 C.3   189  COA189      0.2312
     37  OAP       14.9480   20.0420  -11.8880 O.3   189  COA189     -0.2131
     38  C9P       14.6730   22.3370  -10.9170 C.2   189  COA189      0.2719
     39  O9P       13.5250   22.3290  -10.4550 O.2   189  COA189     -0.2706
     40  N8P       15.2350   23.5170  -11.2080 N.am  189  COA189     -0.2028
     41  C7P       14.5550   24.7970  -11.0040 C.3   189  COA189      0.1248
     42  C6P       15.2090   25.9440  -11.7560 C.3   189  COA189      0.1102
     43  C5P       14.4110   27.2280  -11.6490 C.2   189  COA189      0.2432
     44  O5P       13.2780   27.2480  -11.1750 O.2   189  COA189     -0.2733
     45  N4P       15.0840   28.2680  -12.1620 N.am  189  COA189     -0.2044
     46  C3P       14.7790   29.6950  -12.2460 C.3   189  COA189      0.1276
     47  C2P       15.7690   30.3910  -13.1830 C.3   189  COA189      0.0920
     48  S1P       17.3670   30.7460  -12.4100 S.3   189  COA189     -0.0802
@<TRIPOS>BOND
     1    47    48    1
     2    47    46    1
     3    25    24    2
     4    30    28    2
     5    46    45    1
     6    45    43   am
     7    26    24    1
     8    13    12    1
     9    37    36    1
    10    24    23    1
    11    24    27    1
    12    42    43    1
    13    42    41    1
    14    43    44    2
    15    12    14    1
    16    12    11    1
    17    19    16    2
    18    40    41    1
    19    40    38   am
    20    36    38    1
    21    36    32    1
    22    28    31    1
    23    28    27    1
    24    28    29    1
    25    38    39    2
    26    31    33    1
    27    23    22    1
    28    14    15    1
    29    14    20    1
    30     9     8    1
    31     9    10    1
    32     8     5    2
    33    15    16    1
    34    10    11    1
    35    10     4    1
    36     5     4    1
    37     5     6    1
    38    11    21    1
    39     7     6    1
    40    16    17    1
    41    16    18    1
    42    32    35    1
    43    32    33    1
    44    32    34    1
    45     4     3    2
    46    22    20    1
    47     6     1    2
    48    20    21    1
    49     3     2    1
    50     1     2    1
