@<TRIPOS>MOLECULE
3vbp_TYD_A_1.pdb
 25 26 0 0 0
SMALL
GASTEIGER

@<TRIPOS>ATOM
      1  PA       -10.2830   36.8910  -24.5310 P.3   301  TYD301      0.2231
      2  O1A       -8.8400   36.4440  -24.5620 O.2   301  TYD301     -0.5169
      3  O2A      -10.9280   36.7340  -23.1770 O.3   301  TYD301     -0.4370
      4  O3A      -11.1710   36.0540  -25.6120 O.3   301  TYD301     -0.2261
      5  PB       -11.4180   36.1580  -27.2180 P.3   301  TYD301      0.5373
      6  O1B      -10.4600   35.1550  -27.8300 O.2   301  TYD301     -0.2221
      7  O2B      -12.8790   35.7990  -27.4180 O.3   301  TYD301     -0.1143
      8  O3B      -11.0990   37.5610  -27.6960 O.3   301  TYD301     -0.1143
      9  O5'      -10.2910   38.4430  -24.9880 O.3   301  TYD301     -0.3111
     10  C5'      -11.0720   39.4900  -24.4070 C.3   301  TYD301      0.1812
     11  C4'      -10.7710   40.8800  -24.9700 C.3   301  TYD301      0.1773
     12  O4'      -10.1160   41.6610  -23.9670 O.3   301  TYD301     -0.3339
     13  C3'       -9.8690   40.8790  -26.2010 C.3   301  TYD301      0.1857
     14  O3'      -10.5750   41.1410  -27.4190 O.3   301  TYD301     -0.2203
     15  C2'       -8.8090   41.9300  -25.9000 C.3   301  TYD301      0.0874
     16  C1'       -8.8790   42.2230  -24.4010 C.3   301  TYD301      0.2090
     17  N1        -7.6970   41.7310  -23.6630 N.am  301  TYD301     -0.1794
     18  C2        -6.5640   42.4700  -23.5930 C.1   301  TYD301      0.2844
     19  O2        -6.4620   43.6020  -24.1300 O.2   301  TYD301     -0.1918
     20  N3        -5.4660   42.0190  -22.9320 N.2   301  TYD301     -0.2455
     21  C4        -5.4560   40.8170  -22.3100 C.1   301  TYD301      0.2134
     22  O4        -4.4230   40.4570  -21.7050 O.2   301  TYD301     -0.2088
     23  C5        -6.5990   40.0290  -22.3610 C.2   301  TYD301      0.0891
     24  C5M       -6.6380   38.6790  -21.6830 C.3   301  TYD301      0.0462
     25  C6        -7.7080   40.5220  -23.0600 C.2   301  TYD301      0.0877
@<TRIPOS>BOND
     1     6     5    2
     2     8     5    1
     3    14    13    1
     4     7     5    1
     5     5     4    1
     6    13    15    1
     7    13    11    1
     8    15    16    1
     9     4     1    1
    10     9     1    1
    11     9    10    1
    12    11    10    1
    13    11    12    1
    14     2     1    2
    15     1     3    1
    16    16    12    1
    17    16    17    1
    18    19    18    2
    19    17    18   am
    20    17    25    1
    21    18    20    2
    22    25    23    2
    23    20    21    2
    24    23    21    1
    25    23    24    1
    26    21    22    2
