@<TRIPOS>MOLECULE
3vbq_0F5_A_1.pdb
 28 31 0 0 0
SMALL
GASTEIGER

@<TRIPOS>ATOM
      1  C10      -23.7340  -36.8950    2.6490 C.ar  555  0F5555      0.0000
      2  C13      -23.3650  -34.4490    2.5990 C.2   555  0F5555      0.0200
      3  C15      -22.6470  -32.1290    2.8120 C.1   555  0F5555      0.2223
      4  C17      -21.4800  -31.3880    1.0980 C.1   555  0F5555      0.2492
      5  C21      -22.4730  -33.5340   -3.4880 C.3   555  0F5555      0.0949
      6  C22      -21.2850  -32.7990   -4.1430 C.3   555  0F5555      0.0231
      7  C24      -22.4380  -30.6290   -3.2610 C.3   555  0F5555      0.0919
      8  C26      -23.7140  -32.6230   -3.5420 C.3   555  0F5555      0.0231
      9  O19      -23.2080  -31.9970    3.9200 O.2   555  0F5555     -0.2080
     10  N16      -22.0150  -31.0440    2.2900 N.2   555  0F5555     -0.2516
     11  O20      -20.8640  -30.6360    0.3570 O.2   555  0F5555     -0.2014
     12  S18      -21.8560  -33.0740    0.6120 S.3   555  0F5555      0.0317
     13  C14      -22.6580  -33.3370    2.0960 C.2   555  0F5555      0.1364
     14  C12      -23.4990  -35.7170    1.8790 C.ar  555  0F5555      0.0014
     15  C11      -23.4200  -35.7650    0.4940 C.ar  555  0F5555      0.0026
     16  C08      -23.9150  -38.0910    1.9400 C.ar  555  0F5555      0.0001
     17  C09      -23.8370  -38.1350    0.5240 C.ar  555  0F5555      0.0026
     18  C07      -23.5760  -36.9990   -0.2370 C.ar  555  0F5555      0.0312
     19  C03      -23.5750  -36.9990   -1.6770 C.2   555  0F5555      0.1513
     20  N02      -23.2190  -35.8760   -2.3550 N.2   555  0F5555     -0.3864
     21  C01      -23.8960  -38.1150   -2.4630 C.2   555  0F5555      0.1257
     22  N05      -23.8870  -38.0650   -3.8300 N.2   555  0F5555     -0.2571
     23  C06      -23.5090  -36.9050   -4.5460 C.3   555  0F5555      0.2013
     24  C04      -23.1810  -35.8300   -3.7130 C.2   555  0F5555      0.2006
     25  N28      -22.8310  -34.7090   -4.2780 N.pl3 555  0F5555     -0.2136
     26  C23      -21.1210  -31.4780   -3.3340 C.3   555  0F5555      0.0208
     27  N27      -22.3060  -29.3900   -2.4670 N.3   555  0F5555     -0.1329
     28  C25      -23.3730  -31.4830   -2.5650 C.3   555  0F5555      0.0208
@<TRIPOS>BOND
     1    23    22    1
     2    23    24    1
     3    25    24    1
     4    25     5    1
     5     6     5    1
     6     6    26    1
     7    22    21    2
     8    24    20    2
     9     8     5    1
    10     8    28    1
    11    26     7    1
    12     7    28    1
    13     7    27    1
    14    21    19    1
    15    20    19    2
    16    19    18    1
    17    18    15   ar
    18    18    17   ar
    19    11     4    2
    20    15    14   ar
    21    17    16   ar
    22    12     4    1
    23    12    13    1
    24     4    10    2
    25    14     2    1
    26    14     1   ar
    27    16     1   ar
    28    13     2    2
    29    13     3    1
    30    10     3    2
    31     3     9    2
