@<TRIPOS>MOLECULE
3vbt_0F9_A_1.pdb
 13 14 0 0 0
SMALL
GASTEIGER

@<TRIPOS>ATOM
      1  CAC      -18.5000  -35.9010    2.0470 C.3     1  0F91        0.0965
      2  CAD      -17.6200  -34.9580    2.4900 C.2     1  0F91        0.1021
      3  NAE      -16.8480  -34.5570    1.4570 N.2     1  0F91       -0.1510
      4  NAF      -17.3270  -35.2770    0.2840 N.2     1  0F91       -0.1522
      5  CAB      -18.3040  -36.0900    0.7120 C.2     1  0F91        0.0896
      6  CAA      -18.9620  -36.9750   -0.0920 C.ar    1  0F91        0.0554
      7  CAK      -19.9380  -37.8100    0.4360 C.ar    1  0F91        0.0158
      8  CAJ      -20.6230  -38.7260   -0.3460 C.ar    1  0F91        0.0579
      9 CL1       -21.7860  -39.7800    0.4390 Cl      1  0F91       -0.0822
     10  CAI      -20.3630  -38.8600   -1.6910 C.ar    1  0F91        0.0147
     11  CAH      -19.3870  -38.0080   -2.2120 C.ar    1  0F91        0.0429
     12  CAG      -18.6800  -37.1050   -1.4400 C.ar    1  0F91        0.1969
     13  OAM      -17.7180  -36.2350   -1.9770 O.3     1  0F91       -0.2865
@<TRIPOS>BOND
     1    11    10   ar
     2    11    12   ar
     3    13    12    1
     4    10     8   ar
     5    12     6   ar
     6     8     7   ar
     7     8     9    1
     8     6     7   ar
     9     6     5    1
    10     4     5    2
    11     4     3    1
    12     5     1    1
    13     3     2    2
    14     1     2    1
