@<TRIPOS>MOLECULE
3vbv_0FK_A_1.pdb
 14 15 0 0 0
SMALL
GASTEIGER

@<TRIPOS>ATOM
      1  CAG       22.9780   34.2020    3.2010 C.3     1  0FK1        0.0899
      2  CAI       23.1880   35.5360    2.7380 C.2     1  0FK1       -0.0159
      3  CAH       22.9520   35.8130    1.3880 C.ar    1  0FK1        0.0289
      4  CAN       23.2350   37.1210    0.9450 C.ar    1  0FK1        0.0024
      5  CAL       23.0140   37.4260   -0.4040 C.ar    1  0FK1        0.0034
      6  CAM       22.5770   36.4410   -1.3450 C.ar    1  0FK1        0.0447
      7  CAE       22.3240   35.1640   -0.8460 C.ar    1  0FK1        0.2249
      8  OAK       21.8780   34.2070   -1.7450 O.3     1  0FK1       -0.2838
      9  CAB       22.5210   34.8030    0.5250 C.ar    1  0FK1        0.1695
     10  NAA       22.2800   33.5110    1.0240 N.2     1  0FK1       -0.3980
     11  CAC       22.4810   33.1810    2.3390 C.2     1  0FK1        0.1697
     12  CAD       22.3070   31.8460    2.7830 C.2     1  0FK1        0.3100
     13  OAF       21.7370   31.1420    1.9420 O.2     1  0FK1       -0.2642
     14  NAJ       23.0390   31.3140    3.9720 N.am    1  0FK1       -0.0817
@<TRIPOS>BOND
     1     8     7    1
     2     6     7   ar
     3     6     5   ar
     4     7     9   ar
     5     5     4   ar
     6     9    10    2
     7     9     3   ar
     8     4     3   ar
     9    10    11    2
    10     3     2    2
    11    13    12    2
    12    11    12    1
    13    11     1    1
    14     2     1    1
    15    12    14   am
