@<TRIPOS>MOLECULE
3vbw_0FN_A_1.pdb
 13 14 0 0 0
SMALL
GASTEIGER

@<TRIPOS>ATOM
      1  OAH       23.1710   33.5730    3.3930 O.2     1  0FN1       -0.2898
      2  CAC       22.7250   33.9470    2.2880 C.2     1  0FN1        0.1944
      3  CAD       22.9040   35.1720    1.6910 C.ar    1  0FN1        0.0390
      4  CAK       23.3820   36.3300    2.1930 C.ar    1  0FN1        0.0030
      5  CAL       23.4930   37.4620    1.3670 C.ar    1  0FN1        0.0001
      6  CAM       23.0680   37.3740    0.0280 C.ar    1  0FN1        0.0001
      7  CAJ       22.5430   36.1410   -0.4340 C.ar    1  0FN1        0.0030
      8  CAE       22.4930   35.0860    0.3810 C.ar    1  0FN1        0.0390
      9  CAB       22.0290   33.8290    0.1720 C.2     1  0FN1        0.1944
     10  OAI       21.6140   33.3570   -0.9000 O.2     1  0FN1       -0.2898
     11  CAA       21.8460   33.2340    1.4620 C.3     1  0FN1        0.2137
     12  CAF       21.7410   31.7360    1.5120 C.1     1  0FN1        0.0880
     13  NAG       21.5520   30.5400    1.5470 N.1     1  0FN1       -0.1950
@<TRIPOS>BOND
     1    10     9    2
     2     7     6   ar
     3     7     8   ar
     4     6     5   ar
     5     9     8    1
     6     9    11    1
     7     8     3   ar
     8     5     4   ar
     9    11    12    1
    10    11     2    1
    11    12    13    3
    12     3     4   ar
    13     3     2    1
    14     2     1    2
