@<TRIPOS>MOLECULE
3vbx_0FO_A_1.pdb
 13 14 0 0 0
SMALL
GASTEIGER

@<TRIPOS>ATOM
      1  CAD      -17.4290  -35.1730   -0.6590 C.ar    1  0FO1        0.1243
      2  CAE      -17.3640  -35.5540   -2.0070 C.ar    1  0FO1        0.3492
      3  OAG      -16.6070  -34.9580   -2.7940 O.2     1  0FO1       -0.2444
      4  OAF      -18.1310  -36.5620   -2.5000 O.2     1  0FO1       -0.4209
      5  CAA      -19.0350  -37.2650   -1.7610 C.ar    1  0FO1        0.1518
      6  CAL      -19.7430  -38.2440   -2.4320 C.ar    1  0FO1        0.0382
      7  CAK      -20.6020  -39.0330   -1.7080 C.ar    1  0FO1        0.0098
      8  CAJ      -20.7230  -38.7150   -0.3570 C.ar    1  0FO1        0.0349
      9 BR1       -21.7870  -39.7430    0.6110 Br      1  0FO1       -0.0490
     10  CAI      -19.9720  -37.7520    0.3340 C.ar    1  0FO1        0.0129
     11  CAB      -19.0740  -37.0030   -0.3970 C.ar    1  0FO1        0.0743
     12  CAC      -18.2680  -35.9560    0.1260 C.ar    1  0FO1        0.2051
     13  OAH      -18.3460  -35.6520    1.3960 O.3     1  0FO1       -0.2862
@<TRIPOS>BOND
     1     3     2    2
     2     4     2   ar
     3     4     5   ar
     4     6     5   ar
     5     6     7   ar
     6     2     1   ar
     7     5    11   ar
     8     7     8   ar
     9     1    12   ar
    10    11    12   ar
    11    11    10   ar
    12     8    10   ar
    13     8     9    1
    14    12    13    1
