@<TRIPOS>MOLECULE
3vby_0FR_A_1.pdb
 16 18 0 0 0
SMALL
GASTEIGER

@<TRIPOS>ATOM
      1  CAI       23.3150   37.4160   -0.4510 C.2     1  0FR1        0.0149
      2  CAH       23.7980   38.0080    0.7360 C.2     1  0FR1       -0.0199
      3  CAG       23.7920   37.2510    1.9390 C.3     1  0FR1        0.0521
      4  CAF       23.3160   35.9400    1.8280 C.2     1  0FR1       -0.0198
      5  CAE       22.9110   35.3980    0.6860 C.2     1  0FR1        0.0184
      6  CAD       22.8760   36.1430   -0.4620 C.2     1  0FR1        0.0808
      7  NAC       22.4340   35.3380   -1.4750 N.2     1  0FR1       -0.2437
      8  CAB       22.1260   34.1030   -0.9470 C.2     1  0FR1        0.1021
      9  CAA       22.4320   34.1500    0.3820 C.2     1  0FR1        0.0623
     10  CAJ       22.3170   33.1010    1.2610 C.2     1  0FR1        0.2313
     11  OAP       22.5970   33.1890    2.4790 O.2     1  0FR1       -0.2833
     12  CAK       21.9290   31.9020    0.7690 C.ar    1  0FR1        0.1842
     13  OAL       21.4780   30.8270    1.5990 O.2     1  0FR1       -0.4472
     14  CAM       21.1770   29.8260    0.6640 C.ar    1  0FR1        0.1798
     15  CAN       21.4200   30.3130   -0.5610 C.ar    1  0FR1        0.0439
     16  CAO       21.8510   31.5640   -0.5090 C.ar    1  0FR1        0.0441
@<TRIPOS>BOND
     1     7     8    1
     2     7     6    2
     3     8     9    2
     4    15    16   ar
     5    15    14   ar
     6    16    12   ar
     7     6     1    1
     8     6     5    1
     9     1     2    2
    10     9     5    1
    11     9    10    1
    12    14    13   ar
    13     5     4    2
    14     2     3    1
    15    12    10    1
    16    12    13   ar
    17    10    11    2
    18     4     3    1
