@<TRIPOS>MOLECULE
3vc1_GST_A_1.pdb
 19 18 0 0 0
SMALL
GASTEIGER

@<TRIPOS>ATOM
      1  PA        71.6280   29.4120   57.7480 P.3   303  GST303      0.5394
      2  O1A       72.2790   28.2460   58.4380 O.3   303  GST303     -0.1143
      3  O2A       72.2210   29.7030   56.4070 O.2   303  GST303     -0.2220
      4  O3A       70.1230   29.3510   57.7130 O.3   303  GST303     -0.1143
      5  O1B       71.8980   30.6720   58.6480 O.3   303  GST303     -0.1955
      6  PB        73.1550   31.6400   58.7490 P.3   303  GST303      0.4273
      7  O2B       73.9920   31.7640   57.5110 O.2   303  GST303     -0.2431
      8  O3B       73.8210   31.4260   60.0430 O.3   303  GST303     -0.1309
      9  S1        72.0710   33.3860   58.8110 S.3   303  GST303     -0.0237
     10  C1        71.1920   33.0550   60.3200 C.3   303  GST303      0.0942
     11  C2        69.9890   33.9420   60.5890 C.2   303  GST303     -0.0224
     12  C3        70.0400   34.6390   61.7160 C.2   303  GST303     -0.0470
     13  C10       71.2880   34.4760   62.5340 C.3   303  GST303      0.0261
     14  C4        68.9470   35.5800   62.1880 C.3   303  GST303      0.0264
     15  C5        67.7410   35.7220   61.2380 C.3   303  GST303      0.0297
     16  C6        68.0450   36.5000   59.9570 C.2   303  GST303     -0.0342
     17  C7        67.1360   37.3410   59.4220 C.2   303  GST303     -0.0478
     18  C9        65.8370   37.5210   60.1330 C.3   303  GST303      0.0260
     19  C8        67.3590   38.0950   58.1520 C.3   303  GST303      0.0260
@<TRIPOS>BOND
     1     3     1    2
     2     7     6    2
     3     4     1    1
     4     1     2    1
     5     1     5    1
     6    19    17    1
     7     5     6    1
     8     6     9    1
     9     6     8    1
    10     9    10    1
    11    17    16    2
    12    17    18    1
    13    16    15    1
    14    10    11    1
    15    11    12    2
    16    15    14    1
    17    12    14    1
    18    12    13    1
