@<TRIPOS>MOLECULE
3vc1_SAH_A_1.pdb
 26 28 0 0 0
SMALL
GASTEIGER

@<TRIPOS>ATOM
      1  N         77.5410   39.7800   60.0440 N.3   302  SAH302     -0.1208
      2  CA        77.9460   38.3500   59.8330 C.3   302  SAH302      0.1952
      3  CB        77.3350   37.4300   60.9030 C.3   302  SAH302      0.0422
      4  CG        75.8080   37.3520   60.9520 C.3   302  SAH302      0.0597
      5  SD        75.4000   36.0610   62.1400 S.3   302  SAH302     -0.1375
      6  C         77.7150   37.8950   58.4180 C.2   302  SAH302      0.3819
      7  O         76.9720   38.5930   57.6830 O.co2 302  SAH302     -0.2441
      8  OXT       78.2880   36.8540   58.0060 O.co2 302  SAH302     -0.2441
      9  C5'       74.8950   36.9300   63.6120 C.3   302  SAH302      0.0899
     10  C4'       76.1530   37.4170   64.3890 C.3   302  SAH302      0.1630
     11  O4'       75.8510   38.3860   65.4080 O.3   302  SAH302     -0.3153
     12  C3'       76.8920   36.2930   65.1530 C.3   302  SAH302      0.2168
     13  O3'       78.2920   36.3800   64.8600 O.3   302  SAH302     -0.2175
     14  C2'       76.7770   36.6800   66.6370 C.3   302  SAH302      0.2569
     15  O2'       77.9300   36.3120   67.4050 O.3   302  SAH302     -0.2130
     16  C1'       76.7050   38.1990   66.5190 C.3   302  SAH302      0.3185
     17  N9        76.0930   38.8640   67.7020 N.pl3 302  SAH302     -0.1439
     18  C8        74.8310   38.7480   68.1810 C.3   302  SAH302      0.3377
     19  N7        74.6710   39.5440   69.2670 N.2   302  SAH302     -0.2095
     20  C5        75.8480   40.1840   69.4540 C.2   302  SAH302      0.2526
     21  C6        76.3990   41.1490   70.3870 C.2   302  SAH302      0.4393
     22  N6        75.5730   41.6640   71.4690 N.pl3 302  SAH302      0.2180
     23  N1        77.6810   41.5730   70.2840 N.2   302  SAH302      0.0021
     24  C2        78.6110   41.1390   69.2630 C.3   302  SAH302      0.5254
     25  N3        78.0310   40.1910   68.3670 N.2   302  SAH302     -0.0055
     26  C4        76.7660   39.7340   68.4320 C.2   302  SAH302      0.3518
@<TRIPOS>BOND
     1     7     6   ar
     2     8     6   ar
     3     6     2    1
     4     2     1    1
     5     2     3    1
     6     3     4    1
     7     4     5    1
     8     5     9    1
     9     9    10    1
    10    10    12    1
    11    10    11    1
    12    13    12    1
    13    12    14    1
    14    11    16    1
    15    16    14    1
    16    16    17    1
    17    14    15    1
    18    17    18    1
    19    17    26    1
    20    18    19    1
    21    25    26    2
    22    25    24    1
    23    26    20    1
    24    24    23    1
    25    19    20    2
    26    20    21    1
    27    23    21    2
    28    21    22    1
