@<TRIPOS>MOLECULE
3vc2_GPP_A_1.pdb
 19 18 0 0 0
SMALL
GASTEIGER

@<TRIPOS>ATOM
      1  C1        73.4940   33.4410   60.3050 C.3   303  GPP303      0.1491
      2  O1        73.5920   32.9060   58.9730 O.3   303  GPP303     -0.3138
      3  C2        72.4820   34.5870   60.4770 C.3   303  GPP303      0.0325
      4  C3        71.7880   34.4840   61.8410 C.3   303  GPP303      0.0025
      5  C4        72.1630   33.3150   62.7380 C.3   303  GPP303      0.0001
      6  C5        70.7210   35.4540   62.3570 C.3   303  GPP303      0.0001
      7  C6        69.4490   35.5130   61.5040 C.3   303  GPP303      0.0000
      8  C7        69.7430   36.0550   60.1150 C.3   303  GPP303      0.0000
      9  C8        68.5980   36.9500   59.6160 C.3   303  GPP303      0.0000
     10  C9        67.3720   37.1700   60.5120 C.3   303  GPP303      0.0000
     11  C10       68.6690   37.6320   58.2600 C.3   303  GPP303      0.0000
     12  PA        74.3730   31.4720   58.9000 P.3   303  GPP303      0.2230
     13  O1A       75.2950   31.3710   57.7460 O.2   303  GPP303     -0.5169
     14  O2A       75.2140   31.2820   60.2780 O.3   303  GPP303     -0.4370
     15  O3A       73.2180   30.3150   59.0370 O.3   303  GPP303     -0.2261
     16  PB        72.6450   29.3780   57.8820 P.3   303  GPP303      0.5373
     17  O1B       72.9390   29.7830   56.4820 O.2   303  GPP303     -0.2221
     18  O2B       73.3810   27.9470   58.1420 O.3   303  GPP303     -0.1143
     19  O3B       71.0840   29.1490   58.1290 O.3   303  GPP303     -0.1143
@<TRIPOS>BOND
     1    17    16    2
     2    13    12    2
     3    16    19    1
     4    16    18    1
     5    16    15    1
     6    11     9    1
     7    12     2    1
     8    12    15    1
     9    12    14    1
    10     2     1    1
    11     9     8    1
    12     9    10    1
    13     8     7    1
    14     1     3    1
    15     3     4    1
    16     7     6    1
    17     4     6    1
    18     4     5    1
