@<TRIPOS>MOLECULE
3vc2_SAH_A_1.pdb
 26 28 0 0 0
SMALL
GASTEIGER

@<TRIPOS>ATOM
      1  N         78.8290   39.3600   60.0990 N.3   302  SAH302     -0.1208
      2  CA        79.3740   38.0070   59.7910 C.3   302  SAH302      0.1952
      3  CB        78.8160   36.9520   60.7640 C.3   302  SAH302      0.0422
      4  CG        77.2920   36.9400   60.9070 C.3   302  SAH302      0.0597
      5  SD        76.8460   35.6460   62.0350 S.3   302  SAH302     -0.1375
      6  C         79.1300   37.6520   58.3460 C.2   302  SAH302      0.3819
      7  O         78.3750   38.3850   57.6690 O.co2 302  SAH302     -0.2441
      8  OXT       79.7090   36.6600   57.8540 O.co2 302  SAH302     -0.2441
      9  C5'       76.3830   36.4620   63.5390 C.3   302  SAH302      0.0899
     10  C4'       77.6290   36.9760   64.2560 C.3   302  SAH302      0.1630
     11  O4'       77.2950   38.0070   65.1940 O.3   302  SAH302     -0.3153
     12  C3'       78.4030   35.9160   65.0460 C.3   302  SAH302      0.2168
     13  O3'       79.7960   36.0770   64.7560 O.3   302  SAH302     -0.2175
     14  C2'       78.1960   36.3290   66.4880 C.3   302  SAH302      0.2569
     15  O2'       79.2920   36.0000   67.3410 O.3   302  SAH302     -0.2130
     16  C1'       78.0960   37.8430   66.3560 C.3   302  SAH302      0.3185
     17  N9        77.5320   38.5060   67.5530 N.pl3 302  SAH302     -0.1439
     18  C8        76.2970   38.3610   68.0610 C.3   302  SAH302      0.3377
     19  N7        76.1470   39.1310   69.1680 N.2   302  SAH302     -0.2095
     20  C5        77.3000   39.7890   69.3690 C.2   302  SAH302      0.2526
     21  C6        77.7910   40.7530   70.3620 C.2   302  SAH302      0.4393
     22  N6        76.9140   41.2120   71.4620 N.pl3 302  SAH302      0.2180
     23  N1        79.0540   41.2000   70.2560 N.2   302  SAH302      0.0021
     24  C2        79.9970   40.8190   69.2070 C.3   302  SAH302      0.5254
     25  N3        79.4700   39.8710   68.2420 N.2   302  SAH302     -0.0055
     26  C4        78.2140   39.3740   68.3050 C.2   302  SAH302      0.3518
@<TRIPOS>BOND
     1     7     6   ar
     2     8     6   ar
     3     6     2    1
     4     2     1    1
     5     2     3    1
     6     3     4    1
     7     4     5    1
     8     5     9    1
     9     9    10    1
    10    10    12    1
    11    10    11    1
    12    13    12    1
    13    12    14    1
    14    11    16    1
    15    16    14    1
    16    16    17    1
    17    14    15    1
    18    17    18    1
    19    17    26    1
    20    18    19    1
    21    25    26    2
    22    25    24    1
    23    26    20    1
    24    19    20    2
    25    24    23    1
    26    20    21    1
    27    23    21    2
    28    21    22    1
