@<TRIPOS>MOLECULE
3vc3_C6P_A_1.pdb
 22 22 0 0 0
SMALL
GASTEIGER

@<TRIPOS>ATOM
      1  N        -25.1820   50.3270  -29.3990 N.3   501  C6P501     -0.2027
      2  C        -25.1200   52.4990  -28.5050 C.2   501  C6P501      0.3812
      3  O        -26.3740   52.5300  -28.5850 O.co2 501  C6P501     -0.2441
      4  P        -22.6230   46.0490  -27.9780 P.3   501  C6P501      0.5329
      5  OP3      -22.5730   45.3340  -26.6470 O.3   501  C6P501     -0.1145
      6  OP1      -22.3140   47.5080  -27.7820 O.3   501  C6P501     -0.1145
      7  OP2      -21.6240   45.4710  -28.9520 O.2   501  C6P501     -0.2224
      8  OP4      -24.0740   45.8840  -28.5230 O.3   501  C6P501     -0.2653
      9  C5M      -24.3470   46.2580  -29.8000 C.3   501  C6P501      0.1816
     10  C5       -25.6800   46.8150  -30.1830 C.ar  501  C6P501      0.0275
     11  C6       -26.5210   46.0680  -30.9920 C.ar  501  C6P501      0.0965
     12  N1       -27.7110   46.5290  -31.3840 N.ar  501  C6P501     -0.2452
     13  C2       -28.1440   47.7370  -31.0390 C.ar  501  C6P501      0.0978
     14  C2A      -29.4710   48.2220  -31.5150 C.3   501  C6P501      0.0555
     15  C3       -27.3480   48.5320  -30.2290 C.ar  501  C6P501      0.2062
     16  O3       -27.7910   49.7620  -29.8610 O.3   501  C6P501     -0.2856
     17  C4       -26.1010   48.0820  -29.7900 C.ar  501  C6P501      0.0353
     18  C4A      -25.2570   48.9710  -28.9350 C.3   501  C6P501      0.1186
     19  CA       -24.4240   51.1730  -28.5320 C.3   501  C6P501      0.1877
     20  OXT      -24.4820   53.5770  -28.3960 O.co2 501  C6P501     -0.2441
     21  CB       -23.0740   51.3380  -29.1240 C.3   501  C6P501      0.0975
     22  SG       -23.0410   51.6370  -30.8630 S.3   501  C6P501     -0.0800
@<TRIPOS>BOND
     1    14    13    1
     2    12    13   ar
     3    12    11   ar
     4    13    15   ar
     5    11    10   ar
     6    22    21    1
     7    15    16    1
     8    15    17   ar
     9    10     9    1
    10    10    17   ar
    11     9     8    1
    12    17    18    1
    13     1    18    1
    14     1    19    1
    15    21    19    1
    16     7     4    2
    17     3     2   ar
    18    19     2    1
    19     8     4    1
    20     2    20   ar
    21     4     6    1
    22     4     5    1
