@<TRIPOS>MOLECULE
3vc4_0FS_A_1.pdb
 18 19 0 0 0
SMALL
GASTEIGER

@<TRIPOS>ATOM
      1  C01       42.2280   -2.0760   -2.0700 C.ar    1  0FS1        0.0000
      2  C02       44.5320   -1.8050   -1.6630 C.ar    1  0FS1        0.0039
      3  C03       43.4780   -1.9430   -2.5870 C.ar    1  0FS1       -0.0001
      4  C04       44.2540   -1.8310   -0.2490 C.ar    1  0FS1        0.0714
      5  C05       41.9510   -2.1070   -0.5810 C.ar    1  0FS1        0.0012
      6  C06       42.9630   -1.9660    0.3070 C.ar    1  0FS1        0.0039
      7  C07       38.5640   -2.9710    1.0700 C.1     1  0FS1        0.2223
      8  N08       38.2140   -3.6680    2.4420 N.2     1  0FS1       -0.2516
      9  C09       39.4200   -3.9290    3.1110 C.1     1  0FS1        0.2492
     10  S10       40.6920   -3.3460    2.2420 S.3     1  0FS1        0.0317
     11  C11       40.0130   -2.7820    0.9750 C.2     1  0FS1        0.1364
     12  C12       45.3830   -1.6550    0.6810 C.3     1  0FS1        0.4186
     13  C13       40.5220   -2.2080   -0.1340 C.2     1  0FS1        0.0200
     14  O14       37.7210   -2.6470    0.2790 O.2     1  0FS1       -0.2080
     15  O15       39.4310   -4.4690    4.1850 O.2     1  0FS1       -0.2014
     16  F16       46.5030   -2.2360    0.2200 F       1  0FS1       -0.1659
     17  F17       45.0540   -2.0310    1.9390 F       1  0FS1       -0.1659
     18  F18       45.5470   -0.3380    0.5690 F       1  0FS1       -0.1659
@<TRIPOS>BOND
     1     3     1   ar
     2     3     2   ar
     3     1     5   ar
     4     2     4   ar
     5     5    13    1
     6     5     6   ar
     7     4     6   ar
     8     4    12    1
     9    13    11    2
    10    16    12    1
    11    14     7    2
    12    18    12    1
    13    12    17    1
    14    11     7    1
    15    11    10    1
    16     7     8    2
    17    10     9    1
    18     8     9    2
    19     9    15    2
