@<TRIPOS>MOLECULE
3vcy_UD1_A_1.pdb
 39 41 0 0 0
SMALL
GASTEIGER

@<TRIPOS>ATOM
      1  C1'       -8.8600   -5.9030   18.1770 C.3   501  UD1501      0.2633
      2  C2'       -9.3820   -6.6080   19.4160 C.3   501  UD1501      0.1845
      3  C3'       -8.5160   -6.2280   20.6300 C.3   501  UD1501      0.2094
      4  C4'       -7.0330   -6.4460   20.3520 C.3   501  UD1501      0.2136
      5  C5'       -6.5920   -5.7870   19.0410 C.3   501  UD1501      0.1834
      6  C6'       -5.1660   -6.1510   18.6430 C.3   501  UD1501      0.2142
      7  C7'      -11.8660   -6.8290   19.1220 C.2   501  UD1501      0.2420
      8  C8'      -13.1910   -6.2860   19.6070 C.3   501  UD1501      0.0964
      9  N2'      -10.7720   -6.2110   19.6200 N.am  501  UD1501     -0.1992
     10  O1'       -9.1240   -4.5000   18.2870 O.3   501  UD1501     -0.2864
     11  O3'       -8.9320   -7.0100   21.7680 O.3   501  UD1501     -0.2183
     12  O4'       -6.2720   -5.8330   21.3790 O.3   501  UD1501     -0.2176
     13  O5'       -7.4570   -6.1760   17.9820 O.3   501  UD1501     -0.3260
     14  O6'       -4.9960   -7.5690   18.6990 O.3   501  UD1501     -0.2176
     15  O7'      -11.8120   -7.7520   18.3160 O.2   501  UD1501     -0.2733
     16  N1        -5.4970    1.5470   14.0010 N.am  501  UD1501     -0.1766
     17  C2        -5.4220    2.7090   13.2060 C.1   501  UD1501      0.2845
     18  N3        -6.4060    2.9910   12.3510 N.2   501  UD1501     -0.2452
     19  C4        -7.4640    2.1790   12.2110 C.1   501  UD1501      0.2182
     20  C5        -7.5690    0.9970   12.9430 C.2   501  UD1501      0.1242
     21  C6        -6.5470    0.6930   13.8430 C.2   501  UD1501      0.0929
     22  O2        -4.4640    3.5020   13.2880 O.2   501  UD1501     -0.1918
     23  O4        -8.3610    2.5220   11.4170 O.2   501  UD1501     -0.2085
     24  C1B       -4.4030    1.2440   14.9380 C.3   501  UD1501      0.2401
     25  C2B       -4.8650    1.1560   16.3920 C.3   501  UD1501      0.2319
     26  O2'       -4.7840    2.4000   17.0680 O.3   501  UD1501     -0.2157
     27  C3B       -3.8820    0.1790   17.0150 C.3   501  UD1501      0.2158
     28  C4B       -3.4370   -0.6970   15.8710 C.3   501  UD1501      0.1799
     29  O4B       -3.8240   -0.0300   14.6690 O.3   501  UD1501     -0.3320
     30  O3B       -2.7180    0.8750   17.4510 O.3   501  UD1501     -0.2175
     31  C5B       -4.0790   -2.0750   15.9040 C.3   501  UD1501      0.1813
     32  O5B       -5.4840   -1.8630   15.9780 O.3   501  UD1501     -0.3112
     33  PA        -6.5280   -2.9800   15.4970 P.3   501  UD1501      0.2189
     34  O1A       -7.4570   -2.3810   14.4880 O.2   501  UD1501     -0.5170
     35  O2A       -5.7000   -4.2010   15.1190 O.3   501  UD1501     -0.4371
     36  O3A       -7.3280   -3.3760   16.8430 O.3   501  UD1501     -0.2703
     37  PB        -8.9300   -3.5210   17.0300 P.3   501  UD1501      0.2208
     38  O1B       -9.6560   -4.1910   15.9040 O.2   501  UD1501     -0.5170
     39  O2B       -9.3340   -2.0930   17.4120 O.3   501  UD1501     -0.4371
@<TRIPOS>BOND
     1    23    19    2
     2    19    18    2
     3    19    20    1
     4    18    17    2
     5    20    21    2
     6    17    22    2
     7    17    16   am
     8    21    16    1
     9    16    24    1
    10    34    33    2
    11    29    24    1
    12    29    28    1
    13    24    25    1
    14    35    33    1
    15    33    32    1
    16    33    36    1
    17    28    31    1
    18    28    27    1
    19    38    37    2
    20    31    32    1
    21    25    27    1
    22    25    26    1
    23    36    37    1
    24    27    30    1
    25    37    39    1
    26    37    10    1
    27    13     1    1
    28    13     5    1
    29     1    10    1
    30     1     2    1
    31    15     7    2
    32     6    14    1
    33     6     5    1
    34     5     4    1
    35     7     8    1
    36     7     9   am
    37     2     9    1
    38     2     3    1
    39     4     3    1
    40     4    12    1
    41     3    11    1
