@<TRIPOS>MOLECULE
3vd4_IPT_A_1.pdb
 15 15 0 0 0
SMALL
GASTEIGER

@<TRIPOS>ATOM
      1  C1       -14.6700  -27.5650  -26.3070 C.3   2001  IPT2001     0.1955
      2  C2       -13.3560  -27.3730  -25.5420 C.3   2001  IPT2001     0.2219
      3  O2       -13.4580  -26.1820  -24.7590 O.3   2001  IPT2001    -0.2167
      4  C3       -12.1600  -27.2510  -26.4940 C.3   2001  IPT2001     0.2181
      5  O3       -10.9280  -27.3470  -25.7590 O.3   2001  IPT2001    -0.2175
      6  C4       -12.1820  -28.3050  -27.6100 C.3   2001  IPT2001     0.2143
      7  O4       -11.8520  -29.5850  -27.0510 O.3   2001  IPT2001    -0.2176
      8  C5       -13.5710  -28.3350  -28.2620 C.3   2001  IPT2001     0.1820
      9  O5       -14.5280  -28.6260  -27.2490 O.3   2001  IPT2001    -0.3398
     10  C6       -13.7790  -29.3590  -29.3730 C.3   2001  IPT2001     0.2142
     11  O6       -12.6910  -29.3540  -30.3060 O.3   2001  IPT2001    -0.2176
     12  S1       -16.0120  -27.9980  -25.2420 S.3   2001  IPT2001    -0.1102
     13  C1'      -17.5270  -27.5400  -26.0430 C.3   2001  IPT2001     0.0500
     14  C2'      -17.7430  -28.3350  -27.3330 C.3   2001  IPT2001     0.0117
     15  C3'      -18.6920  -27.7510  -25.0820 C.3   2001  IPT2001     0.0117
@<TRIPOS>BOND
     1    11    10    1
     2    10     8    1
     3     8     6    1
     4     8     9    1
     5     6     7    1
     6     6     4    1
     7    14    13    1
     8     9     1    1
     9     4     5    1
    10     4     2    1
    11     1     2    1
    12     1    12    1
    13    13    12    1
    14    13    15    1
    15     2     3    1
