@<TRIPOS>MOLECULE
3vd7_GTZ_A_1.pdb
 14 15 0 0 0
SMALL
GASTEIGER

@<TRIPOS>ATOM
      1  C1        53.7990  -11.7540   27.8990 C.ar  2001  GTZ2001     0.1940
      2  C2        54.3390  -10.4040   27.5970 C.3   2001  GTZ2001     0.2439
      3  C3        53.3890   -9.2610   28.0160 C.3   2001  GTZ2001     0.2217
      4  C4        51.9060   -9.6500   28.1790 C.3   2001  GTZ2001     0.2100
      5  C5        51.6580  -10.9400   28.9850 C.3   2001  GTZ2001     0.1739
      6  C6        50.2060  -11.4160   28.8780 C.3   2001  GTZ2001     0.2091
      7  N1        54.3490  -12.9680   27.6340 N.ar  2001  GTZ2001    -0.1100
      8  O2        55.5800  -10.2690   28.2920 O.3   2001  GTZ2001    -0.2120
      9  O3        53.4930   -8.1820   27.0650 O.3   2001  GTZ2001    -0.2171
     10  O4        51.3400   -9.7820   26.8690 O.3   2001  GTZ2001    -0.2181
     11  N5        52.6340  -11.9600   28.5020 N.ar  2001  GTZ2001    -0.2113
     12  O6        49.4000  -10.6610   29.7900 O.3   2001  GTZ2001    -0.2182
     13  NA        52.3660  -13.3300   28.6620 N.ar  2001  GTZ2001    -0.0430
     14  NB        53.4790  -13.9790   28.0980 N.ar  2001  GTZ2001    -0.0229
@<TRIPOS>BOND
     1    10     4    1
     2     9     3    1
     3     2     1    1
     4     2     3    1
     5     2     8    1
     6     7     1   ar
     7     7    14   ar
     8     1    11   ar
     9     3     4    1
    10    14    13   ar
    11     4     5    1
    12    11    13   ar
    13    11     5    1
    14     6     5    1
    15     6    12    1
