@<TRIPOS>MOLECULE
3vd8_MTT_A_1.pdb
 45 48 0 0 0
SMALL
GASTEIGER

@<TRIPOS>ATOM
      1  O14       -8.2100   -5.0820  -10.3110 O.3   1205  MTT1205    -0.2176
      2  C14       -7.5760   -4.5800   -9.1430 C.3   1205  MTT1205     0.2144
      3  C13       -6.1330   -4.5880   -9.3260 C.3   1205  MTT1205     0.2198
      4  O13       -5.6880   -5.9420   -9.5730 O.3   1205  MTT1205    -0.2174
      5  C12       -5.4330   -4.0550   -8.1590 C.3   1205  MTT1205     0.2406
      6  O12       -4.0520   -4.0070   -8.4510 O.3   1205  MTT1205    -0.2149
      7  C11       -5.9000   -2.6690   -7.7820 C.3   1205  MTT1205     0.2695
      8  C15       -8.0900   -3.2000   -8.8400 C.3   1205  MTT1205     0.1835
      9  O15       -7.3530   -2.5230   -7.7670 O.3   1205  MTT1205    -0.3256
     10  C16       -9.5090   -3.3020   -8.4630 C.3   1205  MTT1205     0.2142
     11  O16      -10.2400   -2.1260   -8.3300 O.3   1205  MTT1205    -0.2176
     12  O24       -5.3130   -1.7420   -8.6050 O.3   1205  MTT1205    -0.3257
     13  C24       -5.4950   -0.3810   -8.1740 C.3   1205  MTT1205     0.1804
     14  C23       -4.3180    0.0780   -7.4170 C.3   1205  MTT1205     0.2167
     15  O23       -4.3420   -0.4840   -6.1020 O.3   1205  MTT1205    -0.2175
     16  C22       -4.1850    1.5300   -7.3020 C.3   1205  MTT1205     0.2404
     17  O22       -2.9330    1.8610   -6.7220 O.3   1205  MTT1205    -0.2149
     18  C21       -4.3170    2.2080   -8.6220 C.3   1205  MTT1205     0.2695
     19  C25       -5.7470    0.4390   -9.4160 C.3   1205  MTT1205     0.1803
     20  O25       -5.6120    1.8570   -9.2160 O.3   1205  MTT1205    -0.3257
     21  C26       -7.1090    0.1670   -9.9620 C.3   1205  MTT1205     0.2141
     22  O26       -7.5040    0.9500  -11.0290 O.3   1205  MTT1205    -0.2176
     23  O34       -3.3280    1.8190   -9.4820 O.3   1205  MTT1205    -0.3257
     24  C34       -2.6860    2.8970  -10.2430 C.3   1205  MTT1205     0.1804
     25  C33       -1.2600    2.9600   -9.8800 C.3   1205  MTT1205     0.2167
     26  O33       -1.0820    3.3130   -8.4930 O.3   1205  MTT1205    -0.2175
     27  C32       -0.5050    3.8940  -10.7270 C.3   1205  MTT1205     0.2404
     28  O32        0.8360    3.9370  -10.3360 O.3   1205  MTT1205    -0.2149
     29  C31       -0.6240    3.4710  -12.1670 C.3   1205  MTT1205     0.2695
     30  C35       -2.8550    2.6250  -11.7270 C.3   1205  MTT1205     0.1803
     31  O35       -2.0200    3.4880  -12.5650 O.3   1205  MTT1205    -0.3257
     32  C36       -4.2090    2.7760  -12.1470 C.3   1205  MTT1205     0.2141
     33  O36       -4.5240    2.3450  -13.3760 O.3   1205  MTT1205    -0.2176
     34  O44       -0.1280    2.2140  -12.3010 O.3   1205  MTT1205    -0.3257
     35  C44        0.6500    2.0140  -13.5040 C.3   1205  MTT1205     0.1804
     36  C43        2.0650    2.0340  -13.1790 C.3   1205  MTT1205     0.2168
     37  O43        2.4630    3.3830  -12.7490 O.3   1205  MTT1205    -0.2175
     38  C42        2.9280    1.6290  -14.2780 C.3   1205  MTT1205     0.2433
     39  O42        4.2710    1.4860  -13.7970 O.3   1205  MTT1205    -0.2148
     40  C41        2.4920    0.3420  -14.9260 C.3   1205  MTT1205     0.3023
     41  O41        2.7530   -0.7060  -14.1100 O.3   1205  MTT1205    -0.1869
     42  C45        0.2530    0.6930  -14.1320 C.3   1205  MTT1205     0.1804
     43  O45        1.0830    0.3360  -15.2510 O.3   1205  MTT1205    -0.3237
     44  C46       -1.1590    0.7280  -14.5820 C.3   1205  MTT1205     0.2141
     45  O46       -1.7580   -0.4950  -14.9210 O.3   1205  MTT1205    -0.2176
@<TRIPOS>BOND
     1    43    40    1
     2    43    42    1
     3    40    38    1
     4    40    41    1
     5    45    44    1
     6    44    42    1
     7    38    39    1
     8    38    36    1
     9    42    35    1
    10    35    36    1
    11    35    34    1
    12    33    32    1
    13    36    37    1
    14    31    29    1
    15    31    30    1
    16    34    29    1
    17    29    27    1
    18    32    30    1
    19    30    24    1
    20    22    21    1
    21    27    28    1
    22    27    25    1
    23     1     2    1
    24    24    25    1
    25    24    23    1
    26    21    19    1
    27    25    26    1
    28     4     3    1
    29    23    18    1
    30    19    20    1
    31    19    13    1
    32     3     2    1
    33     3     5    1
    34    20    18    1
    35     2     8    1
    36     8    10    1
    37     8     9    1
    38    18    16    1
    39    12    13    1
    40    12     7    1
    41    10    11    1
    42     6     5    1
    43    13    14    1
    44     5     7    1
    45     7     9    1
    46    14    16    1
    47    14    15    1
    48    16    17    1
