@<TRIPOS>MOLECULE
3vd9_IPT_A_1.pdb
 15 15 0 0 0
SMALL
GASTEIGER

@<TRIPOS>ATOM
      1  C1       -14.7000  -27.5380  -26.2770 C.3   2001  IPT2001     0.1955
      2  C2       -13.3870  -27.3710  -25.4970 C.3   2001  IPT2001     0.2219
      3  O2       -13.4640  -26.1970  -24.6960 O.3   2001  IPT2001    -0.2167
      4  C3       -12.1560  -27.2630  -26.4070 C.3   2001  IPT2001     0.2181
      5  O3       -10.9520  -27.3730  -25.6270 O.3   2001  IPT2001    -0.2175
      6  C4       -12.1740  -28.3170  -27.5130 C.3   2001  IPT2001     0.2143
      7  O4       -11.8920  -29.5990  -26.9410 O.3   2001  IPT2001    -0.2176
      8  C5       -13.5460  -28.3100  -28.1970 C.3   2001  IPT2001     0.1820
      9  O5       -14.5440  -28.5940  -27.2190 O.3   2001  IPT2001    -0.3398
     10  C6       -13.7240  -29.3100  -29.3320 C.3   2001  IPT2001     0.2142
     11  O6       -12.6340  -29.2570  -30.2580 O.3   2001  IPT2001    -0.2176
     12  S1       -16.0160  -27.9530  -25.1720 S.3   2001  IPT2001    -0.1102
     13  C1'      -17.5960  -28.2970  -25.9160 C.3   2001  IPT2001     0.0500
     14  C2'      -18.6380  -27.3410  -25.3540 C.3   2001  IPT2001     0.0117
     15  C3'      -17.5950  -28.2580  -27.4440 C.3   2001  IPT2001     0.0117
@<TRIPOS>BOND
     1    11    10    1
     2    10     8    1
     3     8     6    1
     4     8     9    1
     5     6     7    1
     6     6     4    1
     7    15    13    1
     8     9     1    1
     9     4     5    1
    10     4     2    1
    11     1     2    1
    12     1    12    1
    13    13    14    1
    14    13    12    1
    15     2     3    1
