@<TRIPOS>MOLECULE
3vdb_149_A_1.pdb
 12 12 0 0 0
SMALL
GASTEIGER

@<TRIPOS>ATOM
      1  C1       -11.2710  -26.9760  -25.6780 C.2   2001  1492001     0.3505
      2  C2       -10.3110  -28.0180  -25.1710 C.3   2001  1492001     0.2823
      3  C3        -9.5880  -28.6570  -26.3420 C.3   2001  1492001     0.2270
      4  C4       -10.5840  -29.0700  -27.4300 C.3   2001  1492001     0.2276
      5  C5       -11.2610  -27.8410  -28.0290 C.3   2001  1492001     0.2344
      6  C6       -12.4080  -28.2360  -28.9500 C.3   2001  1492001     0.2281
      7  O1       -11.6400  -26.0740  -24.9510 O.2   2001  1492001    -0.2472
      8  O2        -9.3310  -27.4540  -24.2930 O.3   2001  1492001    -0.2082
      9  O3        -8.8410  -29.7750  -25.8490 O.3   2001  1492001    -0.2169
     10  O4       -11.6060  -29.9330  -26.9200 O.3   2001  1492001    -0.2163
     11  O5       -11.8230  -26.9900  -27.0270 O.3   2001  1492001    -0.4450
     12  O6       -11.9010  -28.7990  -30.1630 O.3   2001  1492001    -0.2163
@<TRIPOS>BOND
     1    12     6    1
     2     6     5    1
     3     5     4    1
     4     5    11    1
     5     4    10    1
     6     4     3    1
     7    11     1    1
     8     3     9    1
     9     3     2    1
    10     1     2    1
    11     1     7    2
    12     2     8    1
