@<TRIPOS>MOLECULE
3vdc_IPT_A_1.pdb
 15 15 0 0 0
SMALL
GASTEIGER

@<TRIPOS>ATOM
      1  C1       -14.3050  -27.6140  -26.3700 C.3   2001  IPT2001     0.1955
      2  C2       -13.0010  -27.4150  -25.6020 C.3   2001  IPT2001     0.2219
      3  O2       -13.1240  -26.2020  -24.8560 O.3   2001  IPT2001    -0.2167
      4  C3       -11.7910  -27.2960  -26.5400 C.3   2001  IPT2001     0.2181
      5  O3       -10.5710  -27.4580  -25.8060 O.3   2001  IPT2001    -0.2175
      6  C4       -11.8200  -28.2710  -27.7240 C.3   2001  IPT2001     0.2143
      7  O4       -11.4360  -29.5650  -27.2670 O.3   2001  IPT2001    -0.2176
      8  C5       -13.2240  -28.3270  -28.3220 C.3   2001  IPT2001     0.1820
      9  O5       -14.1170  -28.6960  -27.2770 O.3   2001  IPT2001    -0.3398
     10  C6       -13.4000  -29.2960  -29.4870 C.3   2001  IPT2001     0.2142
     11  O6       -12.3040  -29.1790  -30.4000 O.3   2001  IPT2001    -0.2176
     12  S1       -15.6200  -27.9490  -25.2320 S.3   2001  IPT2001    -0.1102
     13  C1'      -17.2440  -28.2260  -25.9020 C.3   2001  IPT2001     0.0500
     14  C2'      -18.2550  -27.3100  -25.2140 C.3   2001  IPT2001     0.0117
     15  C3'      -17.3090  -28.0510  -27.4160 C.3   2001  IPT2001     0.0117
@<TRIPOS>BOND
     1    11    10    1
     2    10     8    1
     3     8     6    1
     4     8     9    1
     5     6     7    1
     6     6     4    1
     7    15    13    1
     8     9     1    1
     9     4     5    1
    10     4     2    1
    11     1     2    1
    12     1    12    1
    13    13    12    1
    14    13    14    1
    15     2     3    1
