@<TRIPOS>MOLECULE
3vdd_BT8_A_1.pdb
 28 31 0 0 0
SMALL
GASTEIGER

@<TRIPOS>ATOM
      1  C10      -18.4770 -170.7220  -95.1610 C.3   301  BT8301      0.0216
      2  C13      -18.4550 -173.2930  -94.3740 C.3   301  BT8301      0.0922
      3  C15      -15.1750 -170.6850  -93.4730 C.3   301  BT8301      0.2054
      4  C17      -13.6210 -172.1710  -92.3260 C.ar  301  BT8301      0.1417
      5  C20      -11.1130 -172.5320  -91.1460 C.ar  301  BT8301      0.0934
      6  C21      -12.1060 -172.1020  -90.3620 C.ar  301  BT8301      0.1830
      7  C22      -13.4030 -171.9050  -90.9320 C.ar  301  BT8301      0.0772
      8  C28       -6.2010 -172.9010  -90.6800 C.3   301  BT8301      0.0512
      9  C01      -24.8010 -175.3650  -95.5390 C.3   301  BT8301      0.0540
     10  C02      -23.5750 -174.6490  -95.1780 C.ar  301  BT8301      0.0810
     11  C03      -22.5740 -174.7630  -96.1750 C.ar  301  BT8301      0.0194
     12  C04      -21.3530 -174.1110  -95.9620 C.ar  301  BT8301      0.0374
     13  C05      -21.1230 -173.3530  -94.8080 C.ar  301  BT8301      0.1534
     14  N06      -22.1080 -173.2680  -93.8340 N.ar  301  BT8301     -0.1332
     15  N07      -23.3730 -173.9310  -94.0270 N.ar  301  BT8301     -0.1512
     16  N08      -19.7680 -172.7570  -94.7080 N.pl3 301  BT8301     -0.2919
     17  C09      -19.6150 -171.6230  -95.5940 C.3   301  BT8301      0.0922
     18  C11      -17.4030 -171.2990  -94.3370 C.3   301  BT8301      0.0071
     19  C12      -17.8710 -172.3100  -93.4300 C.3   301  BT8301      0.0216
     20  C14      -16.6140 -170.3090  -93.5590 C.3   301  BT8301      0.0474
     21  O16      -14.8890 -171.9950  -92.9690 O.3   301  BT8301     -0.4754
     22  C18      -12.6250 -172.5990  -93.1030 C.ar  301  BT8301      0.0373
     23  C19      -11.3550 -172.7940  -92.5070 C.ar  301  BT8301      0.0110
     24  O23      -11.5690 -171.9150  -89.1070 O.2   301  BT8301     -0.3503
     25  N24      -10.2400 -172.2340  -89.1080 N.ar  301  BT8301     -0.0388
     26  C25       -9.9380 -172.6150  -90.3620 C.ar  301  BT8301      0.2639
     27  O26       -8.7020 -173.0050  -90.8280 O.3   301  BT8301     -0.4582
     28  C27       -7.6050 -172.2950  -90.3840 C.3   301  BT8301      0.2073
@<TRIPOS>BOND
     1    11    12   ar
     2    11    10   ar
     3    12    13   ar
     4    17     1    1
     5    17    16    1
     6     9    10    1
     7    10    15   ar
     8     1    18    1
     9    13    16    1
    10    13    14   ar
    11    16     2    1
    12     2    19    1
    13    18    20    1
    14    18    19    1
    15    15    14   ar
    16    20     3    1
    17     3    21    1
    18    22    23   ar
    19    22     4   ar
    20    21     4    1
    21    23     5   ar
    22     4     7   ar
    23     5     6   ar
    24     5    26   ar
    25     7     6   ar
    26    27    28    1
    27    27    26    1
    28     8    28    1
    29     6    24   ar
    30    26    25   ar
    31    25    24   ar
