@<TRIPOS>MOLECULE
3vdf_III_B_1.pdb
 44 44 0 0 0
SMALL
GASTEIGER

@<TRIPOS>ATOM
      1  N          4.0960   10.4230   32.1150 N.3   681  LEU681     -0.1231
      2  CA         4.4020   11.3720   33.1880 C.3   681  LEU681      0.1693
      3  C          5.1290   10.7290   34.4040 C.2   681  LEU681      0.2592
      4  O          5.0310   11.2310   35.5320 O.2   681  LEU681     -0.2718
      5  CB         3.1480   12.2150   33.5960 C.3   681  LEU681      0.0284
      6  CG         2.4000   13.2380   32.7000 C.3   681  LEU681      0.0019
      7  CD1        1.1280   13.7880   33.3420 C.3   681  LEU681      0.0001
      8  CD2        3.2910   14.3990   32.2830 C.3   681  LEU681      0.0001
      9  N          5.8790    9.6430   34.1690 N.am  682  GLU682     -0.1966
     10  CA         6.5010    8.8910   35.2780 C.3   682  GLU682      0.1733
     11  C          8.0300    8.5930   35.1630 C.2   682  GLU682      0.2616
     12  O          8.6360    8.8480   34.1220 O.2   682  GLU682     -0.2715
     13  CB         5.6750    7.6270   35.6050 C.3   682  GLU682      0.0429
     14  CG         6.0370    6.3640   34.8300 C.3   682  GLU682      0.1163
     15  CD         6.0840    5.1380   35.7350 C.2   682  GLU682      0.3649
     16  OE1        7.2010    4.7190   36.1210 O.co2 682  GLU682     -0.2457
     17  OE2        5.0040    4.6060   36.0800 O.co2 682  GLU682     -0.2457
     18  N          8.6020    8.0180   36.2340 N.am  683  ALA683     -0.1963
     19  CA        10.0490    7.9620   36.5300 C.3   683  ALA683      0.1728
     20  C         10.9280    6.9250   35.7460 C.2   683  ALA683      0.2616
     21  O         10.4800    6.2580   34.8220 O.2   683  ALA683     -0.2715
     22  CB        10.2110    7.7450   38.0350 C.3   683  ALA683      0.0334
     23  N         12.1930    6.8390   36.1300 N.am  684  CYS684     -0.1954
     24  CA        13.1260    5.9030   35.5130 C.3   684  CYS684      0.1843
     25  C         12.6760    4.4250   35.7930 C.2   684  CYS684      0.2625
     26  O         12.2930    4.0850   36.9150 O.2   684  CYS684     -0.2714
     27  CB        14.5470    6.1840   36.0900 C.3   684  CYS684      0.0997
     28  SG        15.7920    5.1160   35.4960 S.3   684  CYS684     -0.0797
     29  N         12.7760    3.5670   34.7770 N.am  685  ALA685     -0.1963
     30  CA        12.4300    2.1410   34.8660 C.3   685  ALA685      0.1728
     31  C         13.3490    1.3020   35.7090 C.2   685  ALA685      0.2616
     32  O         12.9950    0.1640   36.0500 O.2   685  ALA685     -0.2715
     33  CB        12.2970    1.4750   33.4640 C.3   685  ALA685      0.0334
     34  N         14.5030    1.8400   36.0070 N.am  686  PHE686     -0.1974
     35  CA        15.5070    1.1390   36.7530 C.3   686  PHE686      0.1639
     36  C         15.6250    1.8900   38.0510 C.2   686  PHE686      0.2290
     37  O         16.0090    1.2630   38.9780 O.2   686  PHE686     -0.2864
     38  CB        16.8420    1.0820   36.0050 C.3   686  PHE686      0.0560
     39  CG        16.6930    0.7710   34.5540 C.ar  686  PHE686     -0.0200
     40  CD1       16.3110   -0.4780   34.1470 C.ar  686  PHE686     -0.0042
     41  CD2       16.9050    1.7440   33.6010 C.ar  686  PHE686     -0.0042
     42  CE1       16.1280   -0.7480   32.8260 C.ar  686  PHE686     -0.0003
     43  CE2       16.7430    1.4630   32.2580 C.ar  686  PHE686     -0.0003
     44  CZ        16.3570    0.2190   31.8770 C.ar  686  PHE686     -0.0000
@<TRIPOS>BOND
     1    44    43   ar
     2    44    42   ar
     3     1     2    1
     4    43    41   ar
     5     8     6    1
     6     6     7    1
     7     6     5    1
     8    42    40   ar
     9     2     5    1
    10     2     3    1
    11    33    30    1
    12    41    39   ar
    13    12    11    2
    14    40    39   ar
    15     9     3   am
    16     9    10    1
    17     3     4    2
    18    39    38    1
    19    29    30    1
    20    29    25   am
    21    21    20    2
    22    14    13    1
    23    14    15    1
    24    30    31    1
    25    11    10    1
    26    11    18   am
    27    10    13    1
    28    28    27    1
    29    24    25    1
    30    24    27    1
    31    24    23    1
    32    31    34   am
    33    31    32    2
    34    15    17   ar
    35    15    16   ar
    36    20    23   am
    37    20    19    1
    38    25    26    2
    39    38    35    1
    40    34    35    1
    41    18    19    1
    42    19    22    1
    43    35    36    1
    44    36    37    2
