@<TRIPOS>MOLECULE
3vdf_API_A_1.pdb
 13 12 0 0 0
SMALL
GASTEIGER

@<TRIPOS>ATOM
      1  C1         2.4150    9.5390    9.5790 C.2   711  API711      0.3819
      2  C2         1.4460    9.6230   10.7570 C.3   711  API711      0.1943
      3  C3         2.0660   10.3800   11.9350 C.3   711  API711      0.0307
      4  C4         1.8860    9.7580   13.3220 C.3   711  API711      0.0041
      5  C5         3.1730    9.8960   14.1340 C.3   711  API711      0.0307
      6  C6         2.8910    9.6330   15.6170 C.3   711  API711      0.1943
      7  C7         4.1200    9.3470   16.4450 C.2   711  API711      0.3819
      8  O1         2.0290    8.8230    8.7100 O.co2 711  API711     -0.2441
      9  O2         3.4100   10.2140    9.4170 O.co2 711  API711     -0.2441
     10  O3         3.9020    8.8260   17.5650 O.co2 711  API711     -0.2441
     11  O4         5.2550    9.5650   15.9550 O.co2 711  API711     -0.2441
     12  N2         1.0400    8.2190   10.9660 N.3   711  API711     -0.1208
     13  N6         2.0660    8.4220   15.7300 N.3   711  API711     -0.1208
@<TRIPOS>BOND
     1     8     1   ar
     2     9     1   ar
     3     1     2    1
     4     2    12    1
     5     2     3    1
     6     3     4    1
     7     4     5    1
     8     5     6    1
     9     6    13    1
    10     6     7    1
    11    11     7   ar
    12     7    10   ar
