@<TRIPOS>MOLECULE
3vdi_PG4_A_1.pdb
 13 12 0 0 0
SMALL
GASTEIGER

@<TRIPOS>ATOM
      1  O1       -45.7870   41.2720   46.6010 O.3   408  PG4408     -0.2176
      2  C1       -45.4010   41.0160   45.2350 C.3   408  PG4408      0.2140
      3  C2       -43.9270   40.6670   45.0740 C.3   408  PG4408      0.1777
      4  O2       -43.7110   40.8230   43.6400 O.3   408  PG4408     -0.3483
      5  C3       -42.4530   40.2510   43.3080 C.3   408  PG4408      0.1742
      6  C4       -42.1690   40.4820   41.8510 C.3   408  PG4408      0.1742
      7  O3       -41.2430   41.5700   41.7460 O.3   408  PG4408     -0.3484
      8  C5       -41.6250   42.5120   40.7070 C.3   408  PG4408      0.1742
      9  C6       -40.7080   43.7570   40.6950 C.3   408  PG4408      0.1742
     10  O4       -41.1010   44.5840   41.8200 O.3   408  PG4408     -0.3483
     11  C7       -40.2790   45.7490   42.0290 C.3   408  PG4408      0.1777
     12  C8       -40.4750   46.8370   40.9710 C.3   408  PG4408      0.2140
     13  O5       -41.8200   47.3450   41.0320 O.3   408  PG4408     -0.2176
@<TRIPOS>BOND
     1     9     8    1
     2     9    10    1
     3     8     7    1
     4    12    13    1
     5    12    11    1
     6     7     6    1
     7    10    11    1
     8     6     5    1
     9     5     4    1
    10     4     3    1
    11     3     2    1
    12     2     1    1
