@<TRIPOS>MOLECULE
3vdn_GDP_B_1.pdb
 28 30 0 0 0
SMALL
GASTEIGER

@<TRIPOS>ATOM
      1  PB       -21.6610   -3.3110   11.0260 P.3   501  GDP501      0.5373
      2  O1B      -21.8040   -3.7400    9.6030 O.2   501  GDP501     -0.2221
      3  O2B      -22.0540   -4.5030   11.8560 O.3   501  GDP501     -0.1143
      4  O3B      -22.5620   -2.1380   11.2260 O.3   501  GDP501     -0.1143
      5  O3A      -20.0960   -2.9320   11.2950 O.3   501  GDP501     -0.2261
      6  PA       -19.5510   -1.6450   12.1290 P.3   501  GDP501      0.2231
      7  O1A      -20.1670   -0.3000   11.8220 O.2   501  GDP501     -0.5169
      8  O2A      -19.5580   -1.7850   13.6180 O.3   501  GDP501     -0.4370
      9  O5'      -18.0000   -1.6180   11.6420 O.3   501  GDP501     -0.3111
     10  C5'      -17.5760   -2.3130   10.4720 C.3   501  GDP501      0.1813
     11  C4'      -16.2120   -2.9070   10.7740 C.3   501  GDP501      0.1799
     12  O4'      -15.5820   -3.2570    9.5400 O.3   501  GDP501     -0.3326
     13  C3'      -15.3140   -1.8420   11.3720 C.3   501  GDP501      0.2158
     14  O3'      -14.3250   -2.4790   12.1870 O.3   501  GDP501     -0.2175
     15  C2'      -14.6540   -1.2160   10.1600 C.3   501  GDP501      0.2310
     16  O2'      -13.4200   -0.5900   10.4920 O.3   501  GDP501     -0.2158
     17  C1'      -14.4350   -2.4400    9.3000 C.3   501  GDP501      0.2293
     18  N9       -14.4450   -2.0290    7.8950 N.pl3 501  GDP501     -0.2354
     19  C8       -14.4880   -0.7570    7.4560 C.3   501  GDP501      0.2246
     20  N7       -14.5100   -0.7240    6.0990 N.2   501  GDP501     -0.2322
     21  C5       -14.4700   -1.9990    5.6710 C.2   501  GDP501      0.2182
     22  C6       -14.4560   -2.6630    4.3630 C.1   501  GDP501      0.2372
     23  O6       -14.4750   -1.9540    3.3290 O.2   501  GDP501     -0.2069
     24  N1       -14.4210   -4.0040    4.3410 N.2   501  GDP501     -0.2485
     25  C2       -14.4040   -4.7440    5.4760 C.1   501  GDP501      0.2531
     26  N2       -14.3650   -6.0960    5.4220 N.pl3 501  GDP501     -0.0226
     27  N3       -14.3840   -4.1910    6.7020 N.2   501  GDP501     -0.3074
     28  C4       -14.4200   -2.8530    6.8560 C.2   501  GDP501      0.2300
@<TRIPOS>BOND
     1    23    22    2
     2    24    22    2
     3    24    25    2
     4    22    21    1
     5    26    25    1
     6    25    27    2
     7    21    20    2
     8    21    28    1
     9    20    19    1
    10    27    28    2
    11    28    18    1
    12    19    18    1
    13    18    17    1
    14    17    12    1
    15    17    15    1
    16    12    11    1
    17     2     1    2
    18    15    16    1
    19    15    13    1
    20    10    11    1
    21    10     9    1
    22    11    13    1
    23     1     4    1
    24     1     5    1
    25     1     3    1
    26     5     6    1
    27    13    14    1
    28     9     6    1
    29     7     6    2
    30     6     8    1
