@<TRIPOS>MOLECULE
3vdq_NAD_A_1.pdb
 44 48 0 0 0
SMALL
GASTEIGER

@<TRIPOS>ATOM
      1  PA        -9.8830   60.7590   24.0710 P.3   303  NAD303      0.2189
      2  O1A       -9.0360   61.3820   25.0510 O.3   303  NAD303     -0.4371
      3  O2A      -10.8350   61.7390   23.4840 O.2   303  NAD303     -0.5170
      4  O5B      -10.5040   59.3780   24.5060 O.3   303  NAD303     -0.3112
      5  C5B       -9.7850   58.3610   25.2920 C.3   303  NAD303      0.1813
      6  C4B      -10.9460   57.4930   25.8960 C.3   303  NAD303      0.1821
      7  O4B      -10.2330   56.4520   26.7070 O.3   303  NAD303     -0.3135
      8  C3B      -11.5810   58.3790   26.9220 C.3   303  NAD303      0.2184
      9  O3B      -12.9370   57.9760   27.1420 O.3   303  NAD303     -0.2174
     10  C2B      -10.6970   58.1390   28.1180 C.3   303  NAD303      0.2570
     11  O2B      -11.1720   58.6430   29.3980 O.3   303  NAD303     -0.2130
     12  C1B      -10.4710   56.6410   28.1790 C.3   303  NAD303      0.3186
     13  N9A       -9.2420   56.1860   28.7610 N.pl3 303  NAD303     -0.1439
     14  C8A       -8.3060   56.8940   29.5630 C.3   303  NAD303      0.3377
     15  N7A       -7.4080   56.1110   30.1440 N.2   303  NAD303     -0.2095
     16  C5A       -7.8340   54.8350   29.9120 C.2   303  NAD303      0.2526
     17  C6A       -7.3850   53.5490   30.3310 C.2   303  NAD303      0.4393
     18  N6A       -6.2530   53.3940   31.1240 N.pl3 303  NAD303      0.2180
     19  N1A       -8.1340   52.4640   29.9500 N.2   303  NAD303      0.0021
     20  C2A       -9.2540   52.5690   29.2050 C.3   303  NAD303      0.5254
     21  N3A       -9.7390   53.7770   28.7350 N.2   303  NAD303     -0.0055
     22  C4A       -8.9790   54.8650   29.1140 C.2   303  NAD303      0.3518
     23  O3        -8.8200   60.3580   22.9270 O.3   303  NAD303     -0.2703
     24  PN        -9.3250   59.8810   21.4900 P.3   303  NAD303      0.2189
     25  O1N       -8.8930   60.8990   20.5450 O.2   303  NAD303     -0.5170
     26  O2N      -10.7720   59.7150   21.4510 O.3   303  NAD303     -0.4371
     27  O5D       -8.6110   58.4910   21.1350 O.3   303  NAD303     -0.3112
     28  C5D       -9.4420   57.3190   20.9700 C.3   303  NAD303      0.1813
     29  C4D       -8.6410   56.4000   20.0280 C.3   303  NAD303      0.1799
     30  O4D       -8.4770   57.1610   18.7550 O.3   303  NAD303     -0.3327
     31  C3D       -7.2280   56.1690   20.5880 C.3   303  NAD303      0.2158
     32  O3D       -6.4390   54.9580   20.8540 O.3   303  NAD303     -0.2175
     33  C2D       -6.3460   57.2110   19.8520 C.3   303  NAD303      0.2309
     34  O2D       -5.2330   56.4860   19.2650 O.3   303  NAD303     -0.2158
     35  C1D       -7.0720   57.1930   18.5470 C.3   303  NAD303      0.2263
     36  N1N       -6.7540   58.2430   17.5510 N.pl3 303  NAD303     -0.2787
     37  C2N       -7.1450   59.5770   17.7730 C.3   303  NAD303      0.1244
     38  C3N       -6.8410   60.5470   16.8240 C.2   303  NAD303      0.0544
     39  C7N       -7.2130   61.9710   16.9810 C.2   303  NAD303      0.2818
     40  O7N       -6.8850   62.8030   16.0650 O.2   303  NAD303     -0.2670
     41  N7N       -7.8830   62.3740   18.0770 N.am  303  NAD303     -0.0839
     42  C4N       -6.1340   60.1910   15.6220 C.2   303  NAD303      0.0033
     43  C5N       -5.7430   58.7950   15.4140 C.2   303  NAD303      0.0157
     44  C6N       -6.0550   57.8010   16.3910 C.2   303  NAD303      0.0633
@<TRIPOS>BOND
     1    43    42    1
     2    43    44    2
     3    42    38    2
     4    40    39    2
     5    44    36    1
     6    38    39    1
     7    38    37    1
     8    39    41   am
     9    36    37    1
    10    36    35    1
    11    35    30    1
    12    35    33    1
    13    30    29    1
    14    34    33    1
    15    33    31    1
    16    29    31    1
    17    29    28    1
    18    25    24    2
    19    31    32    1
    20    28    27    1
    21    27    24    1
    22    26    24    1
    23    24    23    1
    24    23     1    1
    25     3     1    2
    26     1     4    1
    27     1     2    1
    28     4     5    1
    29     5     6    1
    30     6     7    1
    31     6     8    1
    32     7    12    1
    33     8     9    1
    34     8    10    1
    35    10    12    1
    36    10    11    1
    37    12    13    1
    38    21    22    2
    39    21    20    1
    40    13    22    1
    41    13    14    1
    42    22    16    1
    43    20    19    1
    44    14    15    1
    45    16    15    2
    46    16    17    1
    47    19    17    2
    48    17    18    1
