@<TRIPOS>MOLECULE
3vdr_NAD_A_1.pdb
 44 48 0 0 0
SMALL
GASTEIGER

@<TRIPOS>ATOM
      1  PA        -9.8660   61.7130   23.5430 P.3   303  NAD303      0.2189
      2  O1A       -9.1780   62.5060   24.5290 O.3   303  NAD303     -0.4371
      3  O2A      -10.8980   62.5210   22.8410 O.2   303  NAD303     -0.5170
      4  O5B      -10.3180   60.2900   24.0160 O.3   303  NAD303     -0.3112
      5  C5B       -9.5370   59.3980   24.8860 C.3   303  NAD303      0.1813
      6  C4B      -10.6400   58.4260   25.3330 C.3   303  NAD303      0.1821
      7  O4B       -9.9290   57.4330   26.1770 O.3   303  NAD303     -0.3135
      8  C3B      -11.5290   59.1800   26.3080 C.3   303  NAD303      0.2184
      9  O3B      -12.8390   58.5890   26.2950 O.3   303  NAD303     -0.2174
     10  C2B      -10.8020   58.9570   27.6330 C.3   303  NAD303      0.2570
     11  O2B      -11.5960   59.2540   28.8240 O.3   303  NAD303     -0.2130
     12  C1B      -10.4160   57.5040   27.5590 C.3   303  NAD303      0.3186
     13  N9A       -9.3470   57.0810   28.4020 N.pl3 303  NAD303     -0.1439
     14  C8A       -8.8790   57.7020   29.5870 C.3   303  NAD303      0.3377
     15  N7A       -8.0440   56.9270   30.2730 N.2   303  NAD303     -0.2095
     16  C5A       -8.0780   55.7100   29.6530 C.2   303  NAD303      0.2526
     17  C6A       -7.4920   54.4580   29.9150 C.2   303  NAD303      0.4393
     18  N6A       -6.6390   54.2570   30.9900 N.pl3 303  NAD303      0.2180
     19  N1A       -7.8170   53.4490   29.0800 N.2   303  NAD303      0.0021
     20  C2A       -8.6430   53.5900   28.0510 C.3   303  NAD303      0.5254
     21  N3A       -9.2410   54.7680   27.7120 N.2   303  NAD303     -0.0055
     22  C4A       -8.9040   55.7830   28.5480 C.2   303  NAD303      0.3518
     23  O3        -8.6840   61.4040   22.4850 O.3   303  NAD303     -0.2703
     24  PN        -9.1600   60.7820   21.0970 P.3   303  NAD303      0.2189
     25  O1N       -8.8440   61.7710   20.0730 O.2   303  NAD303     -0.5170
     26  O2N      -10.5800   60.4810   21.1050 O.3   303  NAD303     -0.4371
     27  O5D       -8.3300   59.4420   20.8110 O.3   303  NAD303     -0.3112
     28  C5D       -9.2000   58.2870   20.7850 C.3   303  NAD303      0.1813
     29  C4D       -8.5450   57.3070   19.8400 C.3   303  NAD303      0.1799
     30  O4D       -8.4990   58.0240   18.5210 O.3   303  NAD303     -0.3327
     31  C3D       -7.1010   57.0620   20.2770 C.3   303  NAD303      0.2158
     32  O3D       -6.3100   55.8380   20.5280 O.3   303  NAD303     -0.2175
     33  C2D       -6.2860   58.0440   19.4220 C.3   303  NAD303      0.2309
     34  O2D       -5.2780   57.2220   18.7710 O.3   303  NAD303     -0.2158
     35  C1D       -7.1120   58.0070   18.1870 C.3   303  NAD303      0.2263
     36  N1N       -6.8140   59.0100   17.1310 N.pl3 303  NAD303     -0.2787
     37  C2N       -7.0870   60.3500   17.3520 C.3   303  NAD303      0.1244
     38  C3N       -6.8130   61.2700   16.3690 C.2   303  NAD303      0.0544
     39  C7N       -7.0680   62.7020   16.5200 C.2   303  NAD303      0.2818
     40  O7N       -6.7740   63.4800   15.5390 O.2   303  NAD303     -0.2670
     41  N7N       -7.5940   63.1540   17.6720 N.am  303  NAD303     -0.0839
     42  C4N       -6.2560   60.8720   15.1310 C.2   303  NAD303      0.0033
     43  C5N       -5.9800   59.4680   14.9270 C.2   303  NAD303      0.0157
     44  C6N       -6.2600   58.5170   15.9370 C.2   303  NAD303      0.0633
@<TRIPOS>BOND
     1    43    42    1
     2    43    44    2
     3    42    38    2
     4    40    39    2
     5    44    36    1
     6    38    39    1
     7    38    37    1
     8    39    41   am
     9    36    37    1
    10    36    35    1
    11    35    30    1
    12    35    33    1
    13    30    29    1
    14    34    33    1
    15    33    31    1
    16    29    31    1
    17    29    28    1
    18    25    24    2
    19    31    32    1
    20    28    27    1
    21    27    24    1
    22    24    26    1
    23    24    23    1
    24    23     1    1
    25     3     1    2
    26     1     4    1
    27     1     2    1
    28     4     5    1
    29     5     6    1
    30     6     7    1
    31     6     8    1
    32     7    12    1
    33     9     8    1
    34     8    10    1
    35    12    10    1
    36    12    13    1
    37    10    11    1
    38    21    20    1
    39    21    22    2
    40    20    19    1
    41    13    22    1
    42    13    14    1
    43    22    16    1
    44    19    17    2
    45    14    15    1
    46    16    17    1
    47    16    15    2
    48    17    18    1
