@<TRIPOS>MOLECULE
3vdr_NAI_A_1.pdb
 44 48 0 0 0
SMALL
GASTEIGER

@<TRIPOS>ATOM
      1  PA        -9.8570   61.7160   23.5170 P.3   304  NAI304      0.2189
      2  O1A       -9.1710   62.5110   24.5020 O.3   304  NAI304     -0.4371
      3  O2A      -10.8910   62.5210   22.8150 O.2   304  NAI304     -0.5170
      4  O5B      -10.3080   60.2930   23.9920 O.3   304  NAI304     -0.3112
      5  C5B       -9.5240   59.4040   24.8620 C.3   304  NAI304      0.1813
      6  C4B      -10.6230   58.4310   25.3160 C.3   304  NAI304      0.1821
      7  O4B       -9.9080   57.4430   26.1610 O.3   304  NAI304     -0.3135
      8  C3B      -11.5070   59.1880   26.2930 C.3   304  NAI304      0.2184
      9  O3B      -12.8180   58.5970   26.2910 O.3   304  NAI304     -0.2174
     10  C2B      -10.7740   58.9730   27.6150 C.3   304  NAI304      0.2570
     11  O2B      -11.5600   59.2780   28.8080 O.3   304  NAI304     -0.2130
     12  C1B      -10.3860   57.5190   27.5460 C.3   304  NAI304      0.3186
     13  N9A       -9.3100   57.1020   28.3830 N.pl3 304  NAI304     -0.1439
     14  C8A       -8.8310   57.7310   29.5590 C.3   304  NAI304      0.3377
     15  N7A       -7.9890   56.9600   30.2430 N.2   304  NAI304     -0.2095
     16  C5A       -8.0310   55.7380   29.6310 C.2   304  NAI304      0.2526
     17  C6A       -7.4440   54.4870   29.8970 C.2   304  NAI304      0.4393
     18  N6A       -6.5800   54.2920   30.9670 N.pl3 304  NAI304      0.2180
     19  N1A       -7.7800   53.4710   29.0730 N.2   304  NAI304      0.0021
     20  C2A       -8.6170   53.6070   28.0510 C.3   304  NAI304      0.5254
     21  N3A       -9.2160   54.7820   27.7090 N.2   304  NAI304     -0.0055
     22  C4A       -8.8680   55.8040   28.5340 C.2   304  NAI304      0.3518
     23  O3        -8.6740   61.4070   22.4610 O.3   304  NAI304     -0.2703
     24  PN        -9.1440   60.7820   21.0710 P.3   304  NAI304      0.2189
     25  O1N       -8.8270   61.7720   20.0470 O.2   304  NAI304     -0.5170
     26  O2N      -10.5620   60.4770   21.0730 O.3   304  NAI304     -0.4371
     27  O5D       -8.3090   59.4450   20.7880 O.3   304  NAI304     -0.3112
     28  C5D       -9.1730   58.2850   20.7590 C.3   304  NAI304      0.1813
     29  C4D       -8.5130   57.3060   19.8160 C.3   304  NAI304      0.1799
     30  O4D       -8.4620   58.0190   18.4960 O.3   304  NAI304     -0.3327
     31  C3D       -7.0720   57.0660   20.2600 C.3   304  NAI304      0.2158
     32  O3D       -6.2810   55.8440   20.5170 O.3   304  NAI304     -0.2175
     33  C2D       -6.2560   58.0460   19.4060 C.3   304  NAI304      0.2309
     34  O2D       -5.2450   57.2230   18.7590 O.3   304  NAI304     -0.2158
     35  C1D       -7.0730   58.0030   18.1680 C.3   304  NAI304      0.2263
     36  N1N       -6.7720   59.0010   17.1090 N.pl3 304  NAI304     -0.2787
     37  C2N       -7.0690   60.3350   17.3070 C.3   304  NAI304      0.1244
     38  C3N       -6.7580   61.2730   16.3500 C.2   304  NAI304      0.0544
     39  C7N       -7.1290   62.6760   16.5330 C.2   304  NAI304      0.2818
     40  O7N       -6.7980   63.5190   15.6220 O.2   304  NAI304     -0.2670
     41  N7N       -7.7990   63.0350   17.6410 N.am  304  NAI304     -0.0839
     42  C4N       -6.0240   60.8400   15.2030 C.2   304  NAI304      0.0033
     43  C5N       -5.9500   59.4260   14.8970 C.2   304  NAI304      0.0157
     44  C6N       -6.1980   58.5000   15.9370 C.2   304  NAI304      0.0633
@<TRIPOS>BOND
     1    43    42    1
     2    43    44    2
     3    42    38    2
     4    40    39    2
     5    44    36    1
     6    38    39    1
     7    38    37    1
     8    39    41   am
     9    36    37    1
    10    36    35    1
    11    35    30    1
    12    35    33    1
    13    30    29    1
    14    34    33    1
    15    33    31    1
    16    29    31    1
    17    29    28    1
    18    25    24    2
    19    31    32    1
    20    28    27    1
    21    27    24    1
    22    24    26    1
    23    24    23    1
    24    23     1    1
    25     3     1    2
    26     1     4    1
    27     1     2    1
    28     4     5    1
    29     5     6    1
    30     6     7    1
    31     6     8    1
    32     7    12    1
    33     9     8    1
    34     8    10    1
    35    12    10    1
    36    12    13    1
    37    10    11    1
    38    21    20    1
    39    21    22    2
    40    20    19    1
    41    13    22    1
    42    13    14    1
    43    22    16    1
    44    19    17    2
    45    14    15    1
    46    16    17    1
    47    16    15    2
    48    17    18    1
