@<TRIPOS>MOLECULE
3vec_HEM_A_1.pdb
 43 50 0 0 0
SMALL
GASTEIGER

@<TRIPOS>ATOM
      1  CHA      -70.5710   -7.2430   11.5140 C.2   401  HEM401      0.0000
      2  CHB      -71.3510   -2.2820   12.0040 C.2   401  HEM401      0.0000
      3  CHC      -71.4060   -1.8490    7.1430 C.2   401  HEM401      0.0000
      4  CHD      -70.4550   -6.7180    6.6990 C.2   401  HEM401      0.0000
      5  C1A      -70.7960   -5.8980   12.0640 C.2   401  HEM401      0.0000
      6  C2A      -70.9410   -5.6700   13.5300 C.2   401  HEM401      0.0000
      7  C3A      -71.1740   -4.2310   13.6690 C.2   401  HEM401      0.0000
      8  C4A      -71.1640   -3.7000   12.2740 C.2   401  HEM401      0.0000
      9  CMA      -71.3830   -3.4580   14.9300 C.3   401  HEM401      0.0000
     10  CAA      -70.8770   -6.7050   14.6320 C.3   401  HEM401      0.0000
     11  CBA      -69.4180   -6.9000   15.0590 C.3   401  HEM401      0.0000
     12  CGA      -68.5620   -7.5860   14.0010 C.2   401  HEM401      0.0000
     13  O1A      -67.8580   -6.8400   13.2610 O.co2 401  HEM401      0.0000
     14  O2A      -68.5680   -8.8560   13.9070 O.co2 401  HEM401      0.0000
     15  C1B      -71.4530   -1.7180   10.6560 C.ar  401  HEM401      0.0000
     16  C2B      -71.6520   -0.2550   10.4630 C.ar  401  HEM401      0.0000
     17  C3B      -71.6320   -0.1860    9.0100 C.ar  401  HEM401      0.0000
     18  C4B      -71.4600   -1.5750    8.5680 C.ar  401  HEM401      0.0000
     19  CMB      -71.7930    0.8220   11.4870 C.3   401  HEM401      0.0000
     20  CAB      -71.7710    0.9830    8.1080 C.2   401  HEM401      0.0000
     21  CBB      -72.3650    2.0580    8.5550 C.2   401  HEM401      0.0000
     22  C1C      -71.2210   -3.1710    6.5930 C.2   401  HEM401      0.0000
     23  C2C      -71.2230   -3.3960    5.1230 C.2   401  HEM401      0.0000
     24  C3C      -70.9550   -4.8290    5.0210 C.2   401  HEM401      0.0000
     25  C4C      -70.8080   -5.3400    6.4100 C.2   401  HEM401      0.0000
     26  CMC      -71.5120   -2.4130    4.0230 C.3   401  HEM401      0.0000
     27  CAC      -70.9070   -5.6630    3.7590 C.2   401  HEM401      0.0000
     28  CBC      -70.3750   -5.2300    2.6270 C.2   401  HEM401      0.0000
     29  C1D      -70.3840   -7.2860    8.0320 C.ar  401  HEM401      0.0000
     30  C2D      -70.0530   -8.7190    8.1660 C.ar  401  HEM401      0.0000
     31  C3D      -70.1000   -8.8950    9.6120 C.ar  401  HEM401      0.0000
     32  C4D      -70.4680   -7.5430   10.0910 C.ar  401  HEM401      0.0000
     33  CMD      -69.7300   -9.7000    7.0740 C.3   401  HEM401      0.0000
     34  CAD      -69.8500  -10.1390   10.4150 C.3   401  HEM401      0.0000
     35  CBD      -71.2600  -10.6670   10.5630 C.3   401  HEM401      0.0000
     36  CGD      -71.1400  -11.9900   11.2310 C.2   401  HEM401      0.0000
     37  O1D      -70.9760  -12.9740   10.4910 O.co2 401  HEM401      0.0000
     38  O2D      -71.2090  -12.0380   12.4820 O.co2 401  HEM401      0.0000
     39  NA       -70.7800   -4.6720   11.2540 N.2   401  HEM401      0.0000
     40  NB       -71.3140   -2.4850    9.5470 N.ar  401  HEM401      0.0000
     41  NC       -70.7930   -4.2940    7.4060 N.2   401  HEM401      0.0000
     42  ND       -70.5780   -6.5880    9.1640 N.ar  401  HEM401      0.0000
     43 FE        -71.1500   -4.5790    9.3250 Fe    401  HEM401      0.0000
@<TRIPOS>BOND
     1    28    27    2
     2    27    24    1
     3    26    23    1
     4    24    23    2
     5    24    25    1
     6    23    22    1
     7    25     4    1
     8    25    41    2
     9    22     3    2
    10    22    41    1
    11     4    29    2
    12    33    30    1
    13     3    18    1
    14    41    43    1
    15    29    30   ar
    16    29    42   ar
    17    20    21    2
    18    20    17    1
    19    30    31   ar
    20    18    17   ar
    21    18    40   ar
    22    17    16   ar
    23    42    43    1
    24    42    32   ar
    25    43    40    1
    26    43    39    1
    27    40    15   ar
    28    31    32   ar
    29    31    34    1
    30    32     1    2
    31    34    35    1
    32    16    15   ar
    33    16    19    1
    34    37    36   ar
    35    35    36    1
    36    15     2    1
    37    36    38   ar
    38    39     5    2
    39    39     8    1
    40     1     5    1
    41     2     8    2
    42     5     6    1
    43     8     7    1
    44    13    12   ar
    45     6     7    2
    46     6    10    1
    47     7     9    1
    48    14    12   ar
    49    12    11    1
    50    10    11    1
