@<TRIPOS>MOLECULE
3ved_HEM_A_1.pdb
 43 50 0 0 0
SMALL
GASTEIGER

@<TRIPOS>ATOM
      1  CHA      -70.6780   -7.2320   11.3470 C.2   401  HEM401      0.0000
      2  CHB      -71.3970   -2.4780   11.8710 C.2   401  HEM401      0.0000
      3  CHC      -71.2520   -1.9570    7.0710 C.2   401  HEM401      0.0000
      4  CHD      -70.5680   -6.6760    6.5620 C.2   401  HEM401      0.0000
      5  C1A      -70.8660   -6.0010   11.9150 C.2   401  HEM401      0.0000
      6  C2A      -70.9630   -5.7290   13.3360 C.2   401  HEM401      0.0000
      7  C3A      -71.1700   -4.4180   13.4960 C.2   401  HEM401      0.0000
      8  C4A      -71.2050   -3.8120   12.1670 C.2   401  HEM401      0.0000
      9  CMA      -71.3200   -3.6790   14.8440 C.3   401  HEM401      0.0000
     10  CAA      -70.8690   -6.7860   14.4460 C.3   401  HEM401      0.0000
     11  CBA      -69.4410   -6.9760   14.9510 C.3   401  HEM401      0.0000
     12  CGA      -68.6150   -7.6470   13.8830 C.2   401  HEM401      0.0000
     13  O1A      -67.9080   -6.8970   13.1360 O.co2 401  HEM401      0.0000
     14  O2A      -68.6600   -8.9040   13.8060 O.co2 401  HEM401      0.0000
     15  C1B      -71.4160   -1.9090   10.6070 C.ar  401  HEM401      0.0000
     16  C2B      -71.6010   -0.5050   10.2790 C.ar  401  HEM401      0.0000
     17  C3B      -71.5530   -0.3780    8.9460 C.ar  401  HEM401      0.0000
     18  C4B      -71.3290   -1.6860    8.4010 C.ar  401  HEM401      0.0000
     19  CMB      -71.8070    0.6220   11.3110 C.3   401  HEM401      0.0000
     20  CAB      -71.6840    0.8800    8.0350 C.2   401  HEM401      0.0000
     21  CBB      -72.3430    1.9800    8.3910 C.2   401  HEM401      0.0000
     22  C1C      -71.1160   -3.2010    6.5270 C.2   401  HEM401      0.0000
     23  C2C      -71.1280   -3.4700    5.1060 C.2   401  HEM401      0.0000
     24  C3C      -70.9320   -4.7880    4.9550 C.2   401  HEM401      0.0000
     25  C4C      -70.8080   -5.3580    6.2880 C.2   401  HEM401      0.0000
     26  CMC      -71.3200   -2.3930    4.0210 C.3   401  HEM401      0.0000
     27  CAC      -70.8630   -5.6040    3.6370 C.2   401  HEM401      0.0000
     28  CBC      -70.4360   -5.0950    2.4730 C.2   401  HEM401      0.0000
     29  C1D      -70.4790   -7.2720    7.7780 C.ar  401  HEM401      0.0000
     30  C2D      -70.1930   -8.6700    7.9930 C.ar  401  HEM401      0.0000
     31  C3D      -70.2150   -8.8450    9.4930 C.ar  401  HEM401      0.0000
     32  C4D      -70.5440   -7.5270   10.0220 C.ar  401  HEM401      0.0000
     33  CMD      -69.8620   -9.7780    6.9790 C.3   401  HEM401      0.0000
     34  CAD      -69.9700  -10.1630   10.2490 C.3   401  HEM401      0.0000
     35  CBD      -71.3560  -10.7370   10.5260 C.3   401  HEM401      0.0000
     36  CGD      -71.2750  -12.1230   11.0990 C.2   401  HEM401      0.0000
     37  O1D      -71.4860  -12.2870   12.3300 O.co2 401  HEM401      0.0000
     38  O2D      -70.9990  -13.0700   10.3280 O.co2 401  HEM401      0.0000
     39  NA       -71.0070   -4.8120   11.2280 N.2   401  HEM401      0.0000
     40  NB       -71.2540   -2.6030    9.4240 N.ar  401  HEM401      0.0000
     41  NC       -70.9160   -4.3690    7.2200 N.2   401  HEM401      0.0000
     42  ND       -70.6910   -6.6280    8.9810 N.ar  401  HEM401      0.0000
     43 FE        -70.9720   -4.6080    9.1870 Fe    401  HEM401      0.0000
@<TRIPOS>BOND
     1    28    27    2
     2    27    24    1
     3    26    23    1
     4    24    23    2
     5    24    25    1
     6    23    22    1
     7    25     4    1
     8    25    41    2
     9    22     3    2
    10    22    41    1
    11     4    29    2
    12    33    30    1
    13     3    18    1
    14    41    43    1
    15    29    30   ar
    16    29    42   ar
    17    30    31   ar
    18    20    21    2
    19    20    17    1
    20    18    17   ar
    21    18    40   ar
    22    17    16   ar
    23    42    43    1
    24    42    32   ar
    25    43    40    1
    26    43    39    1
    27    40    15   ar
    28    31    32   ar
    29    31    34    1
    30    32     1    2
    31    34    35    1
    32    16    15   ar
    33    16    19    1
    34    38    36   ar
    35    35    36    1
    36    15     2    1
    37    36    37   ar
    38    39     5    2
    39    39     8    1
    40     1     5    1
    41     2     8    2
    42     5     6    1
    43     8     7    1
    44    13    12   ar
    45     6     7    2
    46     6    10    1
    47     7     9    1
    48    14    12   ar
    49    12    11    1
    50    10    11    1
