@<TRIPOS>MOLECULE
3vee_HEM_A_1.pdb
 43 50 0 0 0
SMALL
GASTEIGER

@<TRIPOS>ATOM
      1  CHA      -70.8420   -7.1990   11.6230 C.2   401  HEM401      0.0000
      2  CHB      -71.2950   -2.4180   12.0760 C.2   401  HEM401      0.0000
      3  CHC      -71.3480   -2.0040    7.2570 C.2   401  HEM401      0.0000
      4  CHD      -70.5830   -6.7200    6.8260 C.2   401  HEM401      0.0000
      5  C1A      -70.9560   -5.9480   12.1670 C.2   401  HEM401      0.0000
      6  C2A      -71.0340   -5.6560   13.5890 C.2   401  HEM401      0.0000
      7  C3A      -71.1650   -4.3490   13.7250 C.2   401  HEM401      0.0000
      8  C4A      -71.1670   -3.7580   12.3840 C.2   401  HEM401      0.0000
      9  CMA      -71.2670   -3.5780   15.0560 C.3   401  HEM401      0.0000
     10  CAA      -70.9810   -6.7090   14.7160 C.3   401  HEM401      0.0000
     11  CBA      -69.5390   -6.9390   15.1490 C.3   401  HEM401      0.0000
     12  CGA      -68.7660   -7.6730   14.0930 C.2   401  HEM401      0.0000
     13  O1A      -68.0620   -6.9600   13.3340 O.co2 401  HEM401      0.0000
     14  O2A      -68.8260   -8.9350   14.0290 O.co2 401  HEM401      0.0000
     15  C1B      -71.3700   -1.8830   10.8060 C.ar  401  HEM401      0.0000
     16  C2B      -71.5380   -0.4850   10.4710 C.ar  401  HEM401      0.0000
     17  C3B      -71.5440   -0.3870    9.1410 C.ar  401  HEM401      0.0000
     18  C4B      -71.3610   -1.7060    8.5950 C.ar  401  HEM401      0.0000
     19  CMB      -71.6750    0.6680   11.4950 C.3   401  HEM401      0.0000
     20  CAB      -71.6880    0.8740    8.2510 C.2   401  HEM401      0.0000
     21  CBB      -72.5800    1.8260    8.5150 C.2   401  HEM401      0.0000
     22  C1C      -71.1760   -3.2520    6.7180 C.2   401  HEM401      0.0000
     23  C2C      -71.1460   -3.5520    5.3020 C.2   401  HEM401      0.0000
     24  C3C      -70.9340   -4.8560    5.1890 C.2   401  HEM401      0.0000
     25  C4C      -70.8260   -5.3980    6.5270 C.2   401  HEM401      0.0000
     26  CMC      -71.3340   -2.5140    4.1760 C.3   401  HEM401      0.0000
     27  CAC      -70.8240   -5.7180    3.8950 C.2   401  HEM401      0.0000
     28  CBC      -70.3850   -5.1960    2.7490 C.2   401  HEM401      0.0000
     29  C1D      -70.5340   -7.2890    8.0700 C.ar  401  HEM401      0.0000
     30  C2D      -70.2690   -8.6910    8.3050 C.ar  401  HEM401      0.0000
     31  C3D      -70.3630   -8.8690    9.8150 C.ar  401  HEM401      0.0000
     32  C4D      -70.6730   -7.5240   10.3090 C.ar  401  HEM401      0.0000
     33  CMD      -69.9370   -9.7930    7.2660 C.3   401  HEM401      0.0000
     34  CAD      -70.1460  -10.1890   10.6090 C.3   401  HEM401      0.0000
     35  CBD      -71.4800  -10.9290   10.5960 C.3   401  HEM401      0.0000
     36  CGD      -71.3660  -12.2620   11.2860 C.2   401  HEM401      0.0000
     37  O1D      -71.6120  -12.3450   12.5190 O.co2 401  HEM401      0.0000
     38  O2D      -71.0200  -13.2630   10.6040 O.co2 401  HEM401      0.0000
     39  NA       -71.0390   -4.7740   11.4550 N.2   401  HEM401      0.0000
     40  NB       -71.2700   -2.6050    9.6270 N.ar  401  HEM401      0.0000
     41  NC       -70.9810   -4.4000    7.4350 N.2   401  HEM401      0.0000
     42  ND       -70.7870   -6.6240    9.2620 N.ar  401  HEM401      0.0000
     43 FE        -71.0500   -4.6090    9.4490 Fe    401  HEM401      0.0000
@<TRIPOS>BOND
     1    28    27    2
     2    27    24    1
     3    26    23    1
     4    24    23    2
     5    24    25    1
     6    23    22    1
     7    25     4    1
     8    25    41    2
     9    22     3    2
    10    22    41    1
    11     4    29    2
    12     3    18    1
    13    33    30    1
    14    41    43    1
    15    29    30   ar
    16    29    42   ar
    17    20    21    2
    18    20    17    1
    19    30    31   ar
    20    18    17   ar
    21    18    40   ar
    22    17    16   ar
    23    42    43    1
    24    42    32   ar
    25    43    40    1
    26    43    39    1
    27    40    15   ar
    28    31    32   ar
    29    31    34    1
    30    32     1    2
    31    16    15   ar
    32    16    19    1
    33    35    34    1
    34    35    36    1
    35    38    36   ar
    36    15     2    1
    37    36    37   ar
    38    39     5    2
    39    39     8    1
    40     1     5    1
    41     2     8    2
    42     5     6    1
    43     8     7    1
    44    13    12   ar
    45     6     7    2
    46     6    10    1
    47     7     9    1
    48    14    12   ar
    49    12    11    1
    50    10    11    1
