@<TRIPOS>MOLECULE
3vef_HEM_A_1.pdb
 43 50 0 0 0
SMALL
GASTEIGER

@<TRIPOS>ATOM
      1  CHA      -70.4090   -7.1010   11.3730 C.2   401  HEM401      0.0000
      2  CHB      -71.0570   -2.1700   11.8610 C.2   401  HEM401      0.0000
      3  CHC      -70.7840   -1.6420    7.0900 C.2   401  HEM401      0.0000
      4  CHD      -69.9340   -6.4670    6.6560 C.2   401  HEM401      0.0000
      5  C1A      -70.5880   -5.7590   11.8910 C.2   401  HEM401      0.0000
      6  C2A      -70.7640   -5.5670   13.3400 C.2   401  HEM401      0.0000
      7  C3A      -70.9610   -4.1120   13.4860 C.2   401  HEM401      0.0000
      8  C4A      -70.9100   -3.5860   12.1110 C.2   401  HEM401      0.0000
      9  CMA      -71.2220   -3.3170   14.7530 C.3   401  HEM401      0.0000
     10  CAA      -70.7490   -6.6610   14.3970 C.3   401  HEM401      0.0000
     11  CBA      -69.3470   -7.0290   14.9070 C.3   401  HEM401      0.0000
     12  CGA      -68.4470   -7.6470   13.8520 C.2   401  HEM401      0.0000
     13  O1A      -67.6680   -6.8800   13.2570 O.co2 401  HEM401      0.0000
     14  O2A      -68.4450   -8.8760   13.5800 O.co2 401  HEM401      0.0000
     15  C1B      -71.0760   -1.5620   10.5390 C.ar  401  HEM401      0.0000
     16  C2B      -71.1910   -0.0880   10.3900 C.ar  401  HEM401      0.0000
     17  C3B      -71.0780    0.0360    8.9570 C.ar  401  HEM401      0.0000
     18  C4B      -70.9270   -1.3600    8.4940 C.ar  401  HEM401      0.0000
     19  CMB      -71.3370    0.9240   11.4680 C.3   401  HEM401      0.0000
     20  CAB      -71.1050    1.2320    8.0870 C.2   401  HEM401      0.0000
     21  CBB      -71.5710    2.3780    8.5060 C.2   401  HEM401      0.0000
     22  C1C      -70.6310   -2.9670    6.5400 C.2   401  HEM401      0.0000
     23  C2C      -70.6400   -3.1930    5.0640 C.2   401  HEM401      0.0000
     24  C3C      -70.3920   -4.6180    4.9630 C.2   401  HEM401      0.0000
     25  C4C      -70.2610   -5.1080    6.3440 C.2   401  HEM401      0.0000
     26  CMC      -70.9080   -2.1970    3.9660 C.3   401  HEM401      0.0000
     27  CAC      -70.3450   -5.4180    3.7090 C.2   401  HEM401      0.0000
     28  CBC      -69.8770   -4.9060    2.5660 C.2   401  HEM401      0.0000
     29  C1D      -69.9790   -7.0720    7.9750 C.ar  401  HEM401      0.0000
     30  C2D      -69.6510   -8.5040    8.1090 C.ar  401  HEM401      0.0000
     31  C3D      -69.8140   -8.6990    9.5350 C.ar  401  HEM401      0.0000
     32  C4D      -70.2350   -7.3570    9.9800 C.ar  401  HEM401      0.0000
     33  CMD      -69.2640   -9.4890    7.0490 C.3   401  HEM401      0.0000
     34  CAD      -69.6580   -9.9480   10.3390 C.3   401  HEM401      0.0000
     35  CBD      -71.0650  -10.5390   10.2530 C.3   401  HEM401      0.0000
     36  CGD      -71.0120  -11.9070   10.8920 C.2   401  HEM401      0.0000
     37  O1D      -70.8960  -12.8810   10.1010 O.co2 401  HEM401      0.0000
     38  O2D      -71.0700  -12.0130   12.1650 O.co2 401  HEM401      0.0000
     39  NA       -70.5200   -4.5370   11.1010 N.2   401  HEM401      0.0000
     40  NB       -70.8840   -2.2980    9.4430 N.ar  401  HEM401      0.0000
     41  NC       -70.2120   -4.0880    7.3460 N.2   401  HEM401      0.0000
     42  ND       -70.2690   -6.3850    9.0750 N.ar  401  HEM401      0.0000
     43 FE        -70.8030   -4.3650    9.1680 Fe    401  HEM401      0.0000
@<TRIPOS>BOND
     1    28    27    2
     2    27    24    1
     3    26    23    1
     4    24    23    2
     5    24    25    1
     6    23    22    1
     7    25     4    1
     8    25    41    2
     9    22     3    2
    10    22    41    1
    11     4    29    2
    12    33    30    1
    13     3    18    1
    14    41    43    1
    15    29    30   ar
    16    29    42   ar
    17    20    21    2
    18    20    17    1
    19    30    31   ar
    20    18    17   ar
    21    18    40   ar
    22    17    16   ar
    23    42    43    1
    24    42    32   ar
    25    43    40    1
    26    43    39    1
    27    40    15   ar
    28    31    32   ar
    29    31    34    1
    30    32     1    2
    31    37    36   ar
    32    35    34    1
    33    35    36    1
    34    16    15   ar
    35    16    19    1
    36    15     2    1
    37    36    38   ar
    38    39     5    2
    39    39     8    1
    40     1     5    1
    41     2     8    2
    42     5     6    1
    43     8     7    1
    44    13    12   ar
    45     6     7    2
    46     6    10    1
    47     7     9    1
    48    14    12   ar
    49    12    11    1
    50    10    11    1
