@<TRIPOS>MOLECULE
3veg_HEM_A_1.pdb
 43 50 0 0 0
SMALL
GASTEIGER

@<TRIPOS>ATOM
      1  CHA      -71.1500   -7.2740   11.4960 C.2   401  HEM401      0.0000
      2  CHB      -71.8540   -2.5250   12.0060 C.2   401  HEM401      0.0000
      3  CHC      -71.8010   -2.0780    7.2220 C.2   401  HEM401      0.0000
      4  CHD      -70.9760   -6.7880    6.7290 C.2   401  HEM401      0.0000
      5  C1A      -71.3500   -6.0440   12.0190 C.2   401  HEM401      0.0000
      6  C2A      -71.4370   -5.7710   13.4380 C.2   401  HEM401      0.0000
      7  C3A      -71.6150   -4.4470   13.5790 C.2   401  HEM401      0.0000
      8  C4A      -71.6680   -3.8640   12.2560 C.2   401  HEM401      0.0000
      9  CMA      -71.7810   -3.6460   14.9020 C.3   401  HEM401      0.0000
     10  CAA      -71.3170   -6.8260   14.5610 C.3   401  HEM401      0.0000
     11  CBA      -69.8510   -7.0310   14.9890 C.3   401  HEM401      0.0000
     12  CGA      -69.0530   -7.7380   13.9060 C.2   401  HEM401      0.0000
     13  O1A      -68.3880   -7.0480   13.0780 O.co2 401  HEM401      0.0000
     14  O2A      -69.0650   -9.0040   13.8450 O.co2 401  HEM401      0.0000
     15  C1B      -71.8950   -1.9720   10.7700 C.ar  401  HEM401      0.0000
     16  C2B      -72.0680   -0.5630   10.4770 C.ar  401  HEM401      0.0000
     17  C3B      -72.0520   -0.4660    9.1470 C.ar  401  HEM401      0.0000
     18  C4B      -71.8670   -1.7800    8.5610 C.ar  401  HEM401      0.0000
     19  CMB      -72.2190    0.6080   11.5040 C.3   401  HEM401      0.0000
     20  CAB      -72.1870    0.8470    8.3560 C.2   401  HEM401      0.0000
     21  CBB      -72.8090    0.8150    7.1770 C.2   401  HEM401      0.0000
     22  C1C      -71.6080   -3.3170    6.6700 C.2   401  HEM401      0.0000
     23  C2C      -71.5980   -3.6360    5.2430 C.2   401  HEM401      0.0000
     24  C3C      -71.3710   -4.9470    5.1560 C.2   401  HEM401      0.0000
     25  C4C      -71.2320   -5.4700    6.4860 C.2   401  HEM401      0.0000
     26  CMC      -71.7990   -2.6490    4.0750 C.3   401  HEM401      0.0000
     27  CAC      -71.2640   -5.8710    3.9210 C.2   401  HEM401      0.0000
     28  CBC      -70.9160   -5.4440    2.7010 C.2   401  HEM401      0.0000
     29  C1D      -70.8950   -7.3630    7.9530 C.ar  401  HEM401      0.0000
     30  C2D      -70.5550   -8.7470    8.1870 C.ar  401  HEM401      0.0000
     31  C3D      -70.6210   -8.9160    9.6930 C.ar  401  HEM401      0.0000
     32  C4D      -70.9780   -7.5920   10.1860 C.ar  401  HEM401      0.0000
     33  CMD      -70.2090   -9.8280    7.1400 C.3   401  HEM401      0.0000
     34  CAD      -70.3580  -10.2290   10.4870 C.3   401  HEM401      0.0000
     35  CBD      -71.6620  -11.0450   10.4170 C.3   401  HEM401      0.0000
     36  CGD      -71.5090  -12.4200   11.0300 C.2   401  HEM401      0.0000
     37  O1D      -71.8530  -12.6000   12.2330 O.co2 401  HEM401      0.0000
     38  O2D      -71.0370  -13.3570   10.3300 O.co2 401  HEM401      0.0000
     39  NA       -71.4920   -4.8670   11.3210 N.2   401  HEM401      0.0000
     40  NB       -71.7830   -2.6900    9.5810 N.ar  401  HEM401      0.0000
     41  NC       -71.3900   -4.4640    7.3950 N.2   401  HEM401      0.0000
     42  ND       -71.1390   -6.7010    9.1370 N.ar  401  HEM401      0.0000
     43 FE        -71.4820   -4.6670    9.3510 Fe    401  HEM401      0.0000
@<TRIPOS>BOND
     1    28    27    2
     2    27    24    1
     3    26    23    1
     4    24    23    2
     5    24    25    1
     6    23    22    1
     7    25     4    1
     8    25    41    2
     9    22     3    2
    10    22    41    1
    11     4    29    2
    12    33    30    1
    13    21    20    2
    14     3    18    1
    15    41    43    1
    16    29    30   ar
    17    29    42   ar
    18    30    31   ar
    19    20    17    1
    20    18    17   ar
    21    18    40   ar
    22    42    43    1
    23    42    32   ar
    24    17    16   ar
    25    43    40    1
    26    43    39    1
    27    40    15   ar
    28    31    32   ar
    29    31    34    1
    30    32     1    2
    31    38    36   ar
    32    35    34    1
    33    35    36    1
    34    16    15   ar
    35    16    19    1
    36    15     2    1
    37    36    37   ar
    38    39     5    2
    39    39     8    1
    40     1     5    1
    41     2     8    2
    42     5     6    1
    43     8     7    1
    44    13    12   ar
    45     6     7    2
    46     6    10    1
    47     7     9    1
    48    14    12   ar
    49    12    11    1
    50    10    11    1
