@<TRIPOS>MOLECULE
3veh_0GA_A_1.pdb
 17 17 0 0 0
SMALL
GASTEIGER

@<TRIPOS>ATOM
      1  OAD       -4.5260   -0.6680   33.3570 O.co2 501  0GA501     -0.2371
      2  CAL       -4.4180    0.5160   33.7320 C.2   501  0GA501      0.4207
      3  OAB       -3.9340    0.7580   34.8510 O.co2 501  0GA501     -0.2371
      4  CAN       -4.6420    1.6250   32.7660 C.2   501  0GA501      0.2137
      5  CAG       -4.6800    2.9330   33.1050 C.2   501  0GA501      0.0179
      6  CAA       -4.8630    3.9190   31.9840 C.3   501  0GA501      0.0342
      7  OAK       -4.8170    1.3290   31.3390 O.2   501  0GA501     -0.4705
      8  CAP       -3.7430    0.5940   30.6850 C.3   501  0GA501      0.1968
      9  CAI       -2.5310    0.3190   31.2160 C.3   501  0GA501      0.0462
     10  CAH       -1.4330   -0.1900   30.3980 C.3   501  0GA501      0.0044
     11  CAJ       -1.7580   -0.7040   29.1530 C.3   501  0GA501      0.0141
     12  CAO       -4.1240    0.0730   29.3450 C.3   501  0GA501      0.2022
     13  OAF       -5.1730    0.7920   28.7230 O.3   501  0GA501     -0.2187
     14  CAQ       -2.9290   -0.0880   28.4310 C.3   501  0GA501      0.1373
     15  CAM       -3.3430   -0.5470   27.0280 C.2   501  0GA501      0.3669
     16  OAC       -4.4980   -0.2040   26.5910 O.co2 501  0GA501     -0.2456
     17  OAE       -2.4910   -1.1910   26.3890 O.co2 501  0GA501     -0.2456
@<TRIPOS>BOND
     1    17    15   ar
     2    16    15   ar
     3    15    14    1
     4    14    11    1
     5    14    12    1
     6    13    12    1
     7    11    10    1
     8    12     8    1
     9    10     9    1
    10     8     9    1
    11     8     7    1
    12     7     4    1
    13     6     5    1
    14     4     5    2
    15     4     2    1
    16     1     2   ar
    17     2     3   ar
