@<TRIPOS>MOLECULE
3ver_CA0_A_1.pdb
 26 28 0 0 0
SMALL
GASTEIGER

@<TRIPOS>ATOM
      1  N1        27.4430   40.3200    1.9980 N.2   603  CA0603      0.0021
      2  C2        26.9930   39.1390    2.4700 C.3   603  CA0603      0.5254
      3  N3        27.5440   38.4810    3.5120 N.2   603  CA0603     -0.0055
      4  C4        28.6240   38.9770    4.1760 C.2   603  CA0603      0.3518
      5  C5        29.1780   40.2640    3.7210 C.2   603  CA0603      0.2526
      6  C6        28.5140   40.9340    2.5620 C.2   603  CA0603      0.4393
      7  N6        28.9650   42.1220    2.0830 N.pl3 603  CA0603      0.2180
      8  N7        30.2200   40.5320    4.5300 N.2   603  CA0603     -0.2095
      9  C8        30.3330   39.5070    5.4170 C.3   603  CA0603      0.3377
     10  N9        29.3740   38.5750    5.2210 N.pl3 603  CA0603     -0.1439
     11  PA        31.7040   37.2060   10.4720 P.3   603  CA0603      0.2738
     12  CB        31.2400   39.0110   12.4260 C.2   603  CA0603      0.4451
     13  C1'       29.1850   37.3320    5.9890 C.3   603  CA0603      0.3186
     14  O1A       31.3580   36.0320   11.3330 O.3   603  CA0603     -0.4273
     15  O1B       30.2200   38.4260   12.7580 O.2   603  CA0603     -0.2225
     16  C2'       30.4650   36.5540    6.2580 C.3   603  CA0603      0.2570
     17  O2'       30.8850   35.8240    5.1210 O.3   603  CA0603     -0.2130
     18  O2A       32.9010   37.1230    9.5490 O.2   603  CA0603     -0.5081
     19  N2B       31.6040   40.1910   12.9310 N.am  603  CA0603     -0.0473
     20  C3'       30.0660   35.6940    7.4760 C.3   603  CA0603      0.2184
     21  O3'       29.5200   34.4550    7.0320 O.3   603  CA0603     -0.2174
     22  O3A       32.1320   38.3770   11.4820 O.3   603  CA0603     -0.3938
     23  C4'       28.9570   36.5110    8.1520 C.3   603  CA0603      0.1822
     24  O4'       28.6860   37.6440    7.2730 O.3   603  CA0603     -0.3135
     25  C5'       29.2440   36.9760    9.5710 C.3   603  CA0603      0.1823
     26  O5'       30.4320   37.7440    9.6730 O.3   603  CA0603     -0.3024
@<TRIPOS>BOND
     1     1     2    1
     2     1     6    2
     3     7     6    1
     4     2     3    1
     5     6     5    1
     6     3     4    2
     7     5     4    1
     8     5     8    2
     9     4    10    1
    10     8     9    1
    11    17    16    1
    12    10     9    1
    13    10    13    1
    14    13    16    1
    15    13    24    1
    16    16    20    1
    17    21    20    1
    18    24    23    1
    19    20    23    1
    20    23    25    1
    21    18    11    2
    22    25    26    1
    23    26    11    1
    24    11    14    1
    25    11    22    1
    26    22    12    1
    27    12    15    2
    28    12    19   am
