@<TRIPOS>MOLECULE
3ves_APC_A_1.pdb
 31 33 0 0 0
SMALL
GASTEIGER

@<TRIPOS>ATOM
      1  PG        33.1880   31.8450   11.5250 P.3   602  APC602      0.5389
      2  O1G       34.5070   31.5220   10.7840 O.2   602  APC602     -0.2220
      3  O2G       33.4700   32.9350   12.5240 O.3   602  APC602     -0.1143
      4  O3G       32.7230   30.6140   12.2200 O.3   602  APC602     -0.1143
      5  PB        30.8060   32.9420   10.4810 P.3   602  APC602      0.3895
      6  O1B       30.9070   34.4690   10.1380 O.2   602  APC602     -0.2544
      7  O2B       30.1830   32.7400   11.8690 O.3   602  APC602     -0.1388
      8  O3B       32.1830   32.2470   10.3860 O.3   602  APC602     -0.2026
      9  PA        27.8480   32.5710    9.5670 P.3   602  APC602      0.3820
     10  O1A       26.9530   31.3210    9.4540 O.2   602  APC602     -0.2548
     11  O2A       27.6080   33.2650   10.9400 O.3   602  APC602     -0.1392
     12  C3A       29.6180   32.0690    9.3920 C.3   602  APC602      0.2357
     13  O5'       27.3810   33.5470    8.4300 O.3   602  APC602     -0.2896
     14  C5'       28.1700   34.6150    8.0610 C.3   602  APC602      0.1836
     15  C4'       28.2100   34.8590    6.5870 C.3   602  APC602      0.1822
     16  O4'       28.0210   36.2020    6.2660 O.3   602  APC602     -0.3135
     17  C3'       29.5210   34.4530    6.0710 C.3   602  APC602      0.2184
     18  O3'       29.3420   33.7030    4.8560 O.3   602  APC602     -0.2174
     19  C2'       30.1430   35.6800    5.7120 C.3   602  APC602      0.2570
     20  O2'       31.0540   35.3860    4.7350 O.3   602  APC602     -0.2130
     21  C1'       28.9880   36.4400    5.1940 C.3   602  APC602      0.3186
     22  N9        29.2560   37.8480    4.7640 N.pl3 602  APC602     -0.1439
     23  C8        30.0370   38.7860    5.3770 C.3   602  APC602      0.3377
     24  N7        30.0090   39.9240    4.6570 N.2   602  APC602     -0.2095
     25  C5        29.2070   39.7140    3.5680 C.2   602  APC602      0.2526
     26  C6        28.8160   40.5190    2.4840 C.2   602  APC602      0.4393
     27  N6        29.2930   41.8850    2.3790 N.pl3 602  APC602      0.2180
     28  N1        27.9800   40.0060    1.5370 N.2   602  APC602      0.0021
     29  C2        27.5320   38.7290    1.6280 C.3   602  APC602      0.5254
     30  N3        27.8860   37.9270    2.6500 N.2   602  APC602     -0.0055
     31  C4        28.7210   38.3920    3.6350 C.2   602  APC602      0.3518
@<TRIPOS>BOND
     1    28    29    1
     2    28    26    2
     3    29    30    1
     4    27    26    1
     5    26    25    1
     6    30    31    2
     7    25    31    1
     8    25    24    2
     9    31    22    1
    10    24    23    1
    11    20    19    1
    12    22    21    1
    13    22    23    1
    14    18    17    1
    15    21    19    1
    16    21    16    1
    17    19    17    1
    18    17    15    1
    19    16    15    1
    20    15    14    1
    21    14    13    1
    22    13     9    1
    23    12     9    1
    24    12     5    1
    25    10     9    2
    26     9    11    1
    27     6     5    2
    28     8     5    1
    29     8     1    1
    30     5     7    1
    31     2     1    2
    32     1     4    1
    33     1     3    1
