@<TRIPOS>MOLECULE
3vet_ADP_A_1.pdb
 27 29 0 0 0
SMALL
GASTEIGER

@<TRIPOS>ATOM
      1  PB        33.2200   32.0400   11.5850 P.3   601  ADP601      0.5373
      2  O1B       34.4120   31.9210   10.6680 O.2   601  ADP601     -0.2221
      3  O2B       32.8390   30.7530   12.2700 O.3   601  ADP601     -0.1143
      4  O3B       33.3110   33.2590   12.4800 O.3   601  ADP601     -0.1143
      5  PA        30.6710   33.1580   10.5330 P.3   601  ADP601      0.2231
      6  O1A       29.4410   32.3050   10.3180 O.2   601  ADP601     -0.5169
      7  O2A       30.6410   34.1790   11.6450 O.3   601  ADP601     -0.4370
      8  O3A       31.9460   32.1680   10.5960 O.3   601  ADP601     -0.2261
      9  O5'       30.9550   33.9310    9.1290 O.3   601  ADP601     -0.3111
     10  C5'       30.2280   35.0860    8.7220 C.3   601  ADP601      0.1813
     11  C4'       29.6510   34.8880    7.3220 C.3   601  ADP601      0.1821
     12  O4'       29.0970   36.1170    6.8430 O.3   601  ADP601     -0.3135
     13  C3'       30.6650   34.4450    6.2730 C.3   601  ADP601      0.2184
     14  O3'       30.5110   33.0440    6.0100 O.3   601  ADP601     -0.2174
     15  C2'       30.3300   35.2530    5.0260 C.3   601  ADP601      0.2570
     16  O2'       29.8650   34.4140    3.9680 O.3   601  ADP601     -0.2130
     17  C1'       29.1940   36.1850    5.4200 C.3   601  ADP601      0.3186
     18  N9        29.4870   37.5640    4.9520 N.pl3 601  ADP601     -0.1439
     19  C8        30.3170   38.4520    5.5430 C.3   601  ADP601      0.3377
     20  N7        30.3600   39.6190    4.8490 N.2   601  ADP601     -0.2095
     21  C5        29.5440   39.4860    3.7860 C.2   601  ADP601      0.2526
     22  C6        29.1300   40.3320    2.6410 C.2   601  ADP601      0.4393
     23  N6        29.6030   41.5930    2.4860 N.pl3 601  ADP601      0.2180
     24  N1        28.2600   39.8020    1.7550 N.2   601  ADP601      0.0021
     25  C2        27.7790   38.5490    1.8800 C.3   601  ADP601      0.5254
     26  N3        28.1060   37.7250    2.8850 N.2   601  ADP601     -0.0055
     27  C4        28.9700   38.1300    3.8550 C.2   601  ADP601      0.3518
@<TRIPOS>BOND
     1    24    25    1
     2    24    22    2
     3    25    26    1
     4    23    22    1
     5    22    21    1
     6    26    27    2
     7    21    27    1
     8    21    20    2
     9    27    18    1
    10    16    15    1
    11    20    19    1
    12    18    17    1
    13    18    19    1
    14    15    17    1
    15    15    13    1
    16    17    12    1
    17    14    13    1
    18    13    11    1
    19    12    11    1
    20    11    10    1
    21    10     9    1
    22     9     5    1
    23     6     5    2
    24     5     8    1
    25     5     7    1
    26     8     1    1
    27     2     1    2
    28     1     3    1
    29     1     4    1
