@<TRIPOS>MOLECULE
3veu_0GO_A_1.pdb
 40 43 0 0 0
SMALL
GASTEIGER

@<TRIPOS>ATOM
      1  N1        30.1300   78.7340   15.8710 N.3   378  0GO378     -0.2679
      2  C2        31.1620   77.6620   15.6870 C.3   378  0GO378      0.1165
      3  C3        32.1880   78.3420   14.7440 C.3   378  0GO378      0.0250
      4  C4        32.2210   79.7750   15.3040 C.3   378  0GO378      0.0192
      5  C5        30.7020   80.0210   15.3990 C.3   378  0GO378      0.0725
      6  C6        31.8200   77.1910   17.0200 C.3   378  0GO378      0.0450
      7  C7        32.1030   75.6830   16.8590 C.3   378  0GO378      0.0957
      8  N8        31.2120   75.3110   15.7650 N.am  378  0GO378     -0.2719
      9  C9        30.6500   76.3590   15.1230 C.2   378  0GO378      0.2388
     10  O10       29.8430   76.3140   14.2030 O.2   378  0GO378     -0.2735
     11  C11       30.9320   73.9250   15.3620 C.3   378  0GO378      0.1535
     12  C12       30.7840   73.0020   16.5540 C.2   378  0GO378      0.2595
     13  N13       29.6150   73.0780   17.2590 N.am  378  0GO378     -0.2028
     14  O14       31.6990   72.2320   16.8410 O.2   378  0GO378     -0.2716
     15  C15       29.2280   78.8160   17.0510 C.3   378  0GO378      0.0724
     16  C16       27.8750   78.1100   16.7750 C.3   378  0GO378      0.0173
     17  C17       26.9240   78.2220   17.9920 C.3   378  0GO378      0.0015
     18  C18       31.9530   73.4350   14.2950 C.3   378  0GO378      0.0315
     19  C19       29.3280   72.2530   18.4470 C.3   378  0GO378      0.1314
     20  C20       28.3840   71.0680   18.0730 C.3   378  0GO378      0.1894
     21  C21       28.9700   70.1470   16.9750 C.3   378  0GO378      0.1237
     22  N22       28.1370   68.9400   16.7910 N.3   378  0GO378     -0.2105
     23  C23       28.8240   67.7810   16.1650 C.3   378  0GO378      0.1151
     24  C24       28.7310   73.1270   19.5920 C.3   378  0GO378      0.0506
     25  C25       29.5700   74.3480   20.0040 C.ar  378  0GO378     -0.0204
     26  C26       28.9050   75.5810   20.2180 C.ar  378  0GO378     -0.0042
     27  C27       29.6320   76.7340   20.6030 C.ar  378  0GO378     -0.0003
     28  C28       31.0350   76.6590   20.7760 C.ar  378  0GO378     -0.0000
     29  C29       31.7070   75.4310   20.5630 C.ar  378  0GO378     -0.0003
     30  C30       30.9800   74.2780   20.1780 C.ar  378  0GO378     -0.0042
     31  O31       28.0190   70.2770   19.2180 O.3   378  0GO378     -0.2197
     32  C32       29.9550   67.2260   17.0540 C.ar  378  0GO378     -0.0051
     33  C33       31.2870   67.2340   16.5700 C.ar  378  0GO378     -0.0029
     34  C34       32.3330   66.7300   17.3790 C.ar  378  0GO378     -0.0006
     35  C35       32.0590   66.2150   18.6670 C.ar  378  0GO378     -0.0043
     36  C36       30.7320   66.1940   19.1700 C.ar  378  0GO378     -0.0228
     37  C37       29.6880   66.7070   18.3490 C.ar  378  0GO378     -0.0072
     38  C38       30.4660   65.6170   20.5820 C.3   378  0GO378      0.0223
     39  C39       30.3680   66.7230   21.6600 C.3   378  0GO378      0.0047
     40  C40       29.2500   64.6500   20.6440 C.3   378  0GO378      0.0047
@<TRIPOS>BOND
     1    10     9    2
     2    18    11    1
     3     3     4    1
     4     3     2    1
     5     9     2    1
     6     9     8   am
     7     4     5    1
     8    11     8    1
     9    11    12    1
    10     5     1    1
    11     2     1    1
    12     2     6    1
    13     8     7    1
    14     1    15    1
    15    23    22    1
    16    23    32    1
    17    12    14    2
    18    12    13   am
    19    33    32   ar
    20    33    34   ar
    21    16    15    1
    22    16    17    1
    23    22    21    1
    24     7     6    1
    25    21    20    1
    26    32    37   ar
    27    13    19    1
    28    34    35   ar
    29    20    19    1
    30    20    31    1
    31    37    36   ar
    32    19    24    1
    33    35    36   ar
    34    36    38    1
    35    24    25    1
    36    25    30   ar
    37    25    26   ar
    38    30    29   ar
    39    26    27   ar
    40    29    28   ar
    41    38    40    1
    42    38    39    1
    43    27    28   ar
