@<TRIPOS>MOLECULE
3vev_0H4_A_1.pdb
 50 52 0 0 0
SMALL
GASTEIGER

@<TRIPOS>ATOM
      1  N3        -8.6120   -1.0550   20.5550 N.2   502  0H4502     -0.3998
      2  C4        -8.6670    3.8440   17.9660 C.ar  502  0H4502      0.0093
      3  N2        -9.2150    1.1240   21.3840 N.am  502  0H4502     -0.2589
      4  C7        -6.8240    5.7800   18.7800 C.ar  502  0H4502      0.0146
      5  C6        -7.0330    5.5340   17.4710 C.ar  502  0H4502      0.0613
      6  C9        -7.5840    5.0610   19.7950 C.ar  502  0H4502      0.2525
      7  C13      -12.5470    6.3860   21.4410 C.3   502  0H4502     -0.0528
      8  C20       -8.3220   -4.3640   22.3520 C.3   502  0H4502     -0.0490
      9  C8        -6.2880    6.2970   16.3770 C.3   502  0H4502      0.4176
     10  C18       -8.5950   -2.9260   22.1130 C.3   502  0H4502      0.0473
     11  C16       -9.1700   -0.7380   22.9070 C.2   502  0H4502     -0.0122
     12  C19       -8.4190   -2.3590   20.8430 C.2   502  0H4502      0.0684
     13  N1        -8.5330    4.1070   19.3220 N.ar  502  0H4502     -0.3033
     14  C1        -9.3320    3.3260   20.2880 C.3   502  0H4502      0.1138
     15  C2        -8.8800    1.8470   20.2340 C.2   502  0H4502      0.2420
     16  O1        -8.2960    1.3770   19.2780 O.2   502  0H4502     -0.2731
     17  C3        -8.9860   -0.2540   21.6010 C.2   502  0H4502      0.1758
     18  C5        -7.9540    4.5440   17.0370 C.ar  502  0H4502     -0.0337
     19  O2        -7.4700    5.2490   21.0010 O.2   502  0H4502     -0.2677
     20  C10      -10.8390    3.3920   19.9900 C.3   502  0H4502     -0.0206
     21  C11      -11.3500    4.8330   19.9500 C.3   502  0H4502     -0.0387
     22  C12      -11.2790    5.5320   21.3120 C.3   502  0H4502     -0.0501
     23  C14      -13.3570    6.1730   20.1600 C.3   502  0H4502     -0.0528
     24  C15      -12.8320    4.8740   19.5570 C.3   502  0H4502     -0.0501
     25  C17       -8.9990   -2.0910   23.1470 C.2   502  0H4502     -0.0665
     26  F1        -5.4180    5.5270   15.7070 F     502  0H4502     -0.1659
     27  F2        -7.1000    6.8050   15.4340 F     502  0H4502     -0.1659
     28  F3        -5.5720    7.3470   16.8070 F     502  0H4502     -0.1659
     29  H3        -9.3590    3.0460   17.6580 H     502  0H4502      0.0810
     30  H2        -9.6270    1.6230   22.1690 H     502  0H4502      0.1573
     31  H5        -6.1030    6.5140   19.1580 H     502  0H4502      0.0677
     32  H12      -12.3110    7.4550   21.6040 H     502  0H4502      0.0265
     33  H11      -13.1310    6.0970   22.3370 H     502  0H4502      0.0265
     34  H22       -8.8910   -5.0030   21.6640 H     502  0H4502      0.0242
     35  H21       -7.2570   -4.5970   22.1950 H     502  0H4502      0.0242
     36  H20       -8.5700   -4.6920   23.3720 H     502  0H4502      0.0242
     37  H17       -9.3740   -0.0710   23.7430 H     502  0H4502      0.0660
     38  H19       -8.1040   -2.9650   19.9820 H     502  0H4502      0.0931
     39  H1        -9.1530    3.7470   21.3190 H     502  0H4502      0.0625
     40  H4        -8.0780    4.3350   15.9710 H     502  0H4502      0.0638
     41  H6       -11.0910    2.8750   19.0400 H     502  0H4502      0.0293
     42  H7       -11.3830    2.8100   20.7640 H     502  0H4502      0.0293
     43  H8       -10.7690    5.4210   19.1970 H     502  0H4502      0.0302
     44  H9       -10.3590    6.1440   21.4040 H     502  0H4502      0.0268
     45  H10      -11.2080    4.8120   22.1510 H     502  0H4502      0.0268
     46  H14      -13.2300    7.0190   19.4560 H     502  0H4502      0.0265
     47  H13      -14.4470    6.1370   20.3500 H     502  0H4502      0.0265
     48  H16      -12.9820    4.8180   18.4620 H     502  0H4502      0.0268
     49  H15      -13.3830    4.0020   19.9620 H     502  0H4502      0.0268
     50  H18       -9.1520   -2.4850   24.1570 H     502  0H4502      0.0583
@<TRIPOS>BOND
     1    27     9    1
     2    26     9    1
     3    40    18    1
     4     9    28    1
     5     9     5    1
     6    18     5   ar
     7    18     2   ar
     8     5     4   ar
     9    29     2    1
    10     2    13   ar
    11    48    24    1
    12     4    31    1
    13     4     6   ar
    14    41    20    1
    15    43    21    1
    16    16    15    2
    17    13     6   ar
    18    13    14    1
    19    46    23    1
    20    24    21    1
    21    24    49    1
    22    24    23    1
    23     6    19    2
    24    21    20    1
    25    21    22    1
    26    38    12    1
    27    20    14    1
    28    20    42    1
    29    23    47    1
    30    23     7    1
    31    15    14    1
    32    15     3   am
    33    14    39    1
    34     1    12    2
    35     1    17    2
    36    12    10    1
    37    22    44    1
    38    22     7    1
    39    22    45    1
    40     3    17    1
    41     3    30    1
    42     7    32    1
    43     7    33    1
    44    17    11    1
    45    34     8    1
    46    10     8    1
    47    10    25    1
    48    35     8    1
    49     8    36    1
    50    11    25    2
    51    11    37    1
    52    25    50    1
