@<TRIPOS>MOLECULE
3vev_GLC_A_1.pdb
 12 12 0 0 0
SMALL
GASTEIGER

@<TRIPOS>ATOM
      1  C1       -28.0740   -5.5310   11.9530 C.3   501  GLC501      0.3024
      2  C2       -27.0530   -6.2550   12.8930 C.3   501  GLC501      0.2434
      3  C3       -26.0330   -5.2220   13.4930 C.3   501  GLC501      0.2199
      4  C4       -25.3810   -4.3430   12.3790 C.3   501  GLC501      0.2144
      5  C5       -26.4730   -3.6670   11.4850 C.3   501  GLC501      0.1836
      6  C6       -25.9430   -2.8750   10.3190 C.3   501  GLC501      0.2142
      7  O1       -28.7690   -4.5710   12.8010 O.3   501  GLC501     -0.1869
      8  O2       -27.7190   -6.9650   13.9070 O.3   501  GLC501     -0.2148
      9  O3       -25.0000   -5.9610   14.1680 O.3   501  GLC501     -0.2174
     10  O4       -24.5610   -3.3270   12.9690 O.3   501  GLC501     -0.2176
     11  O5       -27.3750   -4.7280   11.0060 O.3   501  GLC501     -0.3236
     12  O6       -25.1090   -3.7170    9.5060 O.3   501  GLC501     -0.2176
@<TRIPOS>BOND
     1    12     6    1
     2     6     5    1
     3    11     5    1
     4    11     1    1
     5     5     4    1
     6     1     7    1
     7     1     2    1
     8     4    10    1
     9     4     3    1
    10     2     3    1
    11     2     8    1
    12     3     9    1
