@<TRIPOS>MOLECULE
3vew_ADP_A_1.pdb
 27 29 0 0 0
SMALL
GASTEIGER

@<TRIPOS>ATOM
      1  PB        12.1220   28.1340   13.6490 P.3   601  ADP601      0.5373
      2  O1B       12.0890   28.1220   12.1450 O.2   601  ADP601     -0.2221
      3  O2B       12.2320   26.7440   14.2580 O.3   601  ADP601     -0.1143
      4  O3B       11.0300   28.9860   14.2630 O.3   601  ADP601     -0.1143
      5  PA        14.0770   30.2810   13.5330 P.3   601  ADP601      0.2231
      6  O1A       12.9930   31.3050   13.7260 O.2   601  ADP601     -0.5169
      7  O2A       15.4440   30.4890   14.1600 O.3   601  ADP601     -0.4370
      8  O3A       13.5420   28.8300   14.0320 O.3   601  ADP601     -0.2261
      9  O5'       14.2940   30.1470   11.9440 O.3   601  ADP601     -0.3111
     10  C5'       15.1670   29.1560   11.4140 C.3   601  ADP601      0.1813
     11  C4'       15.1600   29.3760    9.9130 C.3   601  ADP601      0.1821
     12  O4'       15.8310   30.5980    9.5830 O.3   601  ADP601     -0.3135
     13  C3'       15.8650   28.2570    9.1670 C.3   601  ADP601      0.2184
     14  O3'       14.8620   27.4770    8.5090 O.3   601  ADP601     -0.2174
     15  C2'       16.7640   28.9730    8.1720 C.3   601  ADP601      0.2570
     16  O2'       16.6040   28.4880    6.8320 O.3   601  ADP601     -0.2130
     17  C1'       16.3750   30.4420    8.2720 C.3   601  ADP601      0.3186
     18  N9        17.5770   31.2840    8.0660 N.pl3 601  ADP601     -0.1439
     19  C8        18.5850   31.4490    8.9500 C.3   601  ADP601      0.3377
     20  N7        19.5340   32.2710    8.4330 N.2   601  ADP601     -0.2095
     21  C5        19.1310   32.6340    7.1970 C.2   601  ADP601      0.2526
     22  C6        19.6630   33.4890    6.1140 C.2   601  ADP601      0.4393
     23  N6        20.8580   34.1330    6.2460 N.pl3 601  ADP601      0.2180
     24  N1        18.9090   33.6000    4.9980 N.2   601  ADP601      0.0021
     25  C2        17.7290   32.9690    4.8290 C.3   601  ADP601      0.5254
     26  N3        17.1840   32.1800    5.7710 N.2   601  ADP601     -0.0055
     27  C4        17.8360   31.9810    6.9540 C.2   601  ADP601      0.3518
@<TRIPOS>BOND
     1    25    24    1
     2    25    26    1
     3    24    22    2
     4    26    27    2
     5    22    23    1
     6    22    21    1
     7    16    15    1
     8    27    21    1
     9    27    18    1
    10    21    20    2
    11    18    17    1
    12    18    19    1
    13    15    17    1
    14    15    13    1
    15    17    12    1
    16    20    19    1
    17    14    13    1
    18    13    11    1
    19    12    11    1
    20    11    10    1
    21    10     9    1
    22     9     5    1
    23     2     1    2
    24     5     6    2
    25     5     8    1
    26     5     7    1
    27     1     8    1
    28     1     3    1
    29     1     4    1
