@<TRIPOS>MOLECULE
3vex_CA0_A_1.pdb
 26 28 0 0 0
SMALL
GASTEIGER

@<TRIPOS>ATOM
      1  N1        18.6370   33.6920    4.8810 N.2   602  CA0602      0.0021
      2  C2        17.4590   33.0750    4.7010 C.3   602  CA0602      0.5254
      3  N3        16.9060   32.3020    5.6520 N.2   602  CA0602     -0.0055
      4  C4        17.5170   32.1200    6.8470 C.2   602  CA0602      0.3518
      5  C5        18.7940   32.7580    7.1230 C.2   602  CA0602      0.2526
      6  C6        19.3430   33.5790    6.0340 C.2   602  CA0602      0.4393
      7  N6        20.5210   34.1910    6.2170 N.pl3 602  CA0602      0.2180
      8  N7        19.1620   32.4100    8.3740 N.2   602  CA0602     -0.2095
      9  C8        18.1990   31.6040    8.8740 C.3   602  CA0602      0.3377
     10  N9        17.2310   31.4450    7.9470 N.pl3 602  CA0602     -0.1439
     11  PA        13.5980   30.5080   13.2280 P.3   602  CA0602      0.2738
     12  CB        11.8330   28.4020   13.1700 C.2   602  CA0602      0.4451
     13  C1'       16.0150   30.6570    8.0330 C.3   602  CA0602      0.3186
     14  O1A       14.9430   30.6500   13.8880 O.3   602  CA0602     -0.4273
     15  O1B       11.7320   27.6010   12.2300 O.2   602  CA0602     -0.2225
     16  C2'       16.2380   29.1610    7.8450 C.3   602  CA0602      0.2570
     17  O2'       16.1080   28.7870    6.4900 O.3   602  CA0602     -0.2130
     18  O2A       12.4880   31.4380   13.6140 O.2   602  CA0602     -0.5081
     19  N2B       10.7880   28.7230   13.9440 N.am  602  CA0602     -0.0473
     20  C3'       15.2130   28.5160    8.7940 C.3   602  CA0602      0.2184
     21  O3'       14.1810   27.8870    8.0410 O.3   602  CA0602     -0.2174
     22  O3A       13.1460   28.9750   13.4820 O.3   602  CA0602     -0.3938
     23  C4'       14.6210   29.6880    9.5720 C.3   602  CA0602      0.1822
     24  O4'       15.4720   30.8140    9.3080 O.3   602  CA0602     -0.3135
     25  C5'       14.5450   29.4790   11.0440 C.3   602  CA0602      0.1823
     26  O5'       13.7800   30.4990   11.6620 O.3   602  CA0602     -0.3024
@<TRIPOS>BOND
     1     2     1    1
     2     2     3    1
     3     1     6    2
     4     3     4    2
     5     6     7    1
     6     6     5    1
     7    17    16    1
     8     4     5    1
     9     4    10    1
    10     5     8    2
    11    16    13    1
    12    16    20    1
    13    10    13    1
    14    10     9    1
    15    13    24    1
    16    21    20    1
    17     8     9    1
    18    20    23    1
    19    24    23    1
    20    23    25    1
    21    25    26    1
    22    26    11    1
    23    15    12    2
    24    12    22    1
    25    12    19   am
    26    11    22    1
    27    11    18    2
    28    11    14    1
