@<TRIPOS>MOLECULE
3vey_0H5_A_1.pdb
 19 21 0 0 0
SMALL
GASTEIGER

@<TRIPOS>ATOM
      1  C4        40.4600   17.0230   64.7800 C.2   504  0H5504      0.0739
      2  C6        40.3650   15.9580   62.5860 C.2   504  0H5504      0.0286
      3  C13       42.2200   12.8300   62.6010 C.3   504  0H5504      0.2525
      4  C8        39.1590   18.8850   65.2810 C.3   504  0H5504      0.3913
      5  C18       36.5840   19.7190   61.7500 C.ar  504  0H5504      0.0866
      6  C19       36.1520   20.2300   58.1570 C.3   504  0H5504      0.1539
      7  C1        41.2840   14.9780   63.0120 C.2   504  0H5504      0.1355
      8  C2        41.8230   15.0180   64.3280 C.2   504  0H5504      0.0378
      9  C3        41.4080   16.0360   65.2010 C.2   504  0H5504      0.0184
     10  C5        39.9270   16.9770   63.4540 C.3   504  0H5504      0.1740
     11  N7        40.0610   17.9960   65.6540 N.2   504  0H5504     -0.2221
     12  N9        38.6140   18.9260   64.0510 N.2   504  0H5504     -0.0363
     13  C10       38.9790   17.9830   63.1000 C.2   504  0H5504      0.3500
     14  O11       41.6010   14.0020   62.0500 O.2   504  0H5504     -0.4717
     15  N12       38.4270   18.0030   61.7740 N.pl3 504  0H5504      0.0123
     16  C14       37.5300   18.8430   61.1570 C.ar  504  0H5504      0.2838
     17  N15       37.4570   18.9630   59.8160 N.ar  504  0H5504     -0.1251
     18  N16       36.5020   19.8860   59.5430 N.ar  504  0H5504     -0.2441
     19  C17       35.9560   20.3680   60.7000 C.ar  504  0H5504      0.1006
@<TRIPOS>BOND
     1     6    18    1
     2    18    17   ar
     3    18    19   ar
     4    17    16   ar
     5    19     5   ar
     6    16     5   ar
     7    16    15    1
     8    15    13    1
     9    14     3    1
    10    14     7    1
    11     2     7    2
    12     2    10    1
    13     7     8    1
    14    13    10    1
    15    13    12    2
    16    10     1    1
    17    12     4    1
    18     8     9    2
    19     1     9    1
    20     1    11    2
    21     4    11    1
