@<TRIPOS>MOLECULE
3vey_AGS_A_1.pdb
 31 33 0 0 0
SMALL
GASTEIGER

@<TRIPOS>ATOM
      1  PG        24.9720    4.8510   73.0170 P.3   503  AGS503      0.4340
      2  S1G       26.2860    6.5620   72.7650 S.3   503  AGS503      0.0416
      3  O2G       25.8420    3.6910   73.6750 O.3   503  AGS503     -0.1305
      4  O3G       24.4640    4.2110   71.7640 O.2   503  AGS503     -0.2423
      5  PB        24.0210    5.4470   75.5140 P.3   503  AGS503      0.2262
      6  O1B       24.3500    6.8820   75.7340 O.2   503  AGS503     -0.5168
      7  O2B       22.7330    5.0520   76.4290 O.3   503  AGS503     -0.4369
      8  O3B       23.6690    5.2450   73.9420 O.3   503  AGS503     -0.2405
      9  PA        25.5230    3.8990   77.3090 P.3   503  AGS503      0.2189
     10  O1A       27.0010    3.8020   77.3900 O.2   503  AGS503     -0.5170
     11  O2A       24.9280    4.7410   78.5760 O.3   503  AGS503     -0.4371
     12  O3A       25.3530    4.6040   75.8780 O.3   503  AGS503     -0.2701
     13  O5'       24.8930    2.4170   77.2150 O.3   503  AGS503     -0.3112
     14  C5'       23.6350    2.2170   77.8860 C.3   503  AGS503      0.1813
     15  C4'       23.2290    0.7960   77.4660 C.3   503  AGS503      0.1821
     16  O4'       24.1170   -0.2010   78.0050 O.3   503  AGS503     -0.3135
     17  C3'       21.7930    0.3500   77.7780 C.3   503  AGS503      0.2184
     18  O3'       21.3210   -0.3780   76.6490 O.3   503  AGS503     -0.2174
     19  C2'       21.9530   -0.5470   79.0430 C.3   503  AGS503      0.2570
     20  O2'       21.0120   -1.6310   79.0880 O.3   503  AGS503     -0.2130
     21  C1'       23.4310   -1.0250   78.9690 C.3   503  AGS503      0.3186
     22  N9        24.1100   -1.1280   80.2870 N.pl3 503  AGS503     -0.1439
     23  C8        23.8220   -0.4190   81.4290 C.3   503  AGS503      0.3377
     24  N7        24.5960   -0.7990   82.4170 N.2   503  AGS503     -0.2095
     25  C5        25.4350   -1.7760   82.0030 C.2   503  AGS503      0.2526
     26  C6        26.4750   -2.5410   82.6150 C.2   503  AGS503      0.4393
     27  N6        26.8190   -2.3990   83.9590 N.pl3 503  AGS503      0.2180
     28  N1        27.1320   -3.4310   81.8480 N.2   503  AGS503      0.0021
     29  C2        26.8300   -3.6580   80.5450 C.3   503  AGS503      0.5254
     30  N3        25.8690   -2.9510   79.9270 N.2   503  AGS503     -0.0055
     31  C4        25.1390   -2.0110   80.6140 C.2   503  AGS503      0.3518
@<TRIPOS>BOND
     1     4     1    2
     2     2     1    1
     3     1     3    1
     4     1     8    1
     5     8     5    1
     6     5     6    2
     7     5    12    1
     8     5     7    1
     9    12     9    1
    10    18    17    1
    11    13     9    1
    12    13    14    1
    13     9    10    2
    14     9    11    1
    15    15    17    1
    16    15    14    1
    17    15    16    1
    18    17    19    1
    19    16    21    1
    20    21    19    1
    21    21    22    1
    22    19    20    1
    23    30    29    1
    24    30    31    2
    25    22    31    1
    26    22    23    1
    27    29    28    1
    28    31    25    1
    29    23    24    1
    30    28    26    2
    31    25    24    2
    32    25    26    1
    33    26    27    1
