@<TRIPOS>MOLECULE
3vey_GLC_A_1.pdb
 12 12 0 0 0
SMALL
GASTEIGER

@<TRIPOS>ATOM
      1  C1        23.2130    3.2080   66.3650 C.3   501  GLC501      0.3024
      2  C2        23.2990    4.4120   65.4350 C.3   501  GLC501      0.2434
      3  C3        24.7360    4.9630   65.2340 C.3   501  GLC501      0.2199
      4  C4        25.4050    5.1300   66.6120 C.3   501  GLC501      0.2144
      5  C5        25.3860    3.7980   67.4280 C.3   501  GLC501      0.1836
      6  C6        25.9760    3.8350   68.8370 C.3   501  GLC501      0.2142
      7  O1        23.8180    2.1360   65.6870 O.3   501  GLC501     -0.1869
      8  O2        22.6380    4.0780   64.2180 O.3   501  GLC501     -0.2148
      9  O3        24.6400    6.2860   64.7050 O.3   501  GLC501     -0.2174
     10  O4        26.7320    5.5360   66.4290 O.3   501  GLC501     -0.2176
     11  O5        24.0290    3.3580   67.5320 O.3   501  GLC501     -0.3236
     12  O6        25.3160    4.8990   69.4900 O.3   501  GLC501     -0.2176
@<TRIPOS>BOND
     1     8     2    1
     2     9     3    1
     3     3     2    1
     4     3     4    1
     5     2     1    1
     6     7     1    1
     7     1    11    1
     8    10     4    1
     9     4     5    1
    10     5    11    1
    11     5     6    1
    12     6    12    1
