@<TRIPOS>MOLECULE
3vez_ADP_A_1.pdb
 27 29 0 0 0
SMALL
GASTEIGER

@<TRIPOS>ATOM
      1  PB        11.9860   28.3740   13.6370 P.3   603  ADP603      0.5373
      2  O1B       11.6660   28.3710   12.1640 O.2   603  ADP603     -0.2221
      3  O2B       12.1000   26.9670   14.1930 O.3   603  ADP603     -0.1143
      4  O3B       11.1220   29.3240   14.4410 O.3   603  ADP603     -0.1143
      5  PA        14.0050   30.4960   13.4240 P.3   603  ADP603      0.2231
      6  O1A       12.8350   31.4390   13.6190 O.2   603  ADP603     -0.5169
      7  O2A       15.3500   30.7760   14.0710 O.3   603  ADP603     -0.4370
      8  O3A       13.5080   28.9740   13.7700 O.3   603  ADP603     -0.2261
      9  O5'       14.3220   30.4120   11.8560 O.3   603  ADP603     -0.3111
     10  C5'       14.6450   29.1970   11.1900 C.3   603  ADP603      0.1813
     11  C4'       14.8600   29.5860    9.7280 C.3   603  ADP603      0.1821
     12  O4'       15.6770   30.7540    9.6070 O.3   603  ADP603     -0.3135
     13  C3'       15.5580   28.4970    8.9300 C.3   603  ADP603      0.2184
     14  O3'       14.5550   27.8540    8.1420 O.3   603  ADP603     -0.2174
     15  C2'       16.6090   29.2350    8.1060 C.3   603  ADP603      0.2570
     16  O2'       16.6200   28.9140    6.7070 O.3   603  ADP603     -0.2130
     17  C1'       16.2390   30.6970    8.3000 C.3   603  ADP603      0.3186
     18  N9        17.4560   31.5040    8.1010 N.pl3 603  ADP603     -0.1439
     19  C8        18.4760   31.6670    8.9690 C.3   603  ADP603      0.3377
     20  N7        19.4360   32.4610    8.4240 N.2   603  ADP603     -0.2095
     21  C5        19.0310   32.8140    7.1840 C.2   603  ADP603      0.2526
     22  C6        19.5740   33.6370    6.0790 C.2   603  ADP603      0.4393
     23  N6        20.7780   34.2550    6.1940 N.pl3 603  ADP603      0.2180
     24  N1        18.8200   33.7460    4.9610 N.2   603  ADP603      0.0021
     25  C2        17.6220   33.1390    4.8520 C.3   603  ADP603      0.5254
     26  N3        17.0620   32.3760    5.8150 N.2   603  ADP603     -0.0055
     27  C4        17.7200   32.1750    6.9770 C.2   603  ADP603      0.3518
@<TRIPOS>BOND
     1    25    24    1
     2    25    26    1
     3    24    22    2
     4    26    27    2
     5    22    23    1
     6    22    21    1
     7    16    15    1
     8    27    21    1
     9    27    18    1
    10    21    20    2
    11    18    17    1
    12    18    19    1
    13    15    17    1
    14    15    13    1
    15    14    13    1
    16    17    12    1
    17    20    19    1
    18    13    11    1
    19    12    11    1
    20    11    10    1
    21    10     9    1
    22     9     5    1
    23     2     1    2
    24     5     6    2
    25     5     8    1
    26     5     7    1
    27     1     8    1
    28     1     3    1
    29     1     4    1
