@<TRIPOS>MOLECULE
3vez_ATP_A_1.pdb
 31 33 0 0 0
SMALL
GASTEIGER

@<TRIPOS>ATOM
      1  PG        31.2700   30.2080   11.2360 P.3   604  ATP604      0.5373
      2  O1G       30.9460   28.9090   10.5210 O.2   604  ATP604     -0.2221
      3  O2G       30.7150   30.3210   12.6390 O.3   604  ATP604     -0.1143
      4  O3G       32.7120   30.6430   11.1350 O.3   604  ATP604     -0.1143
      5  PB        29.2550   32.2410   10.8400 P.3   604  ATP604      0.2277
      6  O1B       29.7590   33.6040   11.2680 O.2   604  ATP604     -0.5168
      7  O2B       28.3300   31.4560   11.7490 O.3   604  ATP604     -0.4368
      8  O3B       30.5060   31.3330   10.3580 O.3   604  ATP604     -0.2258
      9  PA        26.9370   32.4020    9.2880 P.3   604  ATP604      0.2189
     10  O1A       26.4920   30.9870    8.9570 O.2   604  ATP604     -0.5170
     11  O2A       26.3070   33.1440   10.4450 O.3   604  ATP604     -0.4371
     12  O3A       28.5380   32.4540    9.4220 O.3   604  ATP604     -0.2700
     13  O5'       26.7860   33.3170    7.9840 O.3   604  ATP604     -0.3112
     14  C5'       27.1780   34.6840    8.0180 C.3   604  ATP604      0.1813
     15  C4'       27.5630   34.8830    6.5760 C.3   604  ATP604      0.1821
     16  O4'       27.1480   36.1370    6.0600 O.3   604  ATP604     -0.3135
     17  C3'       29.0490   34.8250    6.2870 C.3   604  ATP604      0.2184
     18  O3'       29.5370   33.4860    6.3280 O.3   604  ATP604     -0.2174
     19  C2'       29.0590   35.3700    4.8720 C.3   604  ATP604      0.2570
     20  O2'       28.9220   34.2640    3.9700 O.3   604  ATP604     -0.2130
     21  C1'       27.8080   36.2440    4.7980 C.3   604  ATP604      0.3186
     22  N9        28.1240   37.6640    4.5120 N.pl3 604  ATP604     -0.1439
     23  C8        28.8970   38.4910    5.2480 C.3   604  ATP604      0.3377
     24  N7        28.9720   39.7240    4.6860 N.2   604  ATP604     -0.2095
     25  C5        28.2270   39.6870    3.5590 C.2   604  ATP604      0.2526
     26  C6        27.8600   40.6340    2.4780 C.2   604  ATP604      0.4393
     27  N6        28.3200   41.9050    2.4780 N.pl3 604  ATP604      0.2180
     28  N1        27.0570   40.1870    1.4880 N.2   604  ATP604      0.0021
     29  C2        26.5940   38.9240    1.4610 C.3   604  ATP604      0.5254
     30  N3        26.8790   38.0080    2.4020 N.2   604  ATP604     -0.0055
     31  C4        27.6730   38.3290    3.4520 C.2   604  ATP604      0.3518
@<TRIPOS>BOND
     1    29    28    1
     2    29    30    1
     3    28    26    2
     4    30    31    2
     5    27    26    1
     6    26    25    1
     7    31    25    1
     8    31    22    1
     9    25    24    2
    10    20    19    1
    11    22    21    1
    12    22    23    1
    13    24    23    1
    14    21    19    1
    15    21    16    1
    16    19    17    1
    17    16    15    1
    18    17    18    1
    19    17    15    1
    20    15    14    1
    21    13    14    1
    22    13     9    1
    23    10     9    2
    24     9    12    1
    25     9    11    1
    26    12     5    1
    27     8     5    1
    28     8     1    1
    29     2     1    2
    30     5     6    2
    31     5     7    1
    32     4     1    1
    33     1     3    1
