@<TRIPOS>MOLECULE
3vf2_ADP_A_1.pdb
 27 29 0 0 0
SMALL
GASTEIGER

@<TRIPOS>ATOM
      1  PB        12.3770   28.3760   13.5980 P.3   604  ADP604      0.5373
      2  O1B       11.9300   28.5800   12.1740 O.2   604  ADP604     -0.2221
      3  O2B       12.6440   26.9280   13.9590 O.3   604  ADP604     -0.1143
      4  O3B       11.5090   29.0920   14.6140 O.3   604  ADP604     -0.1143
      5  PA        14.2820   30.5910   13.3240 P.3   604  ADP604      0.2231
      6  O1A       13.1640   31.5870   13.5820 O.2   604  ADP604     -0.5169
      7  O2A       15.6620   30.7380   13.9340 O.3   604  ADP604     -0.4370
      8  O3A       13.8470   29.0590   13.6810 O.3   604  ADP604     -0.2261
      9  O5'       14.4870   30.5950   11.7270 O.3   604  ADP604     -0.3111
     10  C5'       14.9150   29.4190   11.0430 C.3   604  ADP604      0.1813
     11  C4'       15.2040   29.7660    9.5900 C.3   604  ADP604      0.1821
     12  O4'       16.0370   30.9230    9.4590 O.3   604  ADP604     -0.3135
     13  C3'       15.9450   28.6710    8.8450 C.3   604  ADP604      0.2184
     14  O3'       15.0100   27.8050    8.1790 O.3   604  ADP604     -0.2174
     15  C2'       16.8410   29.4380    7.8790 C.3   604  ADP604      0.2570
     16  O2'       16.5610   29.1400    6.5120 O.3   604  ADP604     -0.2130
     17  C1'       16.5260   30.9030    8.1180 C.3   604  ADP604      0.3186
     18  N9        17.7510   31.7170    7.9070 N.pl3 604  ADP604     -0.1439
     19  C8        18.7630   31.9030    8.7880 C.3   604  ADP604      0.3377
     20  N7        19.7370   32.6940    8.2560 N.2   604  ADP604     -0.2095
     21  C5        19.3400   33.0250    7.0120 C.2   604  ADP604      0.2526
     22  C6        19.8930   33.8340    5.9140 C.2   604  ADP604      0.4393
     23  N6        21.0930   34.4590    6.0510 N.pl3 604  ADP604      0.2180
     24  N1        19.1740   33.9250    4.7760 N.2   604  ADP604      0.0021
     25  C2        17.9890   33.3110    4.6370 C.3   604  ADP604      0.5254
     26  N3        17.4250   32.5560    5.6020 N.2   604  ADP604     -0.0055
     27  C4        18.0430   32.3790    6.7870 C.2   604  ADP604      0.3518
@<TRIPOS>BOND
     1    25    24    1
     2    25    26    1
     3    24    22    2
     4    26    27    2
     5    22    23    1
     6    22    21    1
     7    16    15    1
     8    27    21    1
     9    27    18    1
    10    21    20    2
    11    15    17    1
    12    15    13    1
    13    18    17    1
    14    18    19    1
    15    17    12    1
    16    14    13    1
    17    20    19    1
    18    13    11    1
    19    12    11    1
    20    11    10    1
    21    10     9    1
    22     9     5    1
    23     2     1    2
    24     5     6    2
    25     5     8    1
    26     5     7    1
    27     1     8    1
    28     1     3    1
    29     1     4    1
