@<TRIPOS>MOLECULE
3vf3_0GS_A_1.pdb
 31 33 0 0 0
SMALL
GASTEIGER

@<TRIPOS>ATOM
      1 BR1        29.3810   78.9180   19.8940 Br    401  0GS401     -0.0475
      2  C2        30.1390   77.3370   20.5050 C.ar  401  0GS401      0.0532
      3  C3        31.3930   77.2540   21.1810 C.ar  401  0GS401      0.1225
      4  C4        31.8640   75.9770   21.5940 C.ar  401  0GS401      0.1569
      5  C5        31.1140   74.8060   21.3480 C.ar  401  0GS401      0.0268
      6  C7        29.8700   74.8920   20.6740 C.ar  401  0GS401     -0.0192
      7  C8        29.3930   76.1630   20.2630 C.ar  401  0GS401      0.0039
      8  C10       29.0400   73.6260   20.3770 C.3   401  0GS401      0.0308
      9  C13       29.7230   72.7210   19.2810 C.3   401  0GS401      0.0598
     10  C15       28.8460   71.5130   18.8070 C.3   401  0GS401      0.1715
     11  C17       29.5950   70.5510   17.8270 C.3   401  0GS401      0.1270
     12  C19       30.1430   71.2460   16.5490 C.3   401  0GS401      0.1707
     13  S22       31.2730   72.5680   17.0070 S.O2  401  0GS401     -0.0084
     14  C23       30.1910   73.5540   18.0410 C.3   401  0GS401      0.1537
     15  O26       31.6000   73.3340   15.8180 O.2   401  0GS401     -0.1729
     16  O27       32.3760   72.0310   17.7830 O.2   401  0GS401     -0.1729
     17  N28       28.7710   69.3580   17.4880 N.3   401  0GS401     -0.2103
     18  C30       29.3980   68.1270   16.9310 C.3   401  0GS401      0.1151
     19  C33       30.4660   67.5790   17.8990 C.ar  401  0GS401     -0.0049
     20  C34       30.0700   67.0210   19.1380 C.ar  401  0GS401     -0.0019
     21  C36       31.0200   66.5080   20.0570 C.ar  401  0GS401      0.0375
     22  C37       32.4020   66.5860   19.7220 C.ar  401  0GS401      0.0009
     23  C39       32.8140   67.1400   18.4840 C.ar  401  0GS401     -0.0004
     24  C41       31.8480   67.6460   17.5790 C.ar  401  0GS401     -0.0029
     25  C43       30.5370   65.9020   21.3960 C.3   401  0GS401      0.2828
     26  F44       29.1780   65.8110   21.4370 F     401  0GS401     -0.1996
     27  F45       30.9250   66.6790   22.4470 F     401  0GS401     -0.1996
     28  C46       31.0870   64.4690   21.5920 C.3   401  0GS401      0.0771
     29  O50       28.4640   70.6540   19.8960 O.3   401  0GS401     -0.2215
     30  F52       33.0330   75.8630   22.2240 F     401  0GS401     -0.2027
     31  N53       32.1630   78.3410   21.4460 N.pl3 401  0GS401     -0.1252
@<TRIPOS>BOND
     1    15    13    2
     2    12    13    1
     3    12    11    1
     4    18    17    1
     5    18    19    1
     6    13    16    2
     7    13    14    1
     8    17    11    1
     9    24    19   ar
    10    24    23   ar
    11    11    10    1
    12    19    20   ar
    13    14     9    1
    14    23    22   ar
    15    10     9    1
    16    10    29    1
    17    20    21   ar
    18     9     8    1
    19    22    21   ar
    20     1     2    1
    21    21    25    1
    22     7     2   ar
    23     7     6   ar
    24     8     6    1
    25     2     3   ar
    26     6     5   ar
    27     3    31    1
    28     3     4   ar
    29     5     4   ar
    30    25    26    1
    31    25    28    1
    32    25    27    1
    33     4    30    1
