@<TRIPOS>MOLECULE
3vf4_ADP_A_1.pdb
 27 29 0 0 0
SMALL
GASTEIGER

@<TRIPOS>ATOM
      1  PB        12.2280   28.5550   13.4110 P.3   603  ADP603      0.5373
      2  O1B       11.9970   28.7560   11.9370 O.2   603  ADP603     -0.2221
      3  O2B       12.4030   27.0890   13.7610 O.3   603  ADP603     -0.1143
      4  O3B       11.2390   29.2970   14.2910 O.3   603  ADP603     -0.1143
      5  PA        14.2100   30.6910   13.2460 P.3   603  ADP603      0.2231
      6  O1A       13.0630   31.6670   13.3670 O.2   603  ADP603     -0.5169
      7  O2A       15.5360   30.9460   13.9330 O.3   603  ADP603     -0.4370
      8  O3A       13.6940   29.2080   13.6810 O.3   603  ADP603     -0.2261
      9  O5'       14.5330   30.5840   11.6770 O.3   603  ADP603     -0.3111
     10  C5'       14.9230   29.3750   11.0450 C.3   603  ADP603      0.1813
     11  C4'       15.1090   29.6950    9.5700 C.3   603  ADP603      0.1821
     12  O4'       15.7550   30.9600    9.3740 O.3   603  ADP603     -0.3135
     13  C3'       15.9790   28.6530    8.8830 C.3   603  ADP603      0.2184
     14  O3'       15.1150   27.7400    8.1970 O.3   603  ADP603     -0.2174
     15  C2'       16.9000   29.4520    7.9650 C.3   603  ADP603      0.2570
     16  O2'       16.8180   29.1300    6.5760 O.3   603  ADP603     -0.2130
     17  C1'       16.4350   30.8850    8.1130 C.3   603  ADP603      0.3186
     18  N9        17.6590   31.6970    7.9910 N.pl3 603  ADP603     -0.1439
     19  C8        18.6070   31.8810    8.9400 C.3   603  ADP603      0.3377
     20  N7        19.6020   32.6680    8.4500 N.2   603  ADP603     -0.2095
     21  C5        19.2940   32.9870    7.1700 C.2   603  ADP603      0.2526
     22  C6        19.8990   33.7920    6.0870 C.2   603  ADP603      0.4393
     23  N6        21.0830   34.4240    6.2650 N.pl3 603  ADP603      0.2180
     24  N1        19.2370   33.8660    4.9130 N.2   603  ADP603      0.0021
     25  C2        18.0690   33.2440    4.7160 C.3   603  ADP603      0.5254
     26  N3        17.4610   32.5000    5.6540 N.2   603  ADP603     -0.0055
     27  C4        18.0170   32.3340    6.8730 C.2   603  ADP603      0.3518
@<TRIPOS>BOND
     1    25    24    1
     2    25    26    1
     3    24    22    2
     4    26    27    2
     5    22    23    1
     6    22    21    1
     7    16    15    1
     8    27    21    1
     9    27    18    1
    10    21    20    2
    11    15    17    1
    12    15    13    1
    13    18    17    1
    14    18    19    1
    15    17    12    1
    16    14    13    1
    17    20    19    1
    18    13    11    1
    19    12    11    1
    20    11    10    1
    21    10     9    1
    22     9     5    1
    23     2     1    2
    24     5     6    2
    25     5     8    1
    26     5     7    1
    27     1     8    1
    28     1     3    1
    29     1     4    1
