@<TRIPOS>MOLECULE
3vf5_031_B_1.pdb
 43 46 0 0 0
SMALL
GASTEIGER

@<TRIPOS>ATOM
      1  O39       -7.4830  -14.1430   14.8480 O.3   201  031201     -0.4714
      2  O39      -18.4110  -25.5570   20.6670 O.3   201  031201      0.0000
      3  C40       -6.1170  -14.1830   15.1610 C.3   201  031201      0.2525
      4  C2        -8.1640  -15.2950   15.0740 C.ar  201  031201      0.1388
      5  C3        -7.5830  -16.4240   15.6180 C.ar  201  031201      0.0383
      6  C4        -8.3510  -17.5750   15.8200 C.ar  201  031201      0.0230
      7  C5        -9.6970  -17.5760   15.5000 C.ar  201  031201      0.1224
      8  C6       -10.2650  -16.4620   14.9230 C.ar  201  031201      0.0230
      9  C7        -9.4980  -15.3500   14.6450 C.ar  201  031201      0.0383
     10  S8       -10.7020  -18.9530   15.9230 S.O2  201  031201      0.0634
     11  O9       -11.7840  -19.0800   14.9430 O.2   201  031201     -0.1528
     12  O10       -9.7790  -20.0870   16.1050 O.2   201  031201     -0.1528
     13  N11      -11.4120  -18.6910   17.3820 N.3   201  031201     -0.1509
     14  C12      -10.5030  -18.3830   18.4780 C.3   201  031201      0.1210
     15  C13      -10.9270  -18.8870   19.8380 C.3   201  031201      0.1333
     16  C14      -11.2480  -20.3770   19.9530 C.3   201  031201      0.0443
     17  N15       -9.8590  -18.6770   20.8450 N.2   201  031201     -0.2068
     18  C45       -9.2670  -19.8080   21.1650 C.1   201  031201      0.1260
     19  O46       -8.3060  -19.9580   21.9310 O.2   201  031201     -0.2270
     20  C47       -9.9570  -20.9820   20.5220 C.3   201  031201      0.1237
     21  C16      -12.6860  -17.9880   17.3760 C.3   201  031201      0.1304
     22  C17      -13.8140  -18.8350   17.9380 C.3   201  031201      0.1898
     23  O18      -15.0020  -18.0600   18.2110 O.3   201  031201     -0.2197
     24  C19      -14.2130  -19.9950   17.0390 C.3   201  031201      0.1347
     25  N20      -15.0500  -20.9140   17.7710 N.am  201  031201     -0.1675
     26  C21      -14.6690  -22.1100   18.2210 C.2   201  031201      0.4210
     27  O22      -13.4970  -22.5410   18.1100 O.2   201  031201     -0.2246
     28  O23      -15.6400  -22.7760   18.8550 O.3   201  031201     -0.4372
     29  C24      -15.4130  -25.0170   17.8640 C.3   201  031201      0.0463
     30  C25      -15.3420  -24.1600   19.1360 C.3   201  031201      0.1730
     31  C26      -16.5160  -24.6610   19.9720 C.3   201  031201      0.0732
     32  C27      -17.5980  -25.0380   18.9690 C.3   201  031201      0.1189
     33  O28      -18.3690  -23.9090   18.5460 O.3   201  031201     -0.3561
     34  C29      -18.2020  -23.6650   17.1420 C.3   201  031201      0.1421
     35  C30      -17.6050  -24.9360   16.5780 C.3   201  031201      0.0346
     36  C31      -16.8390  -25.5220   17.7330 C.3   201  031201      0.0334
     37  C32      -14.9210  -19.5410   15.7500 C.3   201  031201      0.0508
     38  C33      -16.5540  -21.2240   14.7600 C.ar  201  031201     -0.0042
     39  C34      -16.9090  -22.3020   13.9770 C.ar  201  031201     -0.0003
     40  C35      -15.8790  -23.0360   13.3660 C.ar  201  031201     -0.0000
     41  C36      -14.5720  -22.5720   13.4510 C.ar  201  031201     -0.0003
     42  C37      -14.2300  -21.4530   14.2220 C.ar  201  031201     -0.0042
     43  C38      -15.2660  -20.7670   14.8990 C.ar  201  031201     -0.0204
@<TRIPOS>BOND
     1    40    41   ar
     2    40    39   ar
     3    41    42   ar
     4    39    38   ar
     5    42    43   ar
     6     9     8   ar
     7     9     4   ar
     8    38    43   ar
     9     1     4    1
    10     1     3    1
    11    43    37    1
    12     8     7   ar
    13    11    10    2
    14     4     5   ar
    15     7     6   ar
    16     7    10    1
    17     5     6   ar
    18    37    24    1
    19    10    12    2
    20    10    13    1
    21    35    34    1
    22    35    36    1
    23    24    25    1
    24    24    22    1
    25    34    33    1
    26    21    13    1
    27    21    22    1
    28    13    14    1
    29    36    29    1
    30    36    32    1
    31    25    26   am
    32    29    30    1
    33    22    23    1
    34    27    26    2
    35    26    28    1
    36    14    15    1
    37    33    32    1
    38    28    30    1
    39    32    31    1
    40    30    31    1
    41    15    16    1
    42    15    17    1
    43    16    20    1
    44    20    18    1
    45    17    18    2
    46    18    19    2
