@<TRIPOS>MOLECULE
3vf6_0H6_A_1.pdb
 47 49 0 0 0
SMALL
GASTEIGER

@<TRIPOS>ATOM
      1  C4       -10.8560    2.8550   20.4660 C.3   502  0H6502     -0.0229
      2  C7       -12.5760    5.9930   21.6830 C.3   502  0H6502     -0.0528
      3  C6       -11.5080    4.9070   21.8400 C.3   502  0H6502     -0.0501
      4  C9       -12.7050    4.4300   19.7900 C.3   502  0H6502     -0.0501
      5  C13       -8.2690   -1.6710   21.4360 C.2   502  0H6502     -0.0116
      6  C21       -8.3890    3.3420   18.7060 C.3   502  0H6502      0.1091
      7  C8       -13.3340    5.6900   20.3860 C.3   502  0H6502     -0.0528
      8  C18       -7.8030   -4.5760   23.7950 C.2   502  0H6502      0.3230
      9  C16       -9.0340   -2.4610   23.9660 C.2   502  0H6502      0.0801
     10  N1        -8.4660    3.4380   20.0960 N.pl3 502  0H6502     -0.2882
     11  C2        -9.4040    2.7190   20.9520 C.3   502  0H6502      0.1028
     12  C3        -9.0390    1.2220   20.8930 C.2   502  0H6502      0.2395
     13  C5       -11.3200    4.3130   20.4390 C.3   502  0H6502     -0.0389
     14  N10       -9.2820    0.5200   22.0720 N.am  502  0H6502     -0.2590
     15  O11       -8.6050    0.7160   19.8730 O.2   502  0H6502     -0.2734
     16  C12       -8.9710   -0.8340   22.3140 C.2   502  0H6502      0.1758
     17  C14       -7.8900   -2.9270   21.8990 C.2   502  0H6502     -0.0551
     18  C15       -8.2330   -3.3170   23.1900 C.3   502  0H6502      0.1569
     19  N17       -9.4030   -1.2400   23.5600 N.2   502  0H6502     -0.3992
     20  O19       -8.1580   -5.0200   24.8770 O.2   502  0H6502     -0.2495
     21  O20       -6.9140   -5.2740   23.0550 O.3   502  0H6502     -0.4797
     22  C22       -7.4080    4.2530   18.3370 C.2   502  0H6502      0.1947
     23  N23       -6.8600    4.8970   19.4530 N.2   502  0H6502     -0.3945
     24  C24       -7.5140    4.3940   20.5140 C.2   502  0H6502      0.1373
     25  C25       -6.9110    4.5840   16.9610 C.3   502  0H6502      0.4435
     26  F26       -7.7060    4.1170   15.9790 F     502  0H6502     -0.1638
     27  F27       -5.7000    4.0700   16.6970 F     502  0H6502     -0.1638
     28  F28       -6.8100    5.8980   16.7170 F     502  0H6502     -0.1638
     29  H1       -10.9790    2.4020   19.4590 H     502  0H6502      0.0291
     30  H2       -11.5100    2.2500   21.1280 H     502  0H6502      0.0291
     31  H3       -13.2530    6.0240   22.5590 H     502  0H6502      0.0265
     32  H4       -12.1210    7.0020   21.6580 H     502  0H6502      0.0265
     33  H5       -11.8310    4.1390   22.5720 H     502  0H6502      0.0268
     34  H6       -10.5640    5.3090   22.2560 H     502  0H6502      0.0268
     35  H7       -13.3250    3.5370   20.0080 H     502  0H6502      0.0268
     36  H8       -12.6460    4.4650   18.6860 H     502  0H6502      0.0268
     37  H9        -7.9940   -1.3800   20.4190 H     502  0H6502      0.0660
     38  H10       -8.9790    2.6570   18.0990 H     502  0H6502      0.0599
     39  H11      -13.2790    6.5400   19.6770 H     502  0H6502      0.0265
     40  H12      -14.4200    5.5580   20.5620 H     502  0H6502      0.0265
     41  H13       -9.3940   -2.7470   24.9680 H     502  0H6502      0.0937
     42  H14       -9.3020    3.1420   21.9890 H     502  0H6502      0.0597
     43  H15      -10.5940    4.9370   19.8620 H     502  0H6502      0.0301
     44  H16       -9.7520    1.0050   22.8400 H     502  0H6502      0.1573
     45  H17       -7.3160   -3.5910   21.2430 H     502  0H6502      0.0589
     46  H18       -6.6610   -6.0950   23.5010 H     502  0H6502      0.2951
     47  H19       -7.3460    4.6810   21.5540 H     502  0H6502      0.1144
@<TRIPOS>BOND
     1    26    25    1
     2    27    25    1
     3    28    25    1
     4    25    22    1
     5    38     6    1
     6    22     6    1
     7    22    23    2
     8    36     4    1
     9     6    10    1
    10    23    24    2
    11    29     1    1
    12    39     7    1
    13     4    35    1
    14     4     7    1
    15     4    13    1
    16    43    13    1
    17    15    12    2
    18    10    24    1
    19    10    11    1
    20     7    40    1
    21     7     2    1
    22    37     5    1
    23    13     1    1
    24    13     3    1
    25     1    11    1
    26     1    30    1
    27    24    47    1
    28    12    11    1
    29    12    14   am
    30    11    42    1
    31    45    17    1
    32     5    17    2
    33     5    16    1
    34    32     2    1
    35     2     3    1
    36     2    31    1
    37     3    34    1
    38     3    33    1
    39    17    18    1
    40    14    16    1
    41    14    44    1
    42    16    19    2
    43    21    46    1
    44    21     8    1
    45    18     8    1
    46    18     9    1
    47    19     9    2
    48     8    20    2
    49     9    41    1
