@<TRIPOS>MOLECULE
3vf6_GLC_A_1.pdb
 12 12 0 0 0
SMALL
GASTEIGER

@<TRIPOS>ATOM
      1  C1       -27.8290   -5.6340   11.9700 C.3   501  GLC501      0.3024
      2  C2       -26.8450   -6.3560   12.8940 C.3   501  GLC501      0.2434
      3  C3       -25.8580   -5.3840   13.5320 C.3   501  GLC501      0.2199
      4  C4       -25.2070   -4.4870   12.4800 C.3   501  GLC501      0.2144
      5  C5       -26.2690   -3.8320   11.5970 C.3   501  GLC501      0.1836
      6  C6       -25.6900   -3.0230   10.4570 C.3   501  GLC501      0.2142
      7  O1       -28.6110   -4.7770   12.7550 O.3   501  GLC501     -0.1869
      8  O2       -27.5680   -7.0760   13.8850 O.3   501  GLC501     -0.2148
      9  O3       -24.8600   -6.1080   14.2550 O.3   501  GLC501     -0.2174
     10  O4       -24.4190   -3.4740   13.1040 O.3   501  GLC501     -0.2176
     11  O5       -27.1150   -4.8410   11.0110 O.3   501  GLC501     -0.3236
     12  O6       -24.8760   -3.8260    9.6140 O.3   501  GLC501     -0.2176
@<TRIPOS>BOND
     1    12     6    1
     2     6     5    1
     3    11     5    1
     4    11     1    1
     5     5     4    1
     6     1     7    1
     7     1     2    1
     8     4    10    1
     9     4     3    1
    10     2     3    1
    11     2     8    1
    12     3     9    1
