@<TRIPOS>MOLECULE
3vf7_031_A_1.pdb
 42 46 0 0 0
SMALL
GASTEIGER

@<TRIPOS>ATOM
      1  O39        7.3650   14.1990   14.7430 O.3   201  031201     -0.4714
      2  C40        6.0010   14.2340   15.1570 C.3   201  031201      0.2525
      3  C2         8.0210   15.3540   14.9890 C.ar  201  031201      0.1388
      4  C3         7.4450   16.4900   15.5500 C.ar  201  031201      0.0383
      5  C4         8.2580   17.6180   15.6820 C.ar  201  031201      0.0230
      6  C5         9.6220   17.5730   15.4340 C.ar  201  031201      0.1224
      7  C6        10.1670   16.4490   14.8690 C.ar  201  031201      0.0230
      8  C7         9.3470   15.3550   14.5850 C.ar  201  031201      0.0383
      9  S8        10.6240   18.9600   15.8910 S.O2  201  031201      0.0634
     10  O9        11.7350   19.0630   14.8760 O.2   201  031201     -0.1528
     11  O10        9.7410   20.1000   16.0820 O.2   201  031201     -0.1528
     12  N11       11.3200   18.5870   17.3360 N.3   201  031201     -0.1509
     13  C12       10.4260   18.1800   18.3720 C.3   201  031201      0.1210
     14  C13       10.9490   18.4420   19.7990 C.3   201  031201      0.1333
     15  C14       10.9400   19.9180   20.1940 C.3   201  031201      0.0443
     16  N15        9.9710   17.7940   20.6790 N.2   201  031201     -0.2068
     17  C45        9.1240   18.6780   21.1470 C.1   201  031201      0.1260
     18  O46        8.1410   18.3470   21.8070 O.2   201  031201     -0.2270
     19  C47        9.5330   20.0870   20.7710 C.3   201  031201      0.1237
     20  C16       12.6160   17.9410   17.3670 C.3   201  031201      0.1304
     21  C17       13.6710   18.8820   18.0130 C.3   201  031201      0.1898
     22  O18       14.7690   18.0290   18.3120 O.3   201  031201     -0.2197
     23  C19       14.0560   20.0080   17.0580 C.3   201  031201      0.1347
     24  N20       14.8780   20.9600   17.7760 N.am  201  031201     -0.1675
     25  C21       14.4480   22.1160   18.2900 C.2   201  031201      0.4210
     26  O22       13.3460   22.5970   18.2000 O.2   201  031201     -0.2246
     27  O23       15.4600   22.7790   18.9330 O.3   201  031201     -0.4372
     28  C24       15.1760   25.0400   18.0720 C.3   201  031201      0.0463
     29  C25       15.1550   24.1280   19.2940 C.3   201  031201      0.1730
     30  C26       16.3160   24.6260   20.1840 C.3   201  031201      0.0732
     31  C27       17.3790   25.0690   19.2010 C.3   201  031201      0.1189
     32  O28       18.2090   23.9750   18.7890 O.3   201  031201     -0.3561
     33  C29       18.1100   23.6780   17.4330 C.3   201  031201      0.1421
     34  C30       17.4160   24.9240   16.8180 C.3   201  031201      0.0346
     35  C31       16.6190   25.5040   17.9750 C.3   201  031201      0.0334
     36  C32       14.8060   19.5940   15.7770 C.3   201  031201      0.0508
     37  C33       16.4780   21.2120   14.7920 C.ar  201  031201     -0.0042
     38  C34       16.7700   22.3530   14.0350 C.ar  201  031201     -0.0003
     39  C35       15.7490   23.0220   13.3470 C.ar  201  031201     -0.0000
     40  C36       14.4500   22.5180   13.3590 C.ar  201  031201     -0.0003
     41  C37       14.1610   21.4000   14.1400 C.ar  201  031201     -0.0042
     42  C38       15.1520   20.7620   14.8730 C.ar  201  031201     -0.0204
@<TRIPOS>BOND
     1    39    40   ar
     2    39    38   ar
     3    40    41   ar
     4    38    37   ar
     5    41    42   ar
     6     8     7   ar
     7     8     3   ar
     8     1     3    1
     9     1     2    1
    10    37    42   ar
    11     7     6   ar
    12    42    36    1
    13    10     9    2
    14     3     4   ar
    15     6     5   ar
    16     6     9    1
    17     4     5   ar
    18    36    23    1
    19     9    11    2
    20     9    12    1
    21    34    33    1
    22    34    35    1
    23    23    24    1
    24    23    21    1
    25    12    20    1
    26    12    13    1
    27    20    21    1
    28    33    32    1
    29    24    25   am
    30    35    28    1
    31    35    31    1
    32    21    22    1
    33    28    29    1
    34    26    25    2
    35    25    27    1
    36    13    14    1
    37    32    31    1
    38    27    29    1
    39    31    30    1
    40    29    30    1
    41    14    15    1
    42    14    16    1
    43    15    19    1
    44    16    17    2
    45    19    17    1
    46    17    18    2
