@<TRIPOS>MOLECULE
3vf8_0JE_A_1.pdb
 26 28 0 0 0
SMALL
GASTEIGER

@<TRIPOS>ATOM
      1  CAZ        4.5720   -5.0060  -16.7650 C.3   701  0JE701      0.0512
      2  CAY        3.2220   -4.5530  -16.2050 C.3   701  0JE701      0.2056
      3  OAX        3.3930   -3.1970  -15.7650 O.3   701  0JE701     -0.4731
      4  CAB        2.2550   -2.5230  -15.4210 C.ar  701  0JE701      0.1685
      5  CAC        1.0200   -2.7800  -16.0330 C.ar  701  0JE701      0.0749
      6  CAA        2.3540   -1.5140  -14.4610 C.ar  701  0JE701      0.1766
      7  FAW        3.5420   -1.2640  -13.8740 F     701  0JE701     -0.2009
      8  CAD        1.2310   -0.7670  -14.1040 C.ar  701  0JE701      0.0684
      9  CAH        0.0010   -1.0360  -14.7060 C.ar  701  0JE701      0.1766
     10  NAG       -1.2060   -0.5050  -14.5580 N.2   701  0JE701     -0.3359
     11  CAI       -0.1040   -2.0300  -15.6740 C.ar  701  0JE701      0.1773
     12  NAE       -1.3730   -2.0450  -16.0760 N.2   701  0JE701     -0.3358
     13  CAF       -2.0470   -1.1150  -15.3930 C.1   701  0JE701      0.1597
     14  CAJ       -3.4030   -0.8210  -15.5420 C.ar  701  0JE701      0.2044
     15  NAK       -4.3120   -1.4190  -16.3090 N.ar  701  0JE701     -0.1342
     16  NAL       -5.4060   -0.8530  -16.1720 N.ar  701  0JE701     -0.1442
     17  CAM       -5.3230    0.1700  -15.3100 C.ar  701  0JE701      0.1411
     18  CAN       -4.0630    0.2050  -14.8860 C.ar  701  0JE701      0.1267
     19  NAO       -3.4790    1.0910  -14.0620 N.am  701  0JE701     -0.1582
     20  CAP       -3.8440    2.3670  -13.8430 C.2   701  0JE701      0.3276
     21  OAR       -4.8560    2.8660  -14.3390 O.2   701  0JE701     -0.2504
     22  NAQ       -3.0630    3.0810  -13.0180 N.am  701  0JE701     -0.2626
     23  CAU       -1.8470    2.5140  -12.4070 C.3   701  0JE701      0.0951
     24  CAV       -0.6280    2.9530  -13.2200 C.3   701  0JE701      0.0233
     25  CAS       -3.3850    4.4800  -12.6830 C.3   701  0JE701      0.0951
     26  CAT       -2.9330    5.3950  -13.8240 C.3   701  0JE701      0.0233
@<TRIPOS>BOND
     1     1     2    1
     2    15    16   ar
     3    15    14   ar
     4     2     3    1
     5    16    17   ar
     6    12    11    2
     7    12    13    2
     8     5    11   ar
     9     5     4   ar
    10     3     4    1
    11    11     9   ar
    12    14    13    1
    13    14    18   ar
    14     4     6   ar
    15    13    10    2
    16    17    18   ar
    17    18    19    1
    18     9    10    2
    19     9     8   ar
    20     6     8   ar
    21     6     7    1
    22    21    20    2
    23    19    20   am
    24    20    22   am
    25    26    25    1
    26    24    23    1
    27    22    25    1
    28    22    23    1
