@<TRIPOS>MOLECULE
3vf9_477_A_1.pdb
 21 24 0 0 0
SMALL
GASTEIGER

@<TRIPOS>ATOM
      1  CAT        4.6870   -3.1810  -15.2690 C.3   701  477701      0.0375
      2  CAR        3.3940   -3.6470  -15.9460 C.3   701  477701      0.1455
      3  CAW        3.0560   -5.0670  -15.4830 C.3   701  477701      0.0375
      4  OAS        3.5570   -3.6260  -17.3670 O.3   701  477701     -0.2212
      5  CAJ        2.2210   -2.7200  -15.5700 C.ar  701  477701      0.0076
      6  CAI        0.9570   -2.9490  -16.1230 C.ar  701  477701      0.0301
      7  CAK        2.3940   -1.6610  -14.6710 C.ar  701  477701     -0.0018
      8  CAL        1.3210   -0.8350  -14.3330 C.ar  701  477701      0.0024
      9  CAG        0.0650   -1.0690  -14.8930 C.ar  701  477701      0.0322
     10  CAF       -1.1100   -0.4620  -14.7590 C.2   701  477701      0.0359
     11  CAH       -0.1150   -2.1180  -15.7880 C.ar  701  477701      0.1313
     12  NAE       -1.3910   -2.0960  -16.1580 N.2   701  477701     -0.4006
     13  CAD       -2.0020   -1.0910  -15.5270 C.2   701  477701      0.1479
     14  CAC       -3.3500   -0.7650  -15.6670 C.2   701  477701      0.1256
     15  NAB       -4.2520   -1.3150  -16.4760 N.2   701  477701     -0.1488
     16  NAA       -5.3520   -0.7670  -16.3280 N.2   701  477701     -0.1513
     17  CAM       -5.3200    0.1910  -15.3930 C.2   701  477701      0.0968
     18  CAQ       -6.1110    1.1020  -14.7840 C.2   701  477701      0.0244
     19  CAN       -4.0080    0.2020  -14.9280 C.3   701  477701      0.1378
     20  SAO       -3.9100    1.4130  -13.7650 S.3   701  477701     -0.1016
     21  CAP       -5.5330    1.8750  -13.8510 C.2   701  477701      0.0329
@<TRIPOS>BOND
     1     4     2    1
     2    15    16    1
     3    15    14    2
     4    16    17    2
     5    12    11    2
     6    12    13    2
     7     6    11   ar
     8     6     5   ar
     9     2     5    1
    10     2     3    1
    11     2     1    1
    12    11     9   ar
    13    14    13    1
    14    14    19    1
    15     5     7   ar
    16    13    10    1
    17    17    19    1
    18    17    18    1
    19    19    20    1
    20     9    10    2
    21     9     8   ar
    22    18    21    2
    23     7     8   ar
    24    21    20    1
