@<TRIPOS>MOLECULE
3vfa_031_A_1.pdb
 42 46 0 0 0
SMALL
GASTEIGER

@<TRIPOS>ATOM
      1  O39       21.7070   29.0210   14.6010 O.3   201  031201     -0.4714
      2  C40       23.0980   28.7120   14.7520 C.3   201  031201      0.2525
      3  C2        20.9740   27.8870   14.8060 C.ar  201  031201      0.1388
      4  C3        21.5520   26.7560   15.3940 C.ar  201  031201      0.0383
      5  C4        20.7770   25.6310   15.6430 C.ar  201  031201      0.0230
      6  C5        19.4240   25.6390   15.3270 C.ar  201  031201      0.1224
      7  C6        18.8700   26.7590   14.7400 C.ar  201  031201      0.0230
      8  C7        19.6350   27.8760   14.4500 C.ar  201  031201      0.0383
      9  S8        18.3970   24.2640   15.7110 S.O2  201  031201      0.0634
     10  O9        17.3610   24.0920   14.6690 O.2   201  031201     -0.1528
     11  O10       19.3320   23.1160   15.9280 O.2   201  031201     -0.1528
     12  N11       17.7180   24.4800   17.1740 N.3   201  031201     -0.1509
     13  C12       18.6790   24.8310   18.2070 C.3   201  031201      0.1210
     14  C13       18.0880   24.5120   19.5820 C.3   201  031201      0.1333
     15  C14       18.0650   23.0230   19.8540 C.3   201  031201      0.0443
     16  N15       19.0130   25.0900   20.5690 N.2   201  031201     -0.2068
     17  C45       19.7760   24.1650   21.0940 C.1   201  031201      0.1260
     18  O46       20.6630   24.4150   21.8860 O.2   201  031201     -0.2270
     19  C47       19.3920   22.7810   20.5960 C.3   201  031201      0.1237
     20  C16       16.4900   25.2440   17.2520 C.3   201  031201      0.1304
     21  C17       15.3610   24.3450   17.7440 C.3   201  031201      0.1898
     22  O18       14.1850   25.0620   18.0660 O.3   201  031201     -0.2197
     23  C19       15.0110   23.2280   16.7770 C.3   201  031201      0.1347
     24  N20       14.1150   22.2800   17.4510 N.am  201  031201     -0.1675
     25  C21       14.4390   21.0990   17.9620 C.2   201  031201      0.4210
     26  O22       15.5870   20.6170   17.9740 O.2   201  031201     -0.2246
     27  O23       13.3900   20.4240   18.5290 O.3   201  031201     -0.4372
     28  C24       13.6970   18.2050   17.5390 C.3   201  031201      0.0463
     29  C25       13.7100   19.0490   18.8250 C.3   201  031201      0.1730
     30  C26       12.5230   18.5190   19.6260 C.3   201  031201      0.0732
     31  C27       11.4840   18.2120   18.5630 C.3   201  031201      0.1189
     32  O28       10.6830   19.3320   18.2040 O.3   201  031201     -0.3561
     33  C29       10.6790   19.5450   16.7970 C.3   201  031201      0.1421
     34  C30       11.5250   18.4550   16.1740 C.3   201  031201      0.0346
     35  C31       12.2570   17.7850   17.3360 C.3   201  031201      0.0334
     36  C32       14.4120   23.7000   15.4500 C.3   201  031201      0.0508
     37  C33       12.7160   22.1810   14.2770 C.ar  201  031201     -0.0042
     38  C34       12.3520   21.0390   13.5580 C.ar  201  031201     -0.0003
     39  C35       13.3520   20.3130   12.9310 C.ar  201  031201     -0.0000
     40  C36       14.6890   20.6350   13.1700 C.ar  201  031201     -0.0003
     41  C37       15.0280   21.7320   13.9770 C.ar  201  031201     -0.0042
     42  C38       14.0370   22.5090   14.5580 C.ar  201  031201     -0.0204
@<TRIPOS>BOND
     1    39    40   ar
     2    39    38   ar
     3    40    41   ar
     4    38    37   ar
     5    41    42   ar
     6    37    42   ar
     7     8     7   ar
     8     8     3   ar
     9    42    36    1
    10     1     2    1
    11     1     3    1
    12    10     9    2
    13     7     6   ar
    14     3     4   ar
    15     6     5   ar
    16     6     9    1
    17     4     5   ar
    18    36    23    1
    19     9    11    2
    20     9    12    1
    21    34    33    1
    22    34    35    1
    23    23    24    1
    24    23    21    1
    25    33    32    1
    26    12    20    1
    27    12    13    1
    28    20    21    1
    29    35    28    1
    30    35    31    1
    31    24    25   am
    32    28    29    1
    33    21    22    1
    34    25    26    2
    35    25    27    1
    36    32    31    1
    37    13    14    1
    38    27    29    1
    39    31    30    1
    40    29    30    1
    41    14    15    1
    42    14    16    1
    43    15    19    1
    44    16    17    2
    45    19    17    1
    46    17    18    2
