@<TRIPOS>MOLECULE
3vfb_031_A_1.pdb
 42 46 0 0 0
SMALL
GASTEIGER

@<TRIPOS>ATOM
      1  O39        7.7930   14.2590   14.4240 O.3   201  031201     -0.4714
      2  C40        6.4080   14.1270   14.6630 C.3   201  031201      0.2525
      3  C2         8.3800   15.4480   14.7280 C.ar  201  031201      0.1388
      4  C3         7.7370   16.5720   15.2430 C.ar  201  031201      0.0383
      5  C4         8.4810   17.7210   15.5410 C.ar  201  031201      0.0230
      6  C5         9.8510   17.7550   15.3460 C.ar  201  031201      0.1224
      7  C6        10.4390   16.6690   14.7490 C.ar  201  031201      0.0230
      8  C7         9.7220   15.5600   14.3700 C.ar  201  031201      0.0383
      9  S8        10.8730   19.1060   15.8520 S.O2  201  031201      0.0634
     10  O9        11.9470   19.3090   14.8650 O.2   201  031201     -0.1528
     11  O10        9.9650   20.2810   16.0510 O.2   201  031201     -0.1528
     12  N11       11.5220   18.7170   17.3150 N.3   201  031201     -0.1509
     13  C12       10.6060   18.3100   18.3250 C.3   201  031201      0.1210
     14  C13       11.0990   18.6470   19.7350 C.3   201  031201      0.1333
     15  C14       11.0450   20.1310   20.0250 C.3   201  031201      0.0443
     16  N15       10.1030   18.0310   20.6140 N.2   201  031201     -0.2068
     17  C45        9.3120   18.8950   21.1410 C.1   201  031201      0.1260
     18  O46        8.4090   18.4860   21.8590 O.2   201  031201     -0.2270
     19  C47        9.7010   20.3000   20.7630 C.3   201  031201      0.1237
     20  C16       12.8200   18.0740   17.3300 C.3   201  031201      0.1304
     21  C17       13.9090   18.9610   17.9410 C.3   201  031201      0.1898
     22  O18       15.0070   18.1580   18.3250 O.3   201  031201     -0.2197
     23  C19       14.3450   20.1300   17.0620 C.3   201  031201      0.1347
     24  N20       15.1310   21.0830   17.8070 N.am  201  031201     -0.1675
     25  C21       14.7680   22.2710   18.2920 C.2   201  031201      0.4210
     26  O22       13.6480   22.7340   18.1890 O.2   201  031201     -0.2246
     27  O23       15.7880   22.9380   18.9320 O.3   201  031201     -0.4372
     28  C24       15.5270   25.1870   18.1160 C.3   201  031201      0.0463
     29  C25       15.4920   24.2730   19.3320 C.3   201  031201      0.1730
     30  C26       16.6490   24.8180   20.1830 C.3   201  031201      0.0732
     31  C27       17.7200   25.2040   19.1860 C.3   201  031201      0.1189
     32  O28       18.4800   24.0710   18.7550 O.3   201  031201     -0.3561
     33  C29       18.5390   23.9520   17.3540 C.3   201  031201      0.1421
     34  C30       17.7030   25.1020   16.7790 C.3   201  031201      0.0346
     35  C31       16.9610   25.7000   17.9900 C.3   201  031201      0.0334
     36  C32       15.0790   19.7460   15.7700 C.3   201  031201      0.0508
     37  C33       16.7150   21.3790   14.7700 C.ar  201  031201     -0.0042
     38  C34       16.9760   22.5500   14.0560 C.ar  201  031201     -0.0003
     39  C35       15.9740   23.2120   13.3520 C.ar  201  031201     -0.0000
     40  C36       14.6800   22.7100   13.4360 C.ar  201  031201     -0.0003
     41  C37       14.3860   21.5910   14.2080 C.ar  201  031201     -0.0042
     42  C38       15.3940   20.9480   14.8970 C.ar  201  031201     -0.0204
@<TRIPOS>BOND
     1    39    40   ar
     2    39    38   ar
     3    40    41   ar
     4    38    37   ar
     5    41    42   ar
     6     8     3   ar
     7     8     7   ar
     8     1     2    1
     9     1     3    1
    10     3     4   ar
    11     7     6   ar
    12    37    42   ar
    13    10     9    2
    14    42    36    1
    15     4     5   ar
    16     6     5   ar
    17     6     9    1
    18    36    23    1
    19     9    11    2
    20     9    12    1
    21    34    33    1
    22    34    35    1
    23    23    24    1
    24    23    21    1
    25    12    20    1
    26    12    13    1
    27    20    21    1
    28    33    32    1
    29    24    25   am
    30    21    22    1
    31    35    28    1
    32    35    31    1
    33    28    29    1
    34    26    25    2
    35    25    27    1
    36    13    14    1
    37    32    31    1
    38    27    29    1
    39    31    30    1
    40    29    30    1
    41    14    15    1
    42    14    16    1
    43    15    19    1
    44    16    17    2
    45    19    17    1
    46    17    18    2
