@<TRIPOS>MOLECULE
3vfe_0HL_A_1.pdb
 37 41 0 0 0
SMALL
GASTEIGER

@<TRIPOS>ATOM
      1  CAN       -8.9850   -5.8710  -17.2570 C.ar  301  0HL301      0.0200
      2  CAS      -10.0670   -5.1650  -16.7330 C.ar  301  0HL301      0.0043
      3  CAY       -9.8630   -4.0080  -15.9870 C.ar  301  0HL301      0.0369
      4  CBC      -10.9380   -3.2820  -15.4790 C.ar  301  0HL301      0.1387
      5  OBG      -10.7750   -2.1840  -14.6900 O.3   301  0HL301     -0.4714
      6  CBI       -9.4390   -1.7380  -14.4470 C.3   301  0HL301      0.2525
      7  CBF      -12.2300   -3.7340  -15.7280 C.ar  301  0HL301      0.0369
      8  CBB      -12.4360   -4.8930  -16.4690 C.ar  301  0HL301      0.0031
      9  CAX      -11.3560   -5.6160  -16.9770 C.ar  301  0HL301      0.0003
     10  CAT      -11.5550   -6.7680  -17.7400 C.ar  301  0HL301      0.0014
     11  CAO      -10.4790   -7.4750  -18.2710 C.ar  301  0HL301      0.0199
     12  CAG       -9.1900   -7.0120  -18.0200 C.ar  301  0HL301      0.1222
     13  SAC       -7.7850   -7.8100  -18.6800 S.O2  301  0HL301      0.0640
     14  OAH       -7.2610   -8.7840  -17.6690 O.2   301  0HL301     -0.1528
     15  OAI       -8.1290   -8.5040  -19.9640 O.2   301  0HL301     -0.1528
     16  N         -6.7120   -6.6120  -18.9220 N.3   301  0HL301     -0.1436
     17  CAD       -6.9100   -5.8680  -20.1730 C.3   301  0HL301      0.1231
     18  CAJ       -6.5090   -4.3960  -20.0050 C.ar  301  0HL301      0.0025
     19  CAP       -6.5550   -3.7540  -18.8330 C.ar  301  0HL301      0.0046
     20  CAU       -6.1520   -2.4840  -18.7830 C.ar  301  0HL301      0.0352
     21  SAV       -5.6910   -2.1060  -20.3770 S.2   301  0HL301     -0.0862
     22  CAQ       -6.0590   -3.6450  -21.0110 C.ar  301  0HL301      0.0326
     23  CA        -5.2980   -6.9360  -18.6820 C.3   301  0HL301      0.1577
     24  C         -4.9830   -7.1050  -17.1980 C.2   301  0HL301      0.2421
     25  O         -5.5670   -6.5300  -16.2870 O.2   301  0HL301     -0.2734
     26  CB        -4.8080   -8.2730  -19.2350 C.3   301  0HL301      0.0485
     27  CAM       -3.5630   -8.4620  -18.3650 C.3   301  0HL301      0.0957
     28  NAK       -3.9940   -7.9790  -17.0460 N.am  301  0HL301     -0.2742
     29  CAR       -3.4150   -8.3760  -15.7560 C.3   301  0HL301      0.1207
     30  CAW       -3.7520   -9.7920  -15.2820 C.ar  301  0HL301      0.0049
     31  CAZ       -3.0020  -10.4250  -14.3770 C.ar  301  0HL301      0.0124
     32  CBA       -4.8070  -10.4760  -15.7230 C.ar  301  0HL301      0.0331
     33  SBE       -4.8030  -11.9820  -14.9260 S.2   301  0HL301     -0.0788
     34  CBD       -3.3870  -11.6530  -14.0280 C.ar  301  0HL301      0.1267
     35  CBH       -2.8210  -12.5690  -13.1450 C.2   301  0HL301      0.4825
     36  NBK       -3.4550  -13.7080  -12.8820 N.pl3 301  0HL301      0.2053
     37  NBJ       -1.6570  -12.3200  -12.5540 N.pl3 301  0HL301      0.2053
@<TRIPOS>BOND
     1    22    21   ar
     2    22    18   ar
     3    21    20   ar
     4    17    18    1
     5    17    16    1
     6    18    19   ar
     7    15    13    2
     8    26    23    1
     9    26    27    1
    10    16    23    1
    11    16    13    1
    12    19    20   ar
    13    23    24    1
    14    13    12    1
    15    13    14    2
    16    27    28    1
    17    11    12   ar
    18    11    10   ar
    19    12     1   ar
    20    10     9   ar
    21     1     2   ar
    22    24    28   am
    23    24    25    2
    24    28    29    1
    25     9     2   ar
    26     9     8   ar
    27     2     3   ar
    28     8     7   ar
    29     3     4   ar
    30    29    30    1
    31     7     4   ar
    32    32    30   ar
    33    32    33   ar
    34     4     5    1
    35    30    31   ar
    36    33    34   ar
    37     5     6    1
    38    31    34   ar
    39    34    35    1
    40    35    36    2
    41    35    37    1
