@<TRIPOS>MOLECULE
3vff_CD8_A_1.pdb
 24 25 0 0 0
SMALL
GASTEIGER

@<TRIPOS>ATOM
      1  CAA       20.1380   12.6450    9.4770 C.2   301  CD8301     -0.0020
      2  CAC       25.1720   17.8080    9.2980 C.3   301  CD8301      0.1765
      3  OAF       21.7710   11.0340    9.5920 O.co2 301  CD8301     -0.2389
      4  OAG       23.5360   17.9360    7.6900 O.2   301  CD8301     -0.2683
      5  OAH       24.5530   15.8780    7.6230 O.2   301  CD8301     -0.2837
      6  OAI       23.7390   11.3780   10.2650 O.co2 301  CD8301     -0.2389
      7  CAJ       18.8070   18.2570    6.3250 C.ar  301  CD8301      0.0000
      8  CAK       19.1150   16.9740    6.7300 C.ar  301  CD8301      0.0001
      9  CAL       19.7330   19.2690    6.5010 C.ar  301  CD8301      0.0001
     10  CAM       20.3460   16.7110    7.3110 C.ar  301  CD8301      0.0046
     11  CAN       20.9650   19.0030    7.0820 C.ar  301  CD8301      0.0046
     12  CAO       20.6370   14.8670   10.0440 C.3   301  CD8301      0.0874
     13  NAQ       23.3480   13.8990   10.6240 N.2   301  CD8301     -0.2503
     14  NAS       22.3860   16.5800    9.0810 N.am  301  CD8301     -0.1681
     15  OAT       24.1990   17.4060   10.2560 O.3   301  CD8301     -0.3291
     16  SAV       21.4980   15.6950   11.3880 S.3   301  CD8301     -0.1076
     17  CAX       21.0560   13.5630    9.9390 C.2   301  CD8301      0.0125
     18  CAY       22.6240   11.8080   10.0100 C.2   301  CD8301      0.4044
     19  CAZ       22.4890   17.4290    8.0720 C.2   301  CD8301      0.2671
     20  CBA       24.5690   15.5550    8.7970 C.2   301  CD8301      0.2580
     21  CBB       22.3440   13.1310   10.2050 C.2   301  CD8301      0.1535
     22  CBC       21.2750   17.7190    7.4810 C.ar  301  CD8301      0.0551
     23  CBE       23.2280   15.3350   10.9330 C.3   301  CD8301      0.2025
     24  CBF       23.6060   16.2260    9.7650 C.3   301  CD8301      0.2604
@<TRIPOS>BOND
     1     7     9   ar
     2     7     8   ar
     3     9    11   ar
     4     8    10   ar
     5    11    22   ar
     6    10    22   ar
     7    22    19    1
     8     5    20    2
     9     4    19    2
    10    19    14   am
    11    20    24    1
    12    14    24    1
    13     2    15    1
    14     1    17    2
    15     3    18   ar
    16    24    15    1
    17    24    23    1
    18    17    12    1
    19    17    21    1
    20    18    21    1
    21    18     6   ar
    22    12    16    1
    23    21    13    2
    24    13    23    1
    25    23    16    1
