@<TRIPOS>MOLECULE
3vfh_CD6_B_1.pdb
 23 24 0 0 0
SMALL
GASTEIGER

@<TRIPOS>ATOM
      1  CAA       17.0000    7.2380   28.6100 C.3   301  CD6301      0.0074
      2  OAE       15.3210    5.7030   28.9470 O.co2 301  CD6301     -0.2392
      3  OAF       15.3170   13.0590   27.9760 O.2   301  CD6301     -0.2730
      4  OAG       12.4970   10.1520   29.7600 O.2   301  CD6301     -0.2863
      5  OAH       13.2640    5.9820   28.3420 O.co2 301  CD6301     -0.2392
      6  CAI       19.4590   15.0040   28.5780 C.ar  301  CD6301     -0.0000
      7  CAJ       19.4810   13.7590   27.9600 C.ar  301  CD6301     -0.0003
      8  CAK       18.5170   15.2720   29.5640 C.ar  301  CD6301     -0.0003
      9  CAL       18.5610   12.7830   28.3270 C.ar  301  CD6301     -0.0038
     10  CAM       17.5980   14.2970   29.9310 C.ar  301  CD6301     -0.0038
     11  CAN       16.5290    9.3130   27.5290 C.3   301  CD6301      0.0656
     12  CAP       16.7010   12.0770   29.6800 C.3   301  CD6301      0.1131
     13  NAQ       13.7640    8.3650   27.3380 N.2   301  CD6301     -0.2568
     14  NAS       14.8070   10.9590   28.6620 N.am  301  CD6301     -0.1959
     15  SAU       15.6170    9.8040   26.0290 S.3   301  CD6301     -0.1145
     16  CAW       16.0810    8.0810   27.9980 C.3   301  CD6301      0.0574
     17  CAX       14.4370    6.4040   28.4130 C.2   301  CD6301      0.4007
     18  CAY       15.5380   12.0810   28.6870 C.2   301  CD6301      0.2462
     19  CAZ       12.4140   10.4430   28.5690 C.2   301  CD6301      0.2316
     20  CBA       14.7560    7.6510   27.8980 C.2   301  CD6301      0.1345
     21  CBB       17.6200   13.0520   29.3130 C.ar  301  CD6301     -0.0130
     22  CBD       13.9450    9.7050   26.7410 C.3   301  CD6301      0.1777
     23  CBE       13.6570   10.8080   27.7600 C.3   301  CD6301      0.1920
@<TRIPOS>BOND
     1    15    22    1
     2    15    11    1
     3    22    13    1
     4    22    23    1
     5    13    20    2
     6    11    16    1
     7    23    19    1
     8    23    14    1
     9    20    16    1
    10    20    17    1
    11     7     9   ar
    12     7     6   ar
    13     3    18    2
    14    16     1    1
    15     9    21   ar
    16     5    17   ar
    17    17     2   ar
    18    19     4    2
    19     6     8   ar
    20    14    18   am
    21    18    12    1
    22    21    12    1
    23    21    10   ar
    24     8    10   ar
