@<TRIPOS>MOLECULE
3vfk_GCS_G_1.pdb
 11 11 0 0 0
SMALL
GASTEIGER

@<TRIPOS>ATOM
      1  C1        -5.4460   15.1490    6.2480 C.3   101  GCS101      0.1638
      2  C2        -6.6660   15.0110    5.3360 C.3   101  GCS101      0.1542
      3  C3        -7.7650   14.2810    6.0920 C.3   101  GCS101      0.2045
      4  C4        -7.2420   12.9080    6.4870 C.3   101  GCS101      0.2131
      5  C5        -5.9870   13.0720    7.3470 C.3   101  GCS101      0.1809
      6  C6        -5.4370   11.6910    7.7220 C.3   101  GCS101      0.2141
      7  N2        -7.1670   16.3370    4.9500 N.3   101  GCS101     -0.1275
      8  O3        -8.9120   14.1310    5.2560 O.3   101  GCS101     -0.2187
      9  O4        -8.2500   12.1880    7.2030 O.3   101  GCS101     -0.2176
     10  O5        -4.9860   13.8320    6.6310 O.3   101  GCS101     -0.3492
     11  O6        -4.2630   11.8390    8.5240 O.3   101  GCS101     -0.2176
@<TRIPOS>BOND
     1     7     2    1
     2     8     3    1
     3     2     3    1
     4     2     1    1
     5     3     4    1
     6     1    10    1
     7     4     9    1
     8     4     5    1
     9    10     5    1
    10     5     6    1
    11     6    11    1
