@<TRIPOS>MOLECULE
3vg1_0GT_A_1.pdb
 35 38 0 0 0
SMALL
GASTEIGER

@<TRIPOS>ATOM
      1  F1        27.2780   78.1810   16.4870 F     401  0GT401     -0.1981
      2  C2        28.4680   77.9880   17.1190 C.3   401  0GT401      0.3229
      3  F4        29.4560   78.6440   16.4510 F     401  0GT401     -0.1981
      4  C5        28.3650   78.4970   18.5770 C.3   401  0GT401      0.1002
      5  C8        29.4060   77.8650   19.4680 C.2   401  0GT401      0.0038
      6  C9        30.3940   78.4840   20.1410 C.2   401  0GT401      0.0947
      7  N11       31.1010   77.6140   20.8180 N.2   401  0GT401     -0.2442
      8  C13       30.6400   76.3630   20.6390 C.2   401  0GT401      0.0804
      9  C14       29.5400   76.3970   19.7790 C.2   401  0GT401      0.0114
     10  C15       28.8520   75.2250   19.4060 C.2   401  0GT401     -0.0208
     11  C17       29.3130   73.9890   19.9310 C.3   401  0GT401      0.0442
     12  C18       30.4330   73.9530   20.8140 C.2   401  0GT401     -0.0205
     13  C20       31.1130   75.1460   21.1790 C.2   401  0GT401      0.0148
     14  C22       28.5850   72.6980   19.5180 C.3   401  0GT401      0.0130
     15  C25       29.4810   71.7990   18.5950 C.3   401  0GT401      0.0561
     16  C27       28.7550   70.4740   18.1840 C.3   401  0GT401      0.1712
     17  C29       29.6390   69.5290   17.3040 C.3   401  0GT401      0.1270
     18  C31       30.1760   70.1620   15.9900 C.3   401  0GT401      0.1707
     19  S34       31.1560   71.6080   16.4040 S.O2  401  0GT401     -0.0084
     20  C35       29.9530   72.5700   17.3210 C.3   401  0GT401      0.1534
     21  O38       32.2430   71.2260   17.2860 O.2   401  0GT401     -0.1729
     22  O39       31.4390   72.3350   15.1800 O.2   401  0GT401     -0.1729
     23  N40       28.9890   68.2090   17.0760 N.3   401  0GT401     -0.2103
     24  C42       29.7510   67.0670   16.4890 C.3   401  0GT401      0.1151
     25  C45       30.9690   66.7700   17.3790 C.ar  401  0GT401     -0.0051
     26  C46       30.7620   66.2930   18.6920 C.ar  401  0GT401     -0.0072
     27  C48       31.8270   65.9990   19.5880 C.ar  401  0GT401     -0.0231
     28  C49       33.1490   66.2110   19.0910 C.ar  401  0GT401     -0.0043
     29  C51       33.3850   66.6870   17.7750 C.ar  401  0GT401     -0.0006
     30  C53       32.2960   66.9670   16.9150 C.ar  401  0GT401     -0.0029
     31  C55       31.4680   65.4810   21.0280 C.3   401  0GT401      0.0189
     32  C56       32.6940   64.8830   21.7910 C.3   401  0GT401      0.0044
     33  C60       30.9150   66.6340   21.9230 C.3   401  0GT401      0.0044
     34  C64       30.3600   64.3790   20.9760 C.3   401  0GT401      0.0044
     35  O68       28.4120   69.7400   19.3760 O.3   401  0GT401     -0.2215
@<TRIPOS>BOND
     1    22    19    2
     2    18    19    1
     3    18    17    1
     4    19    21    2
     5    19    20    1
     6     3     2    1
     7     1     2    1
     8    24    23    1
     9    24    25    1
    10    30    25   ar
    11    30    29   ar
    12    23    17    1
    13     2     4    1
    14    17    16    1
    15    20    15    1
    16    25    26   ar
    17    29    28   ar
    18    16    15    1
    19    16    35    1
    20     4     5    1
    21    15    14    1
    22    26    27   ar
    23    28    27   ar
    24    10     9    2
    25    10    11    1
    26     5     9    1
    27     5     6    2
    28    14    11    1
    29    27    31    1
    30     9     8    1
    31    11    12    1
    32     6     7    1
    33     8     7    2
    34     8    13    1
    35    12    13    2
    36    34    31    1
    37    31    32    1
    38    31    33    1
