@<TRIPOS>MOLECULE
3vg9_ZMA_A_1.pdb
 25 28 0 0 0
SMALL
GASTEIGER

@<TRIPOS>ATOM
      1  C1       -79.9430  -16.4090  -50.2730 C.ar  401  ZMA401     -0.0009
      2  C2       -80.3240  -16.8620  -51.5230 C.ar  401  ZMA401      0.0417
      3  C3       -79.6120  -17.8860  -52.1290 C.ar  401  ZMA401      0.1957
      4  O4       -79.9920  -18.3350  -53.3730 O.3   401  ZMA401     -0.2866
      5  C5       -78.5230  -18.4590  -51.4870 C.ar  401  ZMA401      0.0417
      6  C6       -78.1410  -18.0050  -50.2350 C.ar  401  ZMA401     -0.0009
      7  C7       -78.8540  -16.9810  -49.6290 C.ar  401  ZMA401     -0.0202
      8  C8       -78.4620  -16.4800  -48.2900 C.3   401  ZMA401      0.0506
      9  C9       -78.1700  -15.0230  -48.2050 C.3   401  ZMA401      0.1309
     10  N10      -77.3640  -14.5820  -47.1340 N.pl3 401  ZMA401     -0.1508
     11  C11      -76.2470  -13.7600  -47.4250 C.1   401  ZMA401      0.2337
     12  N12      -75.4890  -13.2770  -46.4240 N.2   401  ZMA401     -0.2439
     13  N13      -75.9460  -13.4740  -48.7130 N.2   401  ZMA401     -0.2893
     14  C14      -74.8800  -12.6980  -48.9940 C.cat 401  ZMA401      0.3237
     15  N15      -74.5640  -12.3930  -50.3560 N.pl3 401  ZMA401     -0.0749
     16  N16      -74.1020  -12.2040  -47.9730 N.pl3 401  ZMA401     -0.0559
     17  N17      -72.9640  -11.3890  -47.9660 N.2   401  ZMA401     -0.0900
     18  C18      -74.4010  -12.4870  -46.7070 C.1   401  ZMA401      0.2508
     19  N19      -73.4700  -11.8650  -45.9020 N.2   401  ZMA401     -0.2666
     20  C20      -72.5950  -11.2010  -46.6810 C.1   401  ZMA401      0.1525
     21  C21      -71.5270  -10.4470  -46.2470 C.ar  401  ZMA401      0.2205
     22  C22      -71.3830   -9.9130  -44.9780 C.ar  401  ZMA401      0.0523
     23  C23      -70.1870   -9.2210  -44.9700 C.ar  401  ZMA401      0.0446
     24  C24      -69.6370   -9.3470  -46.2340 C.ar  401  ZMA401      0.1807
     25  O25      -70.4630  -10.0860  -46.9930 O.2   401  ZMA401     -0.4394
@<TRIPOS>BOND
     1     4     3    1
     2     3     2   ar
     3     3     5   ar
     4     2     1   ar
     5     5     6   ar
     6    15    14    1
     7     1     7   ar
     8     6     7   ar
     9     7     8    1
    10    14    13    2
    11    14    16    1
    12    13    11    2
    13     8     9    1
    14     9    10    1
    15    16    17    1
    16    16    18    1
    17    17    20    2
    18    11    10    1
    19    11    12    2
    20    25    21   ar
    21    25    24   ar
    22    18    12    2
    23    18    19    2
    24    20    21    1
    25    20    19    2
    26    21    22   ar
    27    24    23   ar
    28    22    23   ar
