@<TRIPOS>MOLECULE
3vga_ZMA_A_1.pdb
 25 28 0 0 0
SMALL
GASTEIGER

@<TRIPOS>ATOM
      1  C1        81.6540  -15.4540   49.1570 C.ar  401  ZMA401      0.0033
      2  C2        82.5750  -15.5760   50.1880 C.ar  401  ZMA401      0.0420
      3  C3        82.2640  -16.3200   51.3180 C.ar  401  ZMA401      0.1957
      4  O4        83.1930  -16.4340   52.3360 O.3   401  ZMA401     -0.2866
      5  C5        81.0180  -16.9400   51.4060 C.ar  401  ZMA401      0.0420
      6  C6        80.0920  -16.8200   50.3750 C.ar  401  ZMA401      0.0033
      7  C7        80.4140  -16.0730   49.2480 C.ar  401  ZMA401      0.0016
      8  C8        79.4490  -15.9210   48.1260 C.2   401  ZMA401      0.0187
      9  C9        79.5230  -14.6630   47.3310 C.2   401  ZMA401      0.0995
     10  N10       78.5480  -14.4610   46.2990 N.pl3 401  ZMA401     -0.1234
     11  C11       77.4870  -13.5280   46.5070 C.1   401  ZMA401      0.2382
     12  N12       76.7070  -13.1230   45.4840 N.2   401  ZMA401     -0.2436
     13  N13       77.2810  -13.0450   47.7560 N.2   401  ZMA401     -0.2891
     14  C14       76.2950  -12.1650   47.9880 C.cat 401  ZMA401      0.3237
     15  N15       76.0840  -11.6630   49.3140 N.pl3 401  ZMA401     -0.0749
     16  N16       75.4910  -11.7490   46.9400 N.pl3 401  ZMA401     -0.0559
     17  N17       74.4350  -10.8730   46.9210 N.2   401  ZMA401     -0.0900
     18  C18       75.6880  -12.2110   45.7220 C.1   401  ZMA401      0.2508
     19  N19       74.7270  -11.6200   44.8780 N.2   401  ZMA401     -0.2666
     20  C20       73.9660  -10.7900   45.6700 C.1   401  ZMA401      0.1525
     21  C21       72.8200   -9.9300   45.2410 C.ar  401  ZMA401      0.2205
     22  C22       72.7640   -9.1340   44.1020 C.ar  401  ZMA401      0.0523
     23  C23       71.5180   -8.5020   44.1000 C.ar  401  ZMA401      0.0446
     24  C24       70.8450   -8.9210   45.2400 C.ar  401  ZMA401      0.1807
     25  O25       71.6570   -9.7670   45.8920 O.2   401  ZMA401     -0.4394
@<TRIPOS>BOND
     1    23    22   ar
     2    23    24   ar
     3    22    21   ar
     4    19    20    2
     5    19    18    2
     6    24    25   ar
     7    21    20    1
     8    21    25   ar
     9    12    18    2
    10    12    11    2
    11    20    17    2
    12    18    16    1
    13    10    11    1
    14    10     9    1
    15    11    13    2
    16    17    16    1
    17    16    14    1
    18     9     8    2
    19    13    14    2
    20    14    15    1
    21     8     7    1
    22     1     7   ar
    23     1     2   ar
    24     7     6   ar
    25     2     3   ar
    26     6     5   ar
    27     3     5   ar
    28     3     4    1
