@<TRIPOS>MOLECULE
3vgc_SRB_C_1.pdb
 19 20 0 0 0
SMALL
GASTEIGER

@<TRIPOS>ATOM
      1  C1        27.5050    3.0220   40.4200 C.ar  358  SRB358      0.0000
      2  C2        27.0110    4.1600   41.0780 C.ar  358  SRB358      0.0000
      3  C3        26.9860    4.2150   42.4930 C.ar  358  SRB358      0.0000
      4  C4        27.4640    3.1500   43.2360 C.ar  358  SRB358      0.0000
      5  C5        27.9790    2.0360   42.5990 C.ar  358  SRB358      0.0000
      6  C6        27.9990    1.9760   41.2020 C.ar  358  SRB358      0.0000
      7  C7        26.6080    5.2750   40.3570 C.ar  358  SRB358      0.0000
      8  C8        26.1900    6.4180   41.0140 C.ar  358  SRB358      0.0000
      9  C9        26.1610    6.4560   42.4090 C.ar  358  SRB358      0.0000
     10  C10       26.5570    5.3540   43.1400 C.ar  358  SRB358      0.0000
     11  C7'       27.3440    2.8640   38.9210 C.3   358  SRB358      0.0000
     12  C8'       28.4220    2.0610   38.1990 C.3   358  SRB358      0.0000
     13  C9'       32.1940    2.7370   38.3240 C.3   358  SRB358      0.0000
     14  C         30.8560    1.9980   38.3990 C.2   358  SRB358      0.0000
     15  N         29.7480    2.6420   38.0490 N.am  358  SRB358      0.0000
     16  O         30.8330    0.8210   38.7730 O.2   358  SRB358      0.0000
     17  O1B       28.8840    0.9770   35.9940 O.3   358  SRB358      0.0000
     18  O2B       26.5990    1.0590   36.7460 O.3   358  SRB358      0.0000
     19  B         27.9030    1.7790   36.7410 B     358  SRB358      0.0000
@<TRIPOS>BOND
     1    17    19    1
     2    19    18    1
     3    19    12    1
     4    15    12    1
     5    15    14   am
     6    12    11    1
     7    13    14    1
     8    14    16    2
     9    11     1    1
    10     7     8   ar
    11     7     2   ar
    12     1     2   ar
    13     1     6   ar
    14     8     9   ar
    15     2     3   ar
    16     6     5   ar
    17     9    10   ar
    18     3    10   ar
    19     3     4   ar
    20     5     4   ar
