@<TRIPOS>MOLECULE
3vgf_GLC_A_1.pdb
 12 12 0 0 0
SMALL
GASTEIGER

@<TRIPOS>ATOM
      1  C1        10.8790   27.3310   18.6220 C.3   604  GLC604      0.3024
      2  C2        10.9770   26.8670   20.1110 C.3   604  GLC604      0.2434
      3  C3        10.9930   25.3570   20.2990 C.3   604  GLC604      0.2199
      4  C4         9.9700   24.7000   19.3610 C.3   604  GLC604      0.2144
      5  C5        10.3240   25.0090   17.9000 C.3   604  GLC604      0.1836
      6  C6         9.2050   24.6390   16.9400 C.3   604  GLC604      0.2142
      7  O1        11.9090   28.1810   18.1770 O.3   604  GLC604     -0.1869
      8  O2        12.0530   27.4790   20.7520 O.3   604  GLC604     -0.2148
      9  O3        10.6840   25.0240   21.6490 O.3   604  GLC604     -0.2174
     10  O4        10.0730   23.2960   19.4850 O.3   604  GLC604     -0.2176
     11  O5        10.6730   26.3560   17.6230 O.3   604  GLC604     -0.3236
     12  O6         8.3530   25.7710   16.9910 O.3   604  GLC604     -0.2176
@<TRIPOS>BOND
     1     6    12    1
     2     6     5    1
     3    11     5    1
     4    11     1    1
     5     5     4    1
     6     7     1    1
     7     1     2    1
     8     4    10    1
     9     4     3    1
    10     2     3    1
    11     2     8    1
    12     3     9    1
