@<TRIPOS>MOLECULE
3vgg_GLC_A_1.pdb
 11 11 0 0 0
SMALL
GASTEIGER

@<TRIPOS>ATOM
      1  C1         5.2870   15.7650   14.8100 C.3   601  GLC601      0.1777
      2  C2         5.8140   14.5210   14.0810 C.3   601  GLC601      0.2141
      3  C3         6.6180   15.0080   12.8630 C.3   601  GLC601      0.2173
      4  C4         5.6640   15.6600   11.8500 C.3   601  GLC601      0.2142
      5  C5         5.0190   16.8570   12.5830 C.3   601  GLC601      0.1810
      6  C6         3.9410   17.5120   11.7310 C.3   601  GLC601      0.2141
      7  O2         6.5600   13.7150   14.9640 O.3   601  GLC601     -0.2176
      8  O3         7.3260   13.9550   12.2810 O.3   601  GLC601     -0.2175
      9  O4         6.3060   16.0150   10.6250 O.3   601  GLC601     -0.2176
     10  O5         4.4730   16.5230   13.8810 O.3   601  GLC601     -0.3481
     11  O6         2.8080   16.6750   11.7360 O.3   601  GLC601     -0.2176
@<TRIPOS>BOND
     1     9     4    1
     2     6    11    1
     3     6     5    1
     4     4     5    1
     5     4     3    1
     6     8     3    1
     7     5    10    1
     8     3     2    1
     9    10     1    1
    10     2     1    1
    11     2     7    1
