@<TRIPOS>MOLECULE
3vgh_GLC_A_1.pdb
 12 12 0 0 0
SMALL
GASTEIGER

@<TRIPOS>ATOM
      1  C1        16.6270   23.4050   17.1320 C.3   605  GLC605      0.3024
      2  C2        16.2510   24.6020   16.2580 C.3   605  GLC605      0.2434
      3  C3        15.5200   25.6850   17.0620 C.3   605  GLC605      0.2199
      4  C4        14.3970   25.1110   17.9320 C.3   605  GLC605      0.2144
      5  C5        14.9910   23.9750   18.7620 C.3   605  GLC605      0.1836
      6  C6        14.0180   23.3290   19.7400 C.3   605  GLC605      0.2142
      7  O1        17.7270   23.7450   17.9590 O.3   605  GLC605     -0.1869
      8  O2        17.4270   25.1510   15.6970 O.3   605  GLC605     -0.2148
      9  O3        15.0450   26.6590   16.1650 O.3   605  GLC605     -0.2174
     10  O4        13.8980   26.0910   18.8210 O.3   605  GLC605     -0.2176
     11  O5        15.5090   22.9830   17.9010 O.3   605  GLC605     -0.3236
     12  O6        13.1250   22.4890   19.0550 O.3   605  GLC605     -0.2176
@<TRIPOS>BOND
     1     8     2    1
     2     9     3    1
     3     2     3    1
     4     2     1    1
     5     3     4    1
     6     1    11    1
     7     1     7    1
     8    11     5    1
     9     4     5    1
    10     4    10    1
    11     5     6    1
    12    12     6    1
