@<TRIPOS>MOLECULE
3vgj_YAP_A_1.pdb
 35 38 0 0 0
SMALL
GASTEIGER

@<TRIPOS>ATOM
      1  C          6.6390   -2.9830   53.2070 C.3   374  YAP374      0.2915
      2  N          6.2670   -3.0420   50.7450 N.3   374  YAP374     -0.1271
      3  O          5.3430   -2.5460   53.5210 O.3   374  YAP374     -0.1879
      4  P          7.2720   -2.2620   55.7350 P.3   374  YAP374      0.2161
      5  N1        12.8150   -7.4550   61.2440 N.2   374  YAP374      0.0021
      6  C2        13.7250   -6.9590   60.1980 C.3   374  YAP374      0.5254
      7  N3        13.1940   -6.0200   59.1530 N.2   374  YAP374     -0.0055
      8  C4        11.7900   -5.6360   59.1860 C.2   374  YAP374      0.3518
      9  C5        10.8730   -6.1140   60.2310 C.2   374  YAP374      0.2526
     10  C6        11.4090   -7.0440   61.2750 C.2   374  YAP374      0.4393
     11  N6        10.5440   -7.5220   62.3170 N.pl3 374  YAP374      0.2180
     12  N7         9.5500   -5.5390   59.9790 N.2   374  YAP374     -0.2095
     13  C8         9.6310   -4.6950   58.7950 C.3   374  YAP374      0.3377
     14  N9        11.0400   -4.7750   58.3240 N.pl3 374  YAP374     -0.1439
     15  CA         7.0830   -2.4870   51.8160 C.3   374  YAP374      0.1555
     16  CB         7.1290   -0.9480   51.7360 C.3   374  YAP374      0.0506
     17  CG         7.7960   -0.5900   50.3130 C.ar  374  YAP374     -0.0204
     18  OH         9.7150    0.2520   46.4770 O.3   374  YAP374     -0.2866
     19  CZ         9.0420   -0.0100   47.7810 C.ar  374  YAP374      0.1957
     20  C1'       11.6350   -4.1260   57.1890 C.3   374  YAP374      0.3186
     21  O1P        6.2990   -3.2240   56.2110 O.3   374  YAP374     -0.4373
     22  C2'       10.8920   -4.5790   55.9450 C.3   374  YAP374      0.2570
     23  O2'       11.3910   -5.8060   55.4590 O.3   374  YAP374     -0.2130
     24  O2P        6.7350   -0.7320   55.9760 O.2   374  YAP374     -0.5172
     25  C3'       11.1120   -3.4450   55.0060 C.3   374  YAP374      0.2184
     26  O3'       12.3760   -3.6430   54.4370 O.3   374  YAP374     -0.2174
     27  O3P        7.5720   -2.4680   54.1120 O.3   374  YAP374     -0.2848
     28  C4'       11.1330   -2.2190   55.9500 C.3   374  YAP374      0.1821
     29  O4'       11.4790   -2.6970   57.2940 O.3   374  YAP374     -0.3135
     30  C5'        9.7660   -1.5240   56.0610 C.3   374  YAP374      0.1813
     31  O5'        8.7710   -2.4510   56.4200 O.3   374  YAP374     -0.3113
     32  CD1        9.2600   -0.8490   50.1270 C.ar  374  YAP374     -0.0009
     33  CD2        7.0350   -0.0830   49.2660 C.ar  374  YAP374     -0.0009
     34  CE1        9.8630   -0.5630   48.9080 C.ar  374  YAP374      0.0417
     35  CE2        7.6820    0.2240   47.9490 C.ar  374  YAP374      0.0417
@<TRIPOS>BOND
     1    18    19    1
     2    19    35   ar
     3    19    34   ar
     4    35    33   ar
     5    34    32   ar
     6    33    17   ar
     7    32    17   ar
     8    17    16    1
     9     2    15    1
    10    16    15    1
    11    15     1    1
    12     1     3    1
    13     1    27    1
    14    27     4    1
    15    26    25    1
    16    25    22    1
    17    25    28    1
    18    23    22    1
    19     4    24    2
    20     4    21    1
    21     4    31    1
    22    22    20    1
    23    28    30    1
    24    28    29    1
    25    30    31    1
    26    20    29    1
    27    20    14    1
    28    14    13    1
    29    14     8    1
    30    13    12    1
    31     7     8    2
    32     7     6    1
    33     8     9    1
    34    12     9    2
    35     6     5    1
    36     9    10    1
    37     5    10    2
    38    10    11    1
