@<TRIPOS>MOLECULE
3vgl_BGC_A_1.pdb
 12 12 0 0 0
SMALL
GASTEIGER

@<TRIPOS>ATOM
      1  C2         1.0020   28.4820   17.3490 C.3   324  BGC324      0.2434
      2  C3         1.4630   29.0140   18.7040 C.3   324  BGC324      0.2199
      3  C4         2.8640   28.5110   19.0570 C.3   324  BGC324      0.2144
      4  C5         3.7790   28.8140   17.8830 C.3   324  BGC324      0.1836
      5  C6         5.2080   28.3160   18.1220 C.3   324  BGC324      0.2142
      6  C1         2.0570   28.8340   16.3060 C.3   324  BGC324      0.3024
      7  O1         1.7350   28.2830   15.0590 O.3   324  BGC324     -0.1869
      8  O2        -0.2140   29.1740   17.0060 O.3   324  BGC324     -0.2148
      9  O3         0.5700   28.6410   19.7070 O.3   324  BGC324     -0.2174
     10  O4         3.3360   29.2060   20.1970 O.3   324  BGC324     -0.2176
     11  O5         3.2930   28.2300   16.6840 O.3   324  BGC324     -0.3236
     12  O6         5.2280   26.9140   18.3330 O.3   324  BGC324     -0.2176
@<TRIPOS>BOND
     1     7     6    1
     2     6    11    1
     3     6     1    1
     4    11     4    1
     5     8     1    1
     6     1     2    1
     7     4     5    1
     8     4     3    1
     9     5    12    1
    10     2     3    1
    11     2     9    1
    12     3    10    1
