@<TRIPOS>MOLECULE
3vgl_ANP_A_1.pdb
 27 29 0 0 0
SMALL
GASTEIGER

@<TRIPOS>ATOM
      1  PB         9.6870   23.1490   17.0930 P.3   325  ANP325      0.4738
      2  O1B        8.9210   24.2060   16.2910 O.2   325  ANP325     -0.2343
      3  O2B        9.2390   21.7300   16.8970 O.3   325  ANP325     -0.1247
      4  N3B        9.5710   23.5140   18.7640 N.3   325  ANP325     -0.0178
      5  PA        12.2480   24.3370   16.3360 P.3   325  ANP325      0.2220
      6  O1A       13.6440   23.7110   16.2690 O.2   325  ANP325     -0.5170
      7  O2A       11.9820   25.4810   17.2650 O.3   325  ANP325     -0.4370
      8  O3A       11.2120   23.1260   16.5950 O.3   325  ANP325     -0.2354
      9  O5'       11.8010   24.8150   14.8660 O.3   325  ANP325     -0.3111
     10  C5'       11.8970   23.9520   13.7280 C.3   325  ANP325      0.1813
     11  C4'       12.0590   24.7900   12.4780 C.3   325  ANP325      0.1821
     12  O4'       13.1480   25.7100   12.6390 O.3   325  ANP325     -0.3135
     13  C3'       12.4050   23.9110   11.3020 C.3   325  ANP325      0.2184
     14  O3'       11.9530   24.5860   10.1250 O.3   325  ANP325     -0.2174
     15  C2'       13.9110   23.9190   11.3530 C.3   325  ANP325      0.2570
     16  O2'       14.4890   23.6390   10.0900 O.3   325  ANP325     -0.2130
     17  C1'       14.2530   25.3250   11.8240 C.3   325  ANP325      0.3186
     18  N9        15.4280   25.3240   12.7140 N.pl3 325  ANP325     -0.1439
     19  C8        15.5400   24.7700   13.9350 C.3   325  ANP325      0.3377
     20  N7        16.7910   24.9910   14.4520 N.2   325  ANP325     -0.2095
     21  C5        17.4510   25.7210   13.5360 C.2   325  ANP325      0.2526
     22  C6        18.8160   26.3040   13.3930 C.2   325  ANP325      0.4393
     23  N6        19.7410   26.1670   14.3780 N.pl3 325  ANP325      0.2180
     24  N1        19.0770   27.0020   12.2670 N.2   325  ANP325      0.0021
     25  C2        18.1920   27.1680   11.2540 C.3   325  ANP325      0.5254
     26  N3        16.9420   26.6520   11.3160 N.2   325  ANP325     -0.0055
     27  C4        16.5570   25.9450   12.3970 C.2   325  ANP325      0.3518
@<TRIPOS>BOND
     1    16    15    1
     2    14    13    1
     3    25    26    1
     4    25    24    1
     5    13    15    1
     6    13    11    1
     7    26    27    2
     8    15    17    1
     9    17    12    1
    10    17    18    1
    11    24    22    2
    12    27    18    1
    13    27    21    1
    14    11    12    1
    15    11    10    1
    16    18    19    1
    17    22    21    1
    18    22    23    1
    19    21    20    2
    20    10     9    1
    21    19    20    1
    22     9     5    1
    23     6     5    2
    24     2     1    2
    25     5     8    1
    26     5     7    1
    27     8     1    1
    28     3     1    1
    29     1     4    1
