@<TRIPOS>MOLECULE
3vgm_BGC_A_1.pdb
 12 12 0 0 0
SMALL
GASTEIGER

@<TRIPOS>ATOM
      1  C2       113.2960   39.5630   21.0000 C.3   322  BGC322      0.2434
      2  C3       113.0810   38.1140   20.5630 C.3   322  BGC322      0.2199
      3  C4       112.5710   38.0160   19.1210 C.3   322  BGC322      0.2144
      4  C5       113.4100   38.9040   18.1830 C.3   322  BGC322      0.1836
      5  C6       112.8490   38.9140   16.7540 C.3   322  BGC322      0.2142
      6  C1       114.1720   40.2390   19.9220 C.3   322  BGC322      0.3024
      7  O1       114.4000   41.5680   20.2450 O.3   322  BGC322     -0.1869
      8  O2       113.9450   39.6190   22.2720 O.3   322  BGC322     -0.2148
      9  O3       112.2220   37.4370   21.4490 O.3   322  BGC322     -0.2174
     10  O4       112.6170   36.6570   18.6830 O.3   322  BGC322     -0.2176
     11  O5       113.4300   40.2370   18.6990 O.3   322  BGC322     -0.3236
     12  O6       111.5280   39.4410   16.7830 O.3   322  BGC322     -0.2176
@<TRIPOS>BOND
     1     5    12    1
     2     5     4    1
     3     4    11    1
     4     4     3    1
     5    10     3    1
     6    11     6    1
     7     3     2    1
     8     6     7    1
     9     6     1    1
    10     2     1    1
    11     2     9    1
    12     1     8    1
