@<TRIPOS>MOLECULE
3vgn_FNN_A_1.pdb
 11 11 0 0 0
SMALL
GASTEIGER

@<TRIPOS>ATOM
      1  F          1.7890  -11.8950  -10.5920 F     140  FNN140     -0.2023
      2  N          2.8900   -9.9700  -12.3770 N.pl3 140  FNN140      0.0599
      3  O          4.4710  -15.1750  -12.5670 O.3   140  FNN140     -0.2865
      4  C1         4.0920  -13.9060  -12.4780 C.ar  140  FNN140      0.1981
      5  O1         3.7130   -8.9960  -12.9650 O.2   140  FNN140     -0.1260
      6  C2         3.1370  -13.5610  -11.5370 C.ar  140  FNN140      0.0733
      7  O2         1.7200   -9.6020  -11.8100 O.2   140  FNN140     -0.1260
      8  C3         2.7160  -12.2310  -11.5060 C.ar  140  FNN140      0.1656
      9  C4         3.2580  -11.2760  -12.3920 C.ar  140  FNN140      0.1703
     10  C5         4.2040  -11.6620  -13.3300 C.ar  140  FNN140      0.0297
     11  C6         4.5990  -12.9770  -13.3900 C.ar  140  FNN140      0.0439
@<TRIPOS>BOND
     1    11    10   ar
     2    11     4   ar
     3    10     9   ar
     4     5     2    2
     5     3     4    1
     6     4     6   ar
     7     9     2    1
     8     9     8   ar
     9     2     7    2
    10     6     8   ar
    11     8     1    1
