@<TRIPOS>MOLECULE
3vgw_NVZ_A_1.pdb
 19 20 0 0 0
SMALL
GASTEIGER

@<TRIPOS>ATOM
      1  N1        71.2300   44.1570   45.2570 N.am  1124  NVZ1124    -0.1849
      2  S1        71.7320   40.7790   45.5470 S.3   1124  NVZ1124    -0.1372
      3  C2        73.3550   41.5110   45.9040 C.3   1124  NVZ1124     0.0726
      4  N2        73.0340   43.4400   44.2620 N.2   1124  NVZ1124    -0.1891
      5  C3        71.9210   44.0880   44.0270 C.1   1124  NVZ1124     0.2170
      6  O3        71.6670   44.5480   42.9260 O.2   1124  NVZ1124    -0.2059
      7  C4        73.1150   43.0110   45.6690 C.3   1124  NVZ1124     0.1459
      8  C5        71.7520   43.3430   46.2910 C.3   1124  NVZ1124     0.1262
      9  C6        70.9080   42.0780   46.5210 C.3   1124  NVZ1124     0.0806
     10  C7        74.4550   40.9350   45.0300 C.3   1124  NVZ1124     0.0128
     11  C8        74.9850   39.5980   45.4330 C.3   1124  NVZ1124     0.0015
     12  C9        76.2260   39.2300   44.5420 C.3   1124  NVZ1124     0.0118
     13  C10       76.7760   37.8720   44.9920 C.3   1124  NVZ1124     0.1141
     14  C11       77.4420   37.9580   46.3520 C.2   1124  NVZ1124     0.3649
     15  O11       77.3650   37.0230   47.1590 O.co2 1124  NVZ1124    -0.2457
     16  O12       78.0670   38.9950   46.6510 O.co2 1124  NVZ1124    -0.2457
     17  C17       70.5040   45.2310   45.7050 C.2   1124  NVZ1124     0.2389
     18  C18       70.5890   46.3710   44.7780 C.3   1124  NVZ1124     0.0959
     19  O19       69.9530   45.3990   46.8790 O.2   1124  NVZ1124    -0.2738
@<TRIPOS>BOND
     1     6     5    2
     2     5     4    2
     3     5     1   am
     4     4     7    1
     5    12    13    1
     6    12    11    1
     7    18    17    1
     8    13    14    1
     9    10    11    1
    10    10     3    1
    11     1    17   am
    12     1     8    1
    13     2     3    1
    14     2     9    1
    15     7     3    1
    16     7     8    1
    17    17    19    2
    18     8     9    1
    19    14    16   ar
    20    14    15   ar
