@<TRIPOS>MOLECULE
3vh4_ATP_A_1.pdb
 31 33 0 0 0
SMALL
GASTEIGER

@<TRIPOS>ATOM
      1  PG       -47.2890   18.3010   15.8740 P.3   702  ATP702      0.5373
      2  O1G      -47.8820   18.9820   17.0540 O.3   702  ATP702     -0.1143
      3  O2G      -48.1680   18.6570   14.5670 O.2   702  ATP702     -0.2221
      4  O3G      -45.7730   18.8190   15.6430 O.3   702  ATP702     -0.1143
      5  PB       -46.4150   15.8630   15.0780 P.3   702  ATP702      0.2277
      6  O1B      -47.1240   14.6260   14.7170 O.2   702  ATP702     -0.5168
      7  O2B      -44.9700   15.4920   15.7230 O.3   702  ATP702     -0.4368
      8  O3B      -47.3140   16.6890   16.1570 O.3   702  ATP702     -0.2258
      9  PA       -44.6740   16.9770   13.2030 P.3   702  ATP702      0.2189
     10  O1A      -44.6980   18.0740   12.2150 O.2   702  ATP702     -0.5170
     11  O2A      -43.7110   17.4030   14.4270 O.3   702  ATP702     -0.4371
     12  O3A      -46.2260   16.7310   13.6960 O.3   702  ATP702     -0.2700
     13  O5'      -44.1010   15.6900   12.4140 O.3   702  ATP702     -0.3112
     14  C5'      -42.9500   15.1590   13.0590 C.3   702  ATP702      0.1813
     15  C4'      -42.9860   13.6550   12.8370 C.3   702  ATP702      0.1821
     16  O4'      -41.7800   12.9920   13.3240 O.3   702  ATP702     -0.3135
     17  C3'      -44.1910   13.0400   13.5730 C.3   702  ATP702      0.2184
     18  O3'      -45.0620   12.4120   12.6340 O.3   702  ATP702     -0.2174
     19  C2'      -43.5550   12.0600   14.5780 C.3   702  ATP702      0.2570
     20  O2'      -44.4110   10.9230   14.8350 O.3   702  ATP702     -0.2130
     21  C1'      -42.1970   11.7250   13.9030 C.3   702  ATP702      0.3186
     22  N9       -41.1980   11.3180   14.8820 N.pl3 702  ATP702     -0.1439
     23  C8       -40.6610   12.1100   15.8750 C.3   702  ATP702      0.3377
     24  N7       -39.7860   11.4280   16.5700 N.2   702  ATP702     -0.2095
     25  C5       -39.7010   10.1690   16.0730 C.2   702  ATP702      0.2526
     26  C6       -38.9400    9.0000   16.4020 C.2   702  ATP702      0.4393
     27  N6       -38.0510    9.0260   17.4530 N.pl3 702  ATP702      0.2180
     28  N1       -39.1120    7.8730   15.6600 N.2   702  ATP702      0.0021
     29  C2       -39.9760    7.8320   14.6300 C.3   702  ATP702      0.5254
     30  N3       -40.7120    8.9040   14.2930 N.2   702  ATP702     -0.0055
     31  C4       -40.6020   10.0790   14.9760 C.2   702  ATP702      0.3518
@<TRIPOS>BOND
     1    10     9    2
     2    13    14    1
     3    13     9    1
     4    18    17    1
     5    15    14    1
     6    15    16    1
     7    15    17    1
     8     9    12    1
     9     9    11    1
    10    16    21    1
    11    17    19    1
    12    12     5    1
    13    21    19    1
    14    21    22    1
    15    30    29    1
    16    30    31    2
    17     3     1    2
    18    19    20    1
    19    29    28    1
    20     6     5    2
    21    22    31    1
    22    22    23    1
    23    31    25    1
    24     5     7    1
    25     5     8    1
    26     4     1    1
    27    28    26    2
    28     1     8    1
    29     1     2    1
    30    23    24    1
    31    25    26    1
    32    25    24    2
    33    26    27    1
