@<TRIPOS>MOLECULE
3vha_VHA_A_1.pdb
 27 30 0 0 0
SMALL
GASTEIGER

@<TRIPOS>ATOM
      1  C1        10.6710    0.6660   15.0620 C.ar  237  VHA237      0.0388
      2  C2         9.7530    0.7800   14.0090 C.ar  237  VHA237      0.0259
      3  C3         9.0420   -0.3480   13.5710 C.ar  237  VHA237     -0.0195
      4  C4         8.0170   -0.3130   12.4370 C.3   237  VHA237      0.0311
      5  C5         9.2630   -1.5880   14.2050 C.ar  237  VHA237     -0.0011
      6  C6        10.1750   -1.6740   15.2540 C.ar  237  VHA237      0.0366
      7  C7        10.9100   -0.5610   15.6830 C.ar  237  VHA237      0.1386
      8  O8        11.8550   -0.6730   16.6980 O.3   237  VHA237     -0.4755
      9  C9        12.6470    0.5230   17.0110 C.3   237  VHA237      0.2055
     10  C10       13.8990    0.3440   17.9110 C.3   237  VHA237      0.0512
     11  C11       14.6440    1.6670   18.1740 C.3   237  VHA237      0.0512
     12  C12       15.3280    2.2060   16.9100 C.3   237  VHA237      0.2055
     13  O13       14.2640    3.0010   16.2940 O.3   237  VHA237     -0.4754
     14  C14       14.4350    3.4040   15.0120 C.ar  237  VHA237      0.1390
     15  C15       13.3100    3.9630   14.4080 C.ar  237  VHA237      0.0434
     16  C16       15.6460    3.3530   14.3030 C.ar  237  VHA237      0.0369
     17  C17       15.7120    3.8060   12.9860 C.ar  237  VHA237      0.0036
     18  C18       14.5750    4.3760   12.3860 C.ar  237  VHA237      0.0067
     19  C19       13.3860    4.4080   13.0890 C.ar  237  VHA237      0.0346
     20  S20       11.9910    5.1090   12.2690 S.3   237  VHA237     -0.0583
     21  C21       10.6160    4.0910   12.6710 C.2   237  VHA237      0.1592
     22  N22        9.4380    4.6640   12.5320 N.2   237  VHA237     -0.3232
     23  C23       10.7550    2.7790   13.1230 C.3   237  VHA237      0.1267
     24  C24        9.6180    2.0690   13.4860 C.2   237  VHA237      0.1301
     25  N25        8.4220    2.6890   13.3810 N.2   237  VHA237     -0.3298
     26  C26        8.3350    3.9350   12.8650 C.1   237  VHA237      0.2413
     27  N27        7.1380    4.5090   12.7960 N.pl3 237  VHA237     -0.0232
@<TRIPOS>BOND
     1    20    21    1
     2    20    19    1
     3    18    17   ar
     4    18    19   ar
     5     4     3    1
     6    22    21    2
     7    22    26    2
     8    21    23    1
     9    27    26    1
    10    26    25    2
    11    17    16   ar
    12    19    15   ar
    13    23    24    1
    14    25    24    2
    15    24     2    1
    16     3     2   ar
    17     3     5   ar
    18     2     1   ar
    19     5     6   ar
    20    16    14   ar
    21    15    14   ar
    22    14    13    1
    23     1     7   ar
    24     6     7   ar
    25     7     8    1
    26    13    12    1
    27     8     9    1
    28    12    11    1
    29     9    10    1
    30    10    11    1
