@<TRIPOS>MOLECULE
3vhb_HEM_A_1.pdb
 43 50 0 0 0
SMALL
GASTEIGER

@<TRIPOS>ATOM
      1 FE         42.4840    7.9460   58.9210 Fe    150  HEM150      0.0000
      2  CHA       45.4530    9.4590   57.7810 C.2   150  HEM150      0.0000
      3  CHB       40.8860   10.7920   58.6640 C.2   150  HEM150      0.0000
      4  CHC       39.3760    6.3630   59.7340 C.2   150  HEM150      0.0000
      5  CHD       44.0530    5.2150   59.6250 C.2   150  HEM150      0.0000
      6  NA        43.0650    9.7250   58.3640 N.ar  150  HEM150      0.0000
      7  C1A       44.2990   10.1830   57.9520 C.ar  150  HEM150      0.0000
      8  C2A       44.2120   11.5900   57.6380 C.ar  150  HEM150      0.0000
      9  C3A       42.9710   11.9800   57.9220 C.ar  150  HEM150      0.0000
     10  C4A       42.2340   10.8180   58.3850 C.ar  150  HEM150      0.0000
     11  CMA       42.3340   13.3800   57.7530 C.3   150  HEM150      0.0000
     12  CAA       45.4510   12.3210   57.0830 C.2   150  HEM150      0.0000
     13  CBA       45.5950   12.5060   55.5490 C.2   150  HEM150      0.0000
     14  CGA       46.6790   13.4390   55.0580 C.2   150  HEM150      0.0000
     15  O1A       46.4140   14.6750   55.0920 O.co2 150  HEM150      0.0000
     16  O2A       47.7880   12.9570   54.7020 O.co2 150  HEM150      0.0000
     17  NB        40.5530    8.4620   59.0780 N.2   150  HEM150      0.0000
     18  C1B       40.0450    9.7390   58.8520 C.2   150  HEM150      0.0000
     19  C2B       38.6360    9.8080   59.1510 C.2   150  HEM150      0.0000
     20  C3B       38.2940    8.5650   59.4810 C.2   150  HEM150      0.0000
     21  C4B       39.4450    7.6980   59.4170 C.2   150  HEM150      0.0000
     22  CMB       37.7060   11.0520   59.1050 C.3   150  HEM150      0.0000
     23  CAB       36.8860    8.1010   59.8840 C.2   150  HEM150      0.0000
     24  CBB       35.8830    8.6770   59.2300 C.2   150  HEM150      0.0000
     25  NC        41.8130    6.1500   59.5090 N.ar  150  HEM150      0.0000
     26  C1C       40.5610    5.6910   59.8790 C.ar  150  HEM150      0.0000
     27  C2C       40.6610    4.3020   60.2860 C.ar  150  HEM150      0.0000
     28  C3C       41.9440    3.9400   60.2890 C.ar  150  HEM150      0.0000
     29  C4C       42.6800    5.1070   59.8000 C.ar  150  HEM150      0.0000
     30  CMC       39.4120    3.5200   60.7000 C.3   150  HEM150      0.0000
     31  CAC       42.5590    2.5810   60.7270 C.2   150  HEM150      0.0000
     32  CBC       43.6140    2.4510   61.5410 C.2   150  HEM150      0.0000
     33  ND        44.3400    7.4920   58.7120 N.2   150  HEM150      0.0000
     34  C1D       44.8200    6.2560   59.1240 C.2   150  HEM150      0.0000
     35  C2D       46.2240    6.1710   58.8020 C.2   150  HEM150      0.0000
     36  C3D       46.5960    7.3300   58.2710 C.2   150  HEM150      0.0000
     37  C4D       45.4420    8.1680   58.2250 C.2   150  HEM150      0.0000
     38  CMD       47.0800    4.9140   59.0800 C.3   150  HEM150      0.0000
     39  CAD       47.9240    7.7500   57.6130 C.3   150  HEM150      0.0000
     40  CBD       49.0840    8.3910   58.3800 C.3   150  HEM150      0.0000
     41  CGD       49.8360    9.0580   57.2670 C.2   150  HEM150      0.0000
     42  O1D       49.5810   10.2910   57.1180 O.co2 150  HEM150      0.0000
     43  O2D       50.4250    8.2690   56.4660 O.co2 150  HEM150      0.0000
@<TRIPOS>BOND
     1    16    14   ar
     2    14    15   ar
     3    14    13    1
     4    13    12    2
     5    43    41   ar
     6    12     8    1
     7    42    41   ar
     8    41    40    1
     9    39    36    1
    10    39    40    1
    11     8     9   ar
    12     8     7   ar
    13    11     9    1
    14     2     7    2
    15     2    37    1
    16     9    10   ar
    17     7     6   ar
    18    37    36    1
    19    37    33    2
    20    36    35    2
    21     6    10   ar
    22     6     1    1
    23    10     3    2
    24     3    18    1
    25    33     1    1
    26    33    34    1
    27    35    38    1
    28    35    34    1
    29    18    17    2
    30    18    19    1
    31     1    17    1
    32     1    25    1
    33    17    21    1
    34    22    19    1
    35    34     5    2
    36    19    20    2
    37    24    23    2
    38    21    20    1
    39    21     4    2
    40    20    23    1
    41    25    29   ar
    42    25    26   ar
    43     5    29    1
    44     4    26    1
    45    29    28   ar
    46    26    27   ar
    47    27    28   ar
    48    27    30    1
    49    28    31    1
    50    31    32    2
