@<TRIPOS>MOLECULE
3vhc_VHC_A_1.pdb
 29 32 0 0 0
SMALL
GASTEIGER

@<TRIPOS>ATOM
      1  C1        10.5510   -3.0840   15.3170 C.3     1  VHC1        0.0318
      2  C2        10.3540   -1.6240   14.8670 C.ar    1  VHC1       -0.0112
      3  C3         9.4560   -1.4000   13.8250 C.ar    1  VHC1       -0.0077
      4  C4         9.2310   -0.1030   13.3320 C.ar    1  VHC1       -0.0199
      5  C5         8.2350    0.0670   12.1790 C.3     1  VHC1        0.0311
      6  C6         9.9510    0.9780   13.8670 C.ar    1  VHC1        0.0236
      7  C7        10.8670    0.7440   14.9100 C.ar    1  VHC1        0.0132
      8  C8        11.0660   -0.5520   15.4390 C.ar    1  VHC1        0.0789
      9  C9        12.0140   -0.7080   16.6320 C.1     1  VHC1        0.1497
     10  O10       11.7030   -1.4300   17.5960 O.2     1  VHC1       -0.2223
     11  N11       13.0770    0.0870   16.6080 N.2     1  VHC1       -0.2024
     12  C13       14.1070    0.0960   17.6730 C.3     1  VHC1        0.1417
     13  C14       14.6590    1.5010   17.9620 C.3     1  VHC1        0.0745
     14  C15       15.4810    2.0470   16.7820 C.3     1  VHC1        0.2075
     15  O16       14.4280    2.5160   15.9240 O.3     1  VHC1       -0.4754
     16  C17       14.6910    3.1360   14.7450 C.ar    1  VHC1        0.1391
     17  C18       13.6010    3.7910   14.1780 C.ar    1  VHC1        0.0434
     18  C19       15.9110    3.0880   14.0450 C.ar    1  VHC1        0.0369
     19  C20       15.9950    3.7090   12.8010 C.ar    1  VHC1        0.0036
     20  C21       14.9200    4.4060   12.2570 C.ar    1  VHC1        0.0067
     21  C22       13.6980    4.3960   12.9330 C.ar    1  VHC1        0.0346
     22  S23       12.3320    5.2910   12.2210 S.3     1  VHC1       -0.0583
     23  C24       10.9410    4.3110   12.6620 C.2     1  VHC1        0.1592
     24  N25        9.7710    4.9510   12.6440 N.2     1  VHC1       -0.3232
     25  C26       11.0260    2.9480   12.9780 C.3     1  VHC1        0.1267
     26  C27        9.8650    2.3070   13.4050 C.2     1  VHC1        0.1300
     27  N28        8.7010    2.9900   13.4120 N.2     1  VHC1       -0.3298
     28  C29        8.6390    4.2890   13.0150 C.1     1  VHC1        0.2413
     29  N30        7.4430    4.8950   12.9670 N.pl3   1  VHC1       -0.0232
@<TRIPOS>BOND
     1     5     4    1
     2    22    23    1
     3    22    21    1
     4    20    19   ar
     5    20    21   ar
     6    24    23    2
     7    24    28    2
     8    23    25    1
     9    19    18   ar
    10    21    17   ar
    11    29    28    1
    12    25    26    1
    13    28    27    2
    14     4     3   ar
    15     4     6   ar
    16    26    27    2
    17    26     6    1
    18     3     2   ar
    19     6     7   ar
    20    18    16   ar
    21    17    16   ar
    22    16    15    1
    23     2     1    1
    24     2     8   ar
    25     7     8   ar
    26     8     9    1
    27    15    14    1
    28    11     9    2
    29    11    12    1
    30     9    10    2
    31    14    13    1
    32    12    13    1
