@<TRIPOS>MOLECULE
3vhd_VHE_A_1.pdb
 27 29 0 0 0
SMALL
GASTEIGER

@<TRIPOS>ATOM
      1  C1       -11.7180   -5.3100  -10.6610 C.ar    1  VHE1        0.0236
      2  C2       -10.6440   -6.0100  -11.2300 C.ar    1  VHE1       -0.0199
      3  C3        -9.3400   -5.7390  -10.7060 C.ar    1  VHE1       -0.0077
      4  C4        -9.1060   -4.8110   -9.6660 C.ar    1  VHE1       -0.0112
      5  C5       -10.1990   -4.1100   -9.1470 C.ar    1  VHE1        0.0789
      6  C6       -11.4930   -4.3680   -9.6110 C.ar    1  VHE1        0.0132
      7  C7       -10.1270   -3.1390   -8.0690 C.1     1  VHE1        0.1497
      8  C8        -7.6700   -4.5790   -9.1970 C.3     1  VHE1        0.0318
      9  O9        -9.5430   -3.3820   -6.9730 O.2     1  VHE1       -0.2223
     10  N10      -10.7750   -1.9450   -8.3180 N.2     1  VHE1       -0.2025
     11  C11      -10.7960   -7.0170  -12.3920 C.3     1  VHE1        0.0311
     12  C12      -13.1020   -5.4090  -11.1310 C.2     1  VHE1        0.1300
     13  C13      -13.7840   -4.2180  -11.4850 C.3     1  VHE1        0.1264
     14  C14      -15.0840   -4.3840  -11.9490 C.2     1  VHE1        0.1552
     15  N15      -15.7030   -5.5520  -12.0550 N.2     1  VHE1       -0.3235
     16  C16      -14.9660   -6.6660  -11.6980 C.1     1  VHE1        0.2413
     17  N17      -13.6890   -6.5950  -11.2560 N.2     1  VHE1       -0.3298
     18  N18      -15.5440   -7.9480  -11.7560 N.pl3   1  VHE1       -0.0232
     19  C19      -10.8300   -0.8710   -7.2690 C.3     1  VHE1        0.1400
     20  C20      -11.9790    0.1010   -7.6520 C.3     1  VHE1        0.0544
     21  C21      -13.3500   -0.4110   -7.2210 C.3     1  VHE1        0.1396
     22  N22      -14.0440   -1.3390   -8.1650 N.2     1  VHE1       -0.2062
     23  C23      -14.8910   -0.8600   -9.1530 C.1     1  VHE1        0.1269
     24  C24      -15.5700   -1.8790  -10.0130 C.3     1  VHE1        0.1337
     25  O25      -15.0910    0.3720   -9.3170 O.2     1  VHE1       -0.2270
     26  C26      -15.3540   -1.6120  -11.5320 C.3     1  VHE1        0.0820
     27  S27      -16.0990   -3.0340  -12.4500 S.3     1  VHE1       -0.0842
@<TRIPOS>BOND
     1    27    14    1
     2    27    26    1
     3    11     2    1
     4    15    14    2
     5    15    16    2
     6    14    13    1
     7    18    16    1
     8    16    17    2
     9    26    24    1
    10    13    12    1
    11    17    12    2
    12     2     3   ar
    13     2     1   ar
    14    12     1    1
    15     3     4   ar
    16     1     6   ar
    17    24    23    1
    18     4     8    1
    19     4     5   ar
    20     6     5   ar
    21    25    23    2
    22    23    22    2
    23     5     7    1
    24    10     7    2
    25    10    19    1
    26    22    21    1
    27     7     9    2
    28    20    19    1
    29    20    21    1
