@<TRIPOS>MOLECULE
3vhe_42Q_A_1.pdb
 32 35 0 0 0
SMALL
GASTEIGER

@<TRIPOS>ATOM
      1  C1       -20.6780    2.5390  -14.1850 C.2   1170  42Q1170     0.0843
      2  N2       -21.7270    3.4780  -14.0570 N.2   1170  42Q1170    -0.2464
      3  C3       -22.9850    2.8900  -13.6920 C.3   1170  42Q1170     0.2530
      4  N4       -23.1220    1.4970  -13.4870 N.2   1170  42Q1170    -0.2126
      5  C5       -22.0180    0.6260  -13.6410 C.2   1170  42Q1170     0.2270
      6  C6       -20.7980    1.1440  -13.9820 C.3   1170  42Q1170     0.1900
      7  N8       -19.5290    0.5860  -14.1970 N.pl3 1170  42Q1170    -0.2941
      8  C9       -18.6960    1.6110  -14.5090 C.2   1170  42Q1170     0.0632
      9  C10      -19.3540    2.8170  -14.5130 C.2   1170  42Q1170     0.0323
     10  C11      -19.1690   -0.8340  -14.1030 C.3   1170  42Q1170     0.1129
     11  O17      -22.1300   -0.7600  -13.4810 O.3   1170  42Q1170    -0.4380
     12  C18      -23.2890   -1.2090  -12.8270 C.ar  1170  42Q1170     0.1493
     13  C19      -23.1630   -1.8300  -11.5210 C.ar  1170  42Q1170     0.0390
     14  C20      -24.3060   -2.4190  -10.8890 C.ar  1170  42Q1170     0.0221
     15  C21      -25.5800   -2.3780  -11.5670 C.ar  1170  42Q1170     0.1025
     16  C22      -25.6940   -1.7520  -12.8580 C.ar  1170  42Q1170     0.1584
     17  C23      -24.5820   -1.1690  -13.4980 C.ar  1170  42Q1170     0.0685
     18  N27      -26.6790   -2.9510  -11.0040 N.am  1170  42Q1170    -0.1584
     19  C28      -26.9740   -2.7780   -9.7050 C.2   1170  42Q1170     0.3478
     20  N29      -28.0750   -3.5030   -9.2940 N.am  1170  42Q1170    -0.1607
     21  C30      -28.5160   -3.5970   -7.9810 C.ar  1170  42Q1170     0.0749
     22  O31      -26.3220   -2.0400   -8.9630 O.2   1170  42Q1170    -0.2484
     23  F34      -26.9090   -1.7630  -13.4120 F     1170  42Q1170    -0.2027
     24  C35      -29.3820   -4.7080   -7.6210 C.ar  1170  42Q1170     0.0166
     25  C36      -29.9100   -4.8400   -6.2850 C.ar  1170  42Q1170     0.0013
     26  C37      -29.5760   -3.8650   -5.2960 C.ar  1170  42Q1170     0.0039
     27  C38      -28.7000   -2.7360   -5.6290 C.ar  1170  42Q1170     0.0727
     28  C39      -28.1690   -2.6050   -6.9880 C.ar  1170  42Q1170     0.0205
     29  C44      -28.3190   -1.6970   -4.5400 C.3   1170  42Q1170     0.4186
     30  F45      -28.8140   -0.5380   -4.9040 F     1170  42Q1170    -0.1659
     31  F46      -26.9990   -1.6490   -4.4650 F     1170  42Q1170    -0.1659
     32  F47      -28.8280   -2.0770   -3.3960 F     1170  42Q1170    -0.1659
@<TRIPOS>BOND
     1     9     8    2
     2     9     1    1
     3     8     7    1
     4     7    10    1
     5     7     6    1
     6     1     2    2
     7     1     6    1
     8     2     3    1
     9     6     5    1
    10     3     4    1
    11     5     4    2
    12     5    11    1
    13    17    16   ar
    14    17    12   ar
    15    11    12    1
    16    23    16    1
    17    16    15   ar
    18    12    13   ar
    19    15    18    1
    20    15    14   ar
    21    13    14   ar
    22    18    19   am
    23    19    20   am
    24    19    22    2
    25    20    21    1
    26    21    24   ar
    27    21    28   ar
    28    24    25   ar
    29    28    27   ar
    30    25    26   ar
    31    27    26   ar
    32    27    29    1
    33    30    29    1
    34    29    31    1
    35    29    32    1
