@<TRIPOS>MOLECULE
3vhh_VHH_A_1.pdb
 18 19 0 0 0
SMALL
GASTEIGER

@<TRIPOS>ATOM
      1  N1        11.9870   11.1830    6.9140 N.am  1124  VHH1124    -0.2614
      2  S1         9.3280   10.4840    8.9050 S.3   1124  VHH1124    -0.1331
      3  C2         8.6920   10.1010    7.2900 C.3   1124  VHH1124     0.0890
      4  N2        10.1510   11.5870    5.8760 N.am  1124  VHH1124    -0.2611
      5  C3        11.3160   12.0630    6.2380 C.2   1124  VHH1124     0.3073
      6  O3        11.8270   13.2280    5.8400 O.2   1124  VHH1124    -0.2523
      7  C4         9.9120   10.2320    6.3520 C.3   1124  VHH1124     0.1098
      8  C5        11.2210    9.9770    7.1290 C.3   1124  VHH1124     0.1069
      9  C6        10.9720    9.9240    8.6260 C.3   1124  VHH1124     0.0794
     10  C7         7.4540   10.9370    7.0320 C.2   1124  VHH1124    -0.0185
     11  C8         6.3790   10.6920    7.7930 C.2   1124  VHH1124    -0.0292
     12  C9         5.0830   11.4950    7.6450 C.3   1124  VHH1124     0.0375
     13  C10        4.0730   11.0020    8.6500 C.3   1124  VHH1124     0.1187
     14  C11        3.3150    9.9130    8.3670 C.2   1124  VHH1124     0.3652
     15  O11        3.4970    9.3650    7.2710 O.co2 1124  VHH1124    -0.2456
     16  O12        2.4770    9.4130    9.1690 O.co2 1124  VHH1124    -0.2456
     17  C17        9.2600   12.2320    4.9550 C.3   1124  VHH1124     0.1165
     18  C18       13.3590   11.3270    7.3250 C.3   1124  VHH1124     0.1165
@<TRIPOS>BOND
     1    17     4    1
     2     6     5    2
     3     4     5   am
     4     4     7    1
     5     5     1   am
     6     7     8    1
     7     7     3    1
     8     1     8    1
     9     1    18    1
    10    10     3    1
    11    10    11    2
    12     8     9    1
    13    15    14   ar
    14     3     2    1
    15    12    11    1
    16    12    13    1
    17    14    13    1
    18    14    16   ar
    19     9     2    1
