@<TRIPOS>MOLECULE
3vhi_VHI_A_1.pdb
 26 28 0 0 0
SMALL
GASTEIGER

@<TRIPOS>ATOM
      1  N1       -33.1320    3.6240  -29.5060 N.am  1124  VHI1124    -0.1508
      2  S1       -35.3640    3.3830  -26.9170 S.3   1124  VHI1124    -0.1372
      3  C2       -36.3120    2.9560  -28.3530 C.3   1124  VHI1124     0.0726
      4  N2       -35.0910    4.5460  -29.8130 N.2   1124  VHI1124    -0.1891
      5  C3       -33.7850    4.7650  -29.8450 C.1   1124  VHI1124     0.2195
      6  O3       -33.3440    5.8330  -30.1220 O.2   1124  VHI1124    -0.2058
      7  C4       -35.3590    3.1450  -29.4930 C.3   1124  VHI1124     0.1460
      8  C5       -33.9840    2.5890  -29.0590 C.3   1124  VHI1124     0.1295
      9  C6       -34.0020    2.3170  -27.5430 C.3   1124  VHI1124     0.0807
     10  C7       -37.5770    3.8760  -28.4000 C.3   1124  VHI1124     0.0128
     11  C8       -38.6510    3.3160  -27.5310 C.3   1124  VHI1124     0.0015
     12  C9       -39.9740    4.1670  -27.7490 C.3   1124  VHI1124     0.0118
     13  C10      -41.1390    3.7060  -26.8750 C.3   1124  VHI1124     0.1141
     14  C11      -41.6820    2.4130  -27.3050 C.2   1124  VHI1124     0.3649
     15  O11      -41.4820    1.9890  -28.4640 O.co2 1124  VHI1124    -0.2457
     16  O12      -42.2950    1.7080  -26.4670 O.co2 1124  VHI1124    -0.2457
     17  C17      -31.8350    3.2620  -29.7930 C.2   1124  VHI1124     0.4183
     18  O18      -30.9030    4.1060  -30.5160 O.3   1124  VHI1124    -0.4289
     19  O19      -31.4120    2.1010  -29.5650 O.2   1124  VHI1124    -0.2251
     20  C20      -29.4850    3.6970  -30.7610 C.3   1124  VHI1124     0.2367
     21  C21      -29.2560    2.9770  -32.0930 C.ar  1124  VHI1124     0.0213
     22  C22      -28.4820    3.5620  -33.1440 C.ar  1124  VHI1124    -0.0007
     23  C23      -28.2730    2.8830  -34.3740 C.ar  1124  VHI1124    -0.0002
     24  C24      -28.8380    1.6060  -34.5640 C.ar  1124  VHI1124    -0.0000
     25  C25      -29.6000    1.0180  -33.5330 C.ar  1124  VHI1124    -0.0002
     26  C26      -29.8180    1.7050  -32.2940 C.ar  1124  VHI1124    -0.0007
@<TRIPOS>BOND
     1    24    23   ar
     2    24    25   ar
     3    23    22   ar
     4    25    26   ar
     5    22    21   ar
     6    26    21   ar
     7    21    20    1
     8    20    18    1
     9    18    17    1
    10     6     5    2
    11     5     4    2
    12     5     1   am
    13     4     7    1
    14    17    19    2
    15    17     1   am
    16     1     8    1
    17     7     8    1
    18     7     3    1
    19     8     9    1
    20    15    14   ar
    21    10     3    1
    22    10    11    1
    23     3     2    1
    24    12    11    1
    25    12    13    1
    26     9     2    1
    27    14    13    1
    28    14    16   ar
