@<TRIPOS>MOLECULE
3vhk_BPK_A_1.pdb
 22 24 0 0 0
SMALL
GASTEIGER

@<TRIPOS>ATOM
      1  C5       -24.2820   27.8600   12.5080 C.ar  2001  BPK2001     0.0000
      2  C4       -25.4720   28.3480   12.0210 C.ar  2001  BPK2001     0.0002
      3  C6       -24.2820   26.9950   13.5800 C.ar  2001  BPK2001     0.0002
      4  C19      -31.1760   27.3200   21.1670 C.ar  2001  BPK2001     0.0029
      5  C3       -26.6560   27.9690   12.6110 C.ar  2001  BPK2001     0.0058
      6  C7       -25.4670   26.6190   14.1710 C.ar  2001  BPK2001     0.0058
      7  C18      -31.7000   26.0610   21.3640 C.ar  2001  BPK2001    -0.0015
      8  C20      -30.5310   27.6160   19.9870 C.ar  2001  BPK2001     0.0369
      9  C16      -30.9380   25.3870   19.2080 C.ar  2001  BPK2001     0.0352
     10  C2       -26.6570   27.1080   13.6850 C.ar  2001  BPK2001     0.0660
     11  C17      -31.5840   25.0920   20.3890 C.ar  2001  BPK2001     0.0136
     12  C15      -30.4170   26.6490   19.0130 C.ar  2001  BPK2001     0.1389
     13  C9       -29.5350   26.3100   15.5560 C.2   2001  BPK2001     0.1736
     14  C10      -29.9110   26.0420   14.2570 C.3   2001  BPK2001     0.2197
     15  C1       -27.8990   26.7340   14.2990 C.2   2001  BPK2001     0.2772
     16  C12      -31.1370   25.5540   13.6100 C.3   2001  BPK2001     0.0550
     17  C21      -32.1510   23.7340   20.5980 C.3   2001  BPK2001     0.2087
     18  C13      -30.3100   26.1830   16.8010 C.3   2001  BPK2001     0.2629
     19  N8       -28.2390   26.7550   15.5700 N.2   2001  BPK2001    -0.3692
     20  O11      -28.8640   26.3110   13.4380 O.2   2001  BPK2001    -0.4484
     21  O22      -31.5970   23.1950   21.7870 O.3   2001  BPK2001    -0.2152
     22  O14      -29.7590   26.9840   17.8400 O.3   2001  BPK2001    -0.4681
@<TRIPOS>BOND
     1     2     1   ar
     2     2     5   ar
     3     1     3   ar
     4     5    10   ar
     5    20    14    1
     6    20    15    1
     7     3     6   ar
     8    16    14    1
     9    10     6   ar
    10    10    15    1
    11    14    13    1
    12    15    19    2
    13    13    19    2
    14    13    18    1
    15    18    22    1
    16    22    12    1
    17    12     9   ar
    18    12     8   ar
    19     9    11   ar
    20     8     4   ar
    21    11    17    1
    22    11     7   ar
    23    17    21    1
    24     4     7   ar
