@<TRIPOS>MOLECULE
3vhm_NPK_A_1.pdb
 33 36 0 0 0
SMALL
GASTEIGER

@<TRIPOS>ATOM
      1  N1       -12.0660   11.1940   -4.9550 N.am  1124  NPK1124    -0.1508
      2  S1       -10.1240   10.5200   -8.0000 S.3   1124  NPK1124    -0.1372
      3  C2        -9.1710   11.1210   -6.6380 C.3   1124  NPK1124     0.0726
      4  N2       -10.2130   12.0810   -5.0190 N.2   1124  NPK1124    -0.1891
      5  C3       -11.4170   12.3510   -4.8620 C.1   1124  NPK1124     0.2195
      6  O3       -11.8970   13.4940   -4.7190 O.2   1124  NPK1124    -0.2058
      7  C4        -9.8890   10.7230   -5.3640 C.3   1124  NPK1124     0.1460
      8  C5       -11.2690   10.1230   -5.5990 C.3   1124  NPK1124     0.1295
      9  C6       -11.5710   10.0490   -7.1060 C.3   1124  NPK1124     0.0807
     10  C7        -7.7620   10.6270   -6.7190 C.3   1124  NPK1124     0.0128
     11  C8        -6.8670   11.7030   -7.2030 C.3   1124  NPK1124     0.0015
     12  C9        -5.6810   10.8810   -7.3790 C.3   1124  NPK1124     0.0118
     13  C10       -4.5480   11.0620   -7.9920 C.3   1124  NPK1124     0.1141
     14  C11       -3.8920    9.7660   -7.7500 C.2   1124  NPK1124     0.3649
     15  O11       -3.3410    9.1640   -8.6580 O.co2 1124  NPK1124    -0.2457
     16  O12       -3.9440    9.2360   -6.5960 O.co2 1124  NPK1124    -0.2457
     17  C30      -13.2970   11.0440   -4.4260 C.2   1124  NPK1124     0.4182
     18  O31      -13.9780   11.9020   -3.8880 O.2   1124  NPK1124    -0.2251
     19  O32      -13.9560    9.7940   -4.6070 O.3   1124  NPK1124    -0.4330
     20  C33      -14.3560    9.0080   -3.5290 C.3   1124  NPK1124     0.1946
     21  C34      -15.4290    8.0040   -4.0350 C.3   1124  NPK1124     0.0525
     22  C35      -14.5840    9.4340   -2.0950 C.ar  1124  NPK1124     0.0430
     23  C36      -13.4920    8.9850   -1.3600 C.ar  1124  NPK1124     0.0410
     24  C37      -13.4770    9.1360    0.0020 C.ar  1124  NPK1124     0.1763
     25  C38      -14.6340    9.7270    0.6830 C.ar  1124  NPK1124     0.1781
     26  C39      -15.7710   10.1590    0.0380 C.ar  1124  NPK1124     0.0640
     27  C40      -15.7970   10.0050   -1.3670 C.ar  1124  NPK1124     0.1454
     28  N40      -16.9590   10.5330   -1.9970 N.pl3 1124  NPK1124     0.0576
     29  O44      -12.4820    8.7920    0.8920 O.3   1124  NPK1124    -0.4346
     30  C45      -12.9820    9.1320    2.2080 C.3   1124  NPK1124     0.4294
     31  O46      -14.3140    9.7320    2.0050 O.3   1124  NPK1124    -0.4346
     32  O54      -17.3730   10.2120   -3.1090 O.2   1124  NPK1124    -0.1261
     33  O55      -17.5240   11.4500   -1.3930 O.2   1124  NPK1124    -0.1261
@<TRIPOS>BOND
     1    15    14   ar
     2     2     9    1
     3     2     3    1
     4    13    14    1
     5    13    12    1
     6    14    16   ar
     7    12    11    1
     8    11    10    1
     9     9     8    1
    10    10     3    1
    11     3     7    1
    12     8     7    1
    13     8     1    1
    14     7     4    1
    15     4     5    2
    16     1     5   am
    17     1    17   am
    18     5     6    2
    19    19    17    1
    20    19    20    1
    21    17    18    2
    22    21    20    1
    23    20    22    1
    24    32    28    2
    25    22    27   ar
    26    22    23   ar
    27    28    33    2
    28    28    27    1
    29    27    26   ar
    30    23    24   ar
    31    24    25   ar
    32    24    29    1
    33    26    25   ar
    34    25    31    1
    35    29    30    1
    36    31    30    1
