@<TRIPOS>MOLECULE
3vhn_CBI_A_1.pdb
 23 24 0 0 0
SMALL
GASTEIGER

@<TRIPOS>ATOM
      1  C1        15.2820    7.1940   77.2380 C.3   300  CBI300      0.2695
      2  C2        13.9360    6.6320   76.7760 C.3   300  CBI300      0.2406
      3  C3        13.1240    6.2250   78.0010 C.3   300  CBI300      0.2198
      4  C4        13.9270    5.1930   78.7910 C.3   300  CBI300      0.2144
      5  C5        15.2950    5.7740   79.1410 C.3   300  CBI300      0.1835
      6  C6        16.0830    4.7080   79.9060 C.3   300  CBI300      0.2142
      7  O2        13.2010    7.6170   76.0460 O.3   300  CBI300     -0.2149
      8  O3        11.8650    5.6960   77.5790 O.3   300  CBI300     -0.2174
      9  O4        13.2440    4.9120   80.0130 O.3   300  CBI300     -0.2176
     10  O5        15.9950    6.1720   77.9500 O.3   300  CBI300     -0.3256
     11  O6        17.3270    5.2550   80.3540 O.3   300  CBI300     -0.2176
     12  C1'       19.4950    9.5980   75.2790 C.3   300  CBI300      0.3023
     13  C2'       19.5480    8.6710   76.4960 C.3   300  CBI300      0.2433
     14  C3'       18.3390    7.7360   76.5340 C.3   300  CBI300      0.2168
     15  C4'       17.0370    8.5080   76.3070 C.3   300  CBI300      0.1804
     16  C5'       17.1600    9.3970   75.0740 C.3   300  CBI300      0.1804
     17  C6'       15.9040   10.2310   74.7940 C.3   300  CBI300      0.2141
     18  O1'       20.5120   10.5900   75.4160 O.3   300  CBI300     -0.1869
     19  O2'       20.7160    7.8510   76.4040 O.3   300  CBI300     -0.2148
     20  O3'       18.3160    7.0910   77.8100 O.3   300  CBI300     -0.2175
     21  O4'       16.0030    7.5490   76.0510 O.3   300  CBI300     -0.3257
     22  O5'       18.2520   10.3110   75.2390 O.3   300  CBI300     -0.3237
     23  O6'       15.7160   11.2490   75.7830 O.3   300  CBI300     -0.2176
@<TRIPOS>BOND
     1    17    16    1
     2    17    23    1
     3    16    22    1
     4    16    15    1
     5    22    12    1
     6    12    18    1
     7    12    13    1
     8     7     2    1
     9    21    15    1
    10    21     1    1
    11    15    14    1
    12    19    13    1
    13    13    14    1
    14    14    20    1
    15     2     1    1
    16     2     3    1
    17     1    10    1
    18     8     3    1
    19    10     5    1
    20     3     4    1
    21     4     5    1
    22     4     9    1
    23     5     6    1
    24     6    11    1
