@<TRIPOS>MOLECULE
3vhp_CBI_A_1.pdb
 23 24 0 0 0
SMALL
GASTEIGER

@<TRIPOS>ATOM
      1  C1         8.2330    0.2980    3.7690 C.3   901  CBI901      0.2695
      2  C2         8.3730   -1.1070    4.3620 C.3   901  CBI901      0.2406
      3  C3         9.6280   -1.1430    5.2380 C.3   901  CBI901      0.2198
      4  C4        10.8290   -0.7290    4.3860 C.3   901  CBI901      0.2144
      5  C5        10.5790    0.5890    3.6530 C.3   901  CBI901      0.1835
      6  C6        11.7460    0.8710    2.6990 C.3   901  CBI901      0.2142
      7  O2         7.2120   -1.4640    5.1210 O.3   901  CBI901     -0.2149
      8  O3         9.8480   -2.4640    5.7430 O.3   901  CBI901     -0.2174
      9  O4        11.9400   -0.5400    5.2610 O.3   901  CBI901     -0.2176
     10  O5         9.3590    0.5050    2.9020 O.3   901  CBI901     -0.3256
     11  O6        11.5490    2.1210    2.0300 O.3   901  CBI901     -0.2176
     12  C1'        4.7170    3.2870    1.1780 C.3   901  CBI901      0.3023
     13  C2'        6.2150    3.3090    0.8550 C.3   901  CBI901      0.2433
     14  C3'        6.8780    1.9840    1.2430 C.3   901  CBI901      0.2168
     15  C4'        6.5320    1.6190    2.6880 C.3   901  CBI901      0.1804
     16  C5'        5.0140    1.5530    2.7580 C.3   901  CBI901      0.1804
     17  C6'        4.5230    1.1210    4.1430 C.3   901  CBI901      0.2141
     18  O1'        4.1970    4.6180    1.0790 O.3   901  CBI901     -0.1869
     19  O2'        6.3850    3.4970   -0.5530 O.3   901  CBI901     -0.2148
     20  O3'        8.2940    2.1160    1.0970 O.3   901  CBI901     -0.2175
     21  O4'        7.0330    0.3090    2.9870 O.3   901  CBI901     -0.3257
     22  O5'        4.5100    2.8790    2.5380 O.3   901  CBI901     -0.3237
     23  O6'        4.6480    2.2420    5.0240 O.3   901  CBI901     -0.2176
@<TRIPOS>BOND
     1    19    13    1
     2    13    12    1
     3    13    14    1
     4    18    12    1
     5    20    14    1
     6    12    22    1
     7    14    15    1
     8    11     6    1
     9    22    16    1
    10    15    16    1
    11    15    21    1
    12     6     5    1
    13    16    17    1
    14    10     5    1
    15    10     1    1
    16    21     1    1
    17     5     4    1
    18     1     2    1
    19    17    23    1
    20     2     7    1
    21     2     3    1
    22     4     3    1
    23     4     9    1
    24     3     8    1
