@<TRIPOS>MOLECULE
3vhu_SNL_A_1.pdb
 29 33 0 0 0
SMALL
GASTEIGER

@<TRIPOS>ATOM
      1  C8        20.4060   11.1410   -0.7490 C.3   1001  SNL1001     0.0401
      2  C4        17.3590   13.2880   -0.1940 C.3   1001  SNL1001     0.0034
      3  C5        18.7590   12.9370   -0.6750 C.3   1001  SNL1001     0.0337
      4  C2        18.3130   16.2810    2.1040 C.3   1001  SNL1001     0.0157
      5  C6        19.6550   12.9910    0.5530 C.3   1001  SNL1001     0.0042
      6  C1        16.9060   16.5190    2.6230 C.3   1001  SNL1001     0.0118
      7  C3        17.3460   14.6820    0.4020 C.3   1001  SNL1001     0.0004
      8  C7        20.9110   12.2480    0.1590 C.3   1001  SNL1001     0.0037
      9  C9        18.9730   11.4990   -1.1290 C.3   1001  SNL1001     0.1362
     10  C10       19.1930   13.8800   -1.8060 C.3   1001  SNL1001     0.0035
     11  C11       18.6600   17.3230    1.0510 C.3   1001  SNL1001     0.0041
     12  C12       16.8240   17.8240    3.3910 C.3   1001  SNL1001     0.0694
     13  C13       17.9430   10.5560   -0.5400 C.3   1001  SNL1001     0.0517
     14  C14       16.9540   10.3230   -1.6410 C.3   1001  SNL1001     0.1131
     15  C15       17.6710   10.8220   -2.8470 C.2   1001  SNL1001     0.3169
     16  C16       21.5980   13.1350    4.7090 C.2   1001  SNL1001     0.1992
     17  C17       21.5090   12.0230    5.7000 C.3   1001  SNL1001     0.0845
     18  C18       17.8070   17.8040    4.5130 C.2   1001  SNL1001     0.1725
     19  C19       19.1280   17.1700    4.3110 C.2   1001  SNL1001     0.0290
     20  C20       19.3290   16.4630    3.1890 C.2   1001  SNL1001    -0.0411
     21  C21       20.6780   15.8510    2.9930 C.3   1001  SNL1001     0.0333
     22  C22       20.6810   14.4600    2.3750 C.3   1001  SNL1001     0.0586
     23  C23       19.7570   14.3820    1.1650 C.3   1001  SNL1001     0.0111
     24  C24       18.3460   14.8470    1.5510 C.3   1001  SNL1001     0.0043
     25  O57       17.2450   10.7610   -3.9800 O.2   1001  SNL1001    -0.2501
     26  O58       18.8750   11.3500   -2.5300 O.3   1001  SNL1001    -0.4557
     27  O59       22.5820   13.8560    4.6720 O.2   1001  SNL1001    -0.2845
     28  O60       17.5680   18.3570    5.5730 O.2   1001  SNL1001    -0.2914
     29  S61       20.1680   13.3110    3.6740 S.3   1001  SNL1001    -0.0777
@<TRIPOS>BOND
     1    25    15    2
     2    15    26    1
     3    15    14    1
     4    26     9    1
     5    10     3    1
     6    14    13    1
     7     9     1    1
     8     9     3    1
     9     9    13    1
    10     1     8    1
    11     3     2    1
    12     3     5    1
    13     2     7    1
    14     8     5    1
    15     7    24    1
    16     5    23    1
    17    11     4    1
    18    23    24    1
    19    23    22    1
    20    24     4    1
    21     4     6    1
    22     4    20    1
    23    22    21    1
    24    22    29    1
    25     6    12    1
    26    21    20    1
    27    20    19    2
    28    12    18    1
    29    29    16    1
    30    19    18    1
    31    18    28    2
    32    27    16    2
    33    16    17    1
