@<TRIPOS>MOLECULE
3vhv_LD1_A_1.pdb
 26 30 0 0 0
SMALL
GASTEIGER

@<TRIPOS>ATOM
      1  C1        -1.8470   17.3960   -8.3030 C.2     1  LD11        0.1666
      2  C2        -2.5360   16.2090   -8.3920 C.2     1  LD11        0.1598
      3  C3        -3.3020   15.7670   -7.3370 C.3     1  LD11        0.0907
      4  C4        -3.3750   16.5530   -6.2070 C.2     1  LD11        0.0015
      5  C5        -2.6890   17.7490   -6.1290 C.2     1  LD11        0.0006
      6  C6        -1.9160   18.1850   -7.1780 C.2     1  LD11        0.0390
      7  O7        -1.0810   17.8150   -9.3640 O.2     1  LD11       -0.4552
      8  C8        -0.4220   16.7090   -9.9990 C.3     1  LD11        0.3391
      9  C9        -1.4080   15.6570  -10.4360 C.1     1  LD11        0.2259
     10  N10       -2.4350   15.4530   -9.5600 N.2     1  LD11       -0.3345
     11  O11       -1.2800   15.0150  -11.4690 O.2     1  LD11       -0.2103
     12  C12       -4.1680   16.0490   -5.0680 C.2     1  LD11        0.0897
     13  C13       -4.1720   16.8740   -3.7870 C.3     1  LD11        0.1183
     14  S14       -5.6050   16.5570   -2.6980 S.3     1  LD11       -0.0642
     15  C15       -5.8340   14.8800   -3.0380 C.ar    1  LD11        0.2137
     16  N16       -5.3860   14.3260   -4.1940 N.ar    1  LD11       -0.1834
     17  N17       -4.7170   14.8840   -5.2180 N.2     1  LD11       -0.1654
     18  N18       -6.4450   13.9900   -2.2980 N.ar    1  LD11       -0.1202
     19  N19       -6.3960   12.8010   -2.9860 N.ar    1  LD11       -0.1231
     20  C20       -5.7600   13.0180   -4.1180 C.ar    1  LD11        0.2245
     21  C21       -2.8350   16.7960   -3.0880 C.ar    1  LD11       -0.0064
     22  C22       -1.8730   15.8630   -3.4320 C.ar    1  LD11       -0.0031
     23  C23       -0.6540   15.8340   -2.7940 C.ar    1  LD11       -0.0003
     24  C24       -0.3860   16.7580   -1.8070 C.ar    1  LD11       -0.0000
     25  C25       -1.3380   17.6930   -1.4640 C.ar    1  LD11       -0.0003
     26  C26       -2.5590   17.7130   -2.0960 C.ar    1  LD11       -0.0031
@<TRIPOS>BOND
     1    11     9    2
     2     9     8    1
     3     9    10    2
     4     8     7    1
     5    10     2    2
     6     7     1    1
     7     2     1    1
     8     2     3    1
     9     1     6    2
    10     3     4    1
    11     6     5    1
    12     4     5    2
    13     4    12    1
    14    17    12    2
    15    17    16    1
    16    12    13    1
    17    16    20   ar
    18    16    15   ar
    19    20    19   ar
    20    13    21    1
    21    13    14    1
    22    22    21   ar
    23    22    23   ar
    24    21    26   ar
    25    15    14    1
    26    15    18   ar
    27    19    18   ar
    28    23    24   ar
    29    26    25   ar
    30    24    25   ar
