@<TRIPOS>MOLECULE
3vhv_LD2_A_1.pdb
 26 29 0 0 0
SMALL
GASTEIGER

@<TRIPOS>ATOM
      1  C1         8.1180   21.0440   -8.5570 C.2     2  LD22        0.1665
      2  C2         7.8620   19.7030   -8.4280 C.2     2  LD22        0.1773
      3  C3         8.0640   18.8440   -9.4820 C.2     2  LD22        0.0334
      4  C4         8.5020   19.3550  -10.6830 C.2     2  LD22        0.0004
      5  C5         8.7560   20.7020  -10.8260 C.3     2  LD22        0.0569
      6  C6         8.5670   21.5510   -9.7550 C.2     2  LD22        0.0182
      7  O7         7.9220   21.9290   -7.5150 O.2     2  LD22       -0.4552
      8  C8         7.9360   21.3290   -6.2180 C.3     2  LD22        0.3391
      9  C9         7.2310   19.9990   -6.1370 C.1     2  LD22        0.2262
     10  N10        7.4050   19.2000   -7.2220 N.2     2  LD22       -0.3304
     11  O11        6.6060   19.6370   -5.1510 O.2     2  LD22       -0.2103
     12  C12        8.7360   18.4460  -11.8130 C.2     2  LD22        0.0783
     13  C13        8.5330   16.9850  -11.5810 C.3     2  LD22        0.0733
     14  S14       10.6780   15.9890  -12.5520 S.2     2  LD22        0.0304
     15  C15       10.0830   16.8350  -13.9580 C.1     2  LD22        0.0889
     16  N16        9.4640   18.0620  -13.9340 N.am    2  LD22       -0.1166
     17  N17        9.2030   18.9190  -12.9200 N.2     2  LD22       -0.1684
     18  N18       10.1480   16.3800  -15.1860 N.2     2  LD22       -0.0874
     19  N19        9.5760   17.3250  -15.9950 N.2     2  LD22       -0.1180
     20  C20        9.1760   18.3230  -15.2400 C.2     2  LD22        0.2219
     21  C21        7.2520   16.3850  -12.0330 C.ar    2  LD22       -0.0162
     22  C22        6.0830   17.1080  -12.0530 C.ar    2  LD22       -0.0039
     23  C23        4.9220   16.4940  -12.4590 C.ar    2  LD22       -0.0003
     24  C24        4.9270   15.1680  -12.8390 C.ar    2  LD22       -0.0000
     25  C25        6.0970   14.4420  -12.8210 C.ar    2  LD22       -0.0003
     26  C26        7.2590   15.0610  -12.4210 C.ar    2  LD22       -0.0039
@<TRIPOS>BOND
     1    19    20    2
     2    19    18    1
     3    20    16    1
     4    18    15    2
     5    15    16    1
     6    15    14    2
     7    16    17    1
     8    17    12    2
     9    24    25   ar
    10    24    23   ar
    11    25    26   ar
    12    23    22   ar
    13    26    21   ar
    14    22    21   ar
    15    21    13    1
    16    12    13    1
    17    12     4    1
    18     5     4    1
    19     5     6    1
    20     4     3    2
    21     6     1    2
    22     3     2    1
    23     1     2    1
    24     1     7    1
    25     2    10    2
    26     7     8    1
    27    10     9    2
    28     8     9    1
    29     9    11    2
