@<TRIPOS>MOLECULE
3vhw_VHW_A_1.pdb
 41 44 0 0 0
SMALL
GASTEIGER

@<TRIPOS>ATOM
      1  C1        13.0080   -1.7560  -34.4770 C.3     1  VHW1        0.0044
      2  C2        14.2570   -2.2600  -33.7690 C.3     1  VHW1        0.0220
      3  C3        13.8620   -2.7220  -32.3870 C.2     1  VHW1       -0.0446
      4  C4        12.2000   -0.7050  -33.6870 C.3     1  VHW1        0.0006
      5  C5        11.9080   -1.1590  -32.2640 C.3     1  VHW1        0.0038
      6  C6        13.1900   -1.6300  -31.6050 C.3     1  VHW1        0.0183
      7  C7        12.9260   -1.6980  -30.0850 C.3     1  VHW1        0.0040
      8  C8        11.8520   -0.6360  -29.8380 C.3     1  VHW1        0.0007
      9  C9        11.5980   -0.0440  -31.2450 C.3     1  VHW1        0.0043
     10  C10       14.1110   -3.9680  -31.9240 C.2     1  VHW1       -0.0088
     11  C11       14.8180   -5.0310  -32.6790 C.2     1  VHW1       -0.0051
     12  C12       14.6430   -6.3510  -32.3670 C.2     1  VHW1       -0.0211
     13  C13       15.4030   -7.3900  -33.1290 C.3     1  VHW1        0.0616
     14  C14       15.9230   -8.5090  -32.2250 C.3     1  VHW1        0.1861
     15  C15       14.8600   -9.0350  -31.2650 C.3     1  VHW1        0.1801
     16  C16       14.2580   -7.9440  -30.3910 C.3     1  VHW1        0.2034
     17  C17       13.7440   -6.8620  -31.3090 C.2     1  VHW1        0.0063
     18  C18       12.4930   -6.4320  -31.1900 C.2     1  VHW1       -0.0023
     19  O19       17.0490   -8.0650  -31.4110 O.3     1  VHW1       -0.2201
     20  O20       13.2300   -8.6310  -29.6760 O.3     1  VHW1       -0.2156
     21  C21       10.2910    0.7710  -31.4360 C.3     1  VHW1        0.0218
     22  C22       10.8490   -2.2740  -32.2920 C.3     1  VHW1        0.0003
     23  C23        9.0250    0.0690  -30.9760 C.2     1  VHW1       -0.0279
     24  C24       10.3550    2.1570  -30.7510 C.3     1  VHW1        0.0047
     25  C25        8.0050   -0.1490  -31.8270 C.2     1  VHW1        0.0088
     26  C26        8.0060    0.2040  -33.3010 C.3     1  VHW1        0.0299
     27  C27        6.6590   -0.3000  -33.8640 C.3     1  VHW1        0.0227
     28  C28        6.0210   -1.0680  -32.7330 C.3     1  VHW1        0.1445
     29  C29        6.7710   -0.7860  -31.4550 C.2     1  VHW1        0.1781
     30  O30        6.4580   -1.0560  -30.2990 O.2     1  VHW1       -0.2911
     31  C31        4.8470   -2.0330  -32.9860 C.3     1  VHW1        0.0180
     32  C32        5.0350    0.0970  -32.4620 C.2     1  VHW1        0.3231
     33  C33        4.0800   -2.4570  -31.7740 C.3     1  VHW1        0.0010
     34  O34        4.7470    1.0640  -33.4980 O.3     1  VHW1       -0.4441
     35  O35        4.4430    0.3350  -31.4040 O.2     1  VHW1       -0.2497
     36  C36        3.6260    1.9380  -33.3370 C.3     1  VHW1        0.2556
     37  O37       13.8440   -9.7420  -31.9810 O.3     1  VHW1       -0.3506
     38  C38       14.4910  -10.9720  -32.1790 C.3     1  VHW1        0.1450
     39  C39       13.6760  -12.1910  -31.9270 C.3     1  VHW1        0.0676
     40  C40       14.6290  -13.1230  -31.2070 C.3     1  VHW1        0.1847
     41  O41       13.8890  -13.5050  -30.0310 O.3     1  VHW1       -0.2203
@<TRIPOS>BOND
     1     1     2    1
     2     1     4    1
     3    27    26    1
     4    27    28    1
     5     2     3    1
     6     4     5    1
     7    34    36    1
     8    34    32    1
     9    26    25    1
    10    13    12    1
    11    13    14    1
    12    31    28    1
    13    31    33    1
    14    28    32    1
    15    28    29    1
    16    11    12    2
    17    11    10    1
    18    32    35    2
    19     3    10    2
    20     3     6    1
    21    12    17    1
    22    22     5    1
    23     5     6    1
    24     5     9    1
    25    14    19    1
    26    14    15    1
    27    38    37    1
    28    38    39    1
    29    37    15    1
    30    39    40    1
    31    25    29    1
    32    25    23    2
    33     6     7    1
    34    29    30    2
    35    21     9    1
    36    21    23    1
    37    21    24    1
    38    17    18    2
    39    17    16    1
    40    15    16    1
    41     9     8    1
    42    40    41    1
    43    16    20    1
    44     7     8    1
