@<TRIPOS>MOLECULE
3vhx_GTP_A_1.pdb
 32 34 0 0 0
SMALL
GASTEIGER

@<TRIPOS>ATOM
      1  PG       -13.4970  -15.5190  -10.8250 P.3   184  GTP184      0.5373
      2  O1G      -14.8210  -14.8430  -11.1240 O.3   184  GTP184     -0.1143
      3  O2G      -12.3480  -14.5970  -11.1620 O.2   184  GTP184     -0.2221
      4  O3G      -13.4090  -15.9080   -9.3770 O.3   184  GTP184     -0.1143
      5  O3B      -13.2960  -16.8500  -11.7010 O.3   184  GTP184     -0.2258
      6  PB       -14.4290  -17.8580  -12.2240 P.3   184  GTP184      0.2277
      7  O1B      -15.8390  -17.3400  -12.1100 O.2   184  GTP184     -0.5168
      8  O2B      -14.2560  -19.1470  -11.4700 O.3   184  GTP184     -0.4368
      9  O3A      -13.9970  -18.0530  -13.7610 O.3   184  GTP184     -0.2700
     10  PA       -15.0350  -17.9270  -14.9810 P.3   184  GTP184      0.2189
     11  O1A      -15.4300  -16.4820  -15.1660 O.2   184  GTP184     -0.5170
     12  O2A      -16.2530  -18.8090  -14.7910 O.3   184  GTP184     -0.4371
     13  O5'      -14.1420  -18.4010  -16.2300 O.3   184  GTP184     -0.3112
     14  C5'      -12.9310  -17.7530  -16.5640 C.3   184  GTP184      0.1813
     15  C4'      -12.5890  -18.0400  -18.0260 C.3   184  GTP184      0.1799
     16  O4'      -12.4390  -19.4350  -18.2170 O.3   184  GTP184     -0.3326
     17  C3'      -13.6930  -17.6020  -18.9710 C.3   184  GTP184      0.2158
     18  O3'      -13.0930  -17.2190  -20.1840 O.3   184  GTP184     -0.2175
     19  C2'      -14.4840  -18.8690  -19.2060 C.3   184  GTP184      0.2310
     20  O2'      -15.1760  -18.8220  -20.4310 O.3   184  GTP184     -0.2158
     21  C1'      -13.3660  -19.9010  -19.1830 C.3   184  GTP184      0.2293
     22  N9       -13.8020  -21.2780  -18.8820 N.pl3 184  GTP184     -0.2354
     23  C8       -14.6460  -21.7260  -17.8920 C.3   184  GTP184      0.2246
     24  N7       -14.7510  -23.0760  -17.9960 N.2   184  GTP184     -0.2322
     25  C5       -13.9890  -23.4950  -19.0350 C.2   184  GTP184      0.2182
     26  C6       -13.7330  -24.7540  -19.5860 C.1   184  GTP184      0.2372
     27  O6       -14.2490  -25.7640  -19.1050 O.2   184  GTP184     -0.2069
     28  N1       -12.8840  -24.8600  -20.6770 N.2   184  GTP184     -0.2485
     29  C2       -12.2980  -23.7220  -21.2170 C.1   184  GTP184      0.2531
     30  N2       -11.4830  -23.8130  -22.2610 N.pl3 184  GTP184     -0.0226
     31  N3       -12.5540  -22.4800  -20.6680 N.2   184  GTP184     -0.3074
     32  C4       -13.3870  -22.3690  -19.5970 C.2   184  GTP184      0.2300
@<TRIPOS>BOND
     1    30    29    1
     2    29    28    2
     3    29    31    2
     4    28    26    2
     5    31    32    2
     6    20    19    1
     7    18    17    1
     8    32    25    1
     9    32    22    1
    10    26    27    2
    11    26    25    1
    12    19    21    1
    13    19    17    1
    14    21    22    1
    15    21    16    1
    16    25    24    2
    17    17    15    1
    18    22    23    1
    19    16    15    1
    20    15    14    1
    21    24    23    1
    22    14    13    1
    23    13    10    1
    24    11    10    2
    25    10    12    1
    26    10     9    1
    27     9     6    1
    28     6     7    2
    29     6     5    1
    30     6     8    1
    31     5     1    1
    32     3     1    2
    33     2     1    1
    34     1     4    1
