@<TRIPOS>MOLECULE
3vhz_RET_A_1.pdb
 20 20 0 0 0
SMALL
GASTEIGER

@<TRIPOS>ATOM
      1  C1        39.3760   16.2390   21.5550 C.3   250  RET250      0.0183
      2  C2        40.0890   15.4160   20.3760 C.3   250  RET250      0.0044
      3  C3        39.8220   13.9530   20.4480 C.3   250  RET250      0.0047
      4  C4        40.4050   13.3890   21.7250 C.3   250  RET250      0.0217
      5  C5        39.7710   14.0420   22.9530 C.2   250  RET250     -0.0479
      6  C6        39.2620   15.4120   22.9090 C.2   250  RET250     -0.0307
      7  C7        38.6290   15.9790   24.2050 C.2   250  RET250     -0.0052
      8  C8        38.1050   17.2310   24.3660 C.2   250  RET250     -0.0046
      9  C9        37.4620   17.6920   25.5940 C.2   250  RET250     -0.0219
     10  C10       36.9860   18.9710   25.5520 C.2   250  RET250     -0.0043
     11  C11       36.2760   19.6360   26.6250 C.2   250  RET250     -0.0007
     12  C12       35.9320   20.9160   26.3880 C.2   250  RET250     -0.0046
     13  C13       35.2220   21.8030   27.3400 C.2   250  RET250     -0.0261
     14  C14       35.0490   23.0890   26.8870 C.2   250  RET250     -0.0300
     15  C15       34.4550   24.2240   27.6020 C.3   250  RET250      0.0304
     16  C16       40.2220   17.4930   21.7400 C.3   250  RET250      0.0043
     17  C17       37.9910   16.6330   21.0050 C.3   250  RET250      0.0043
     18  C18       39.7000   13.1980   24.2060 C.3   250  RET250      0.0260
     19  C19       37.3220   16.7750   26.8080 C.3   250  RET250      0.0310
     20  C20       34.7970   21.3090   28.7200 C.3   250  RET250      0.0307
@<TRIPOS>BOND
     1     2     3    1
     2     2     1    1
     3     3     4    1
     4    17     1    1
     5     1    16    1
     6     1     6    1
     7     4     5    1
     8     6     5    2
     9     6     7    1
    10     5    18    1
    11     7     8    2
    12     8     9    1
    13    10     9    2
    14    10    11    1
    15     9    19    1
    16    12    11    2
    17    12    13    1
    18    14    13    2
    19    14    15    1
    20    13    20    1
