@<TRIPOS>MOLECULE
3vi0_RET_A_1.pdb
 20 20 0 0 0
SMALL
GASTEIGER

@<TRIPOS>ATOM
      1  C1        39.1730   16.2360   21.6230 C.3   301  RET301      0.0183
      2  C2        39.8790   15.3920   20.4580 C.3   301  RET301      0.0044
      3  C3        39.4420   13.9480   20.4690 C.3   301  RET301      0.0047
      4  C4        39.9410   13.2640   21.7440 C.3   301  RET301      0.0217
      5  C5        39.4160   13.9750   22.9910 C.2   301  RET301     -0.0479
      6  C6        39.0250   15.3970   22.9620 C.2   301  RET301     -0.0307
      7  C7        38.4130   15.9960   24.2590 C.2   301  RET301     -0.0052
      8  C8        37.9200   17.2660   24.4140 C.2   301  RET301     -0.0046
      9  C9        37.2670   17.7120   25.6420 C.2   301  RET301     -0.0219
     10  C10       36.7810   19.0140   25.6590 C.2   301  RET301     -0.0043
     11  C11       36.0440   19.6030   26.7770 C.2   301  RET301     -0.0007
     12  C12       35.6770   20.9230   26.7050 C.2   301  RET301     -0.0046
     13  C13       34.8240   21.5800   27.7640 C.2   301  RET301     -0.0261
     14  C14       34.4470   22.9150   27.6580 C.2   301  RET301     -0.0300
     15  C15       34.9790   23.8310   26.6320 C.3   301  RET301      0.0304
     16  C16       40.0180   17.5080   21.8300 C.3   301  RET301      0.0043
     17  C17       37.7900   16.6530   21.0790 C.3   301  RET301      0.0043
     18  C18       39.2860   13.1420   24.2620 C.3   301  RET301      0.0260
     19  C19       37.1270   16.7420   26.8190 C.3   301  RET301      0.0310
     20  C20       34.3160   20.7550   28.9350 C.3   301  RET301      0.0307
@<TRIPOS>BOND
     1     2     3    1
     2     2     1    1
     3     3     4    1
     4    17     1    1
     5     1    16    1
     6     1     6    1
     7     4     5    1
     8     6     5    2
     9     6     7    1
    10     5    18    1
    11     7     8    2
    12     8     9    1
    13     9    10    2
    14     9    19    1
    15    10    11    1
    16    15    14    1
    17    12    11    2
    18    12    13    1
    19    14    13    2
    20    13    20    1
