@<TRIPOS>MOLECULE
3vi2_HMZ_A_1.pdb
 16 16 0 0 0
SMALL
GASTEIGER

@<TRIPOS>ATOM
      1  CAA       18.4180   33.8580    9.8760 C.3   500  HMZ500      0.2525
      2  OAB       25.2220   37.0350   12.7100 O.co2 500  HMZ500     -0.2456
      3  OAC       22.1880   33.2690   16.0680 O.2   500  HMZ500     -0.2912
      4  OAD       25.7190   36.2930   14.7270 O.co2 500  HMZ500     -0.2456
      5  OAE       20.2830   36.4620   14.6090 O.3   500  HMZ500     -0.2864
      6  CAF       19.8350   32.9020   12.4830 C.ar  500  HMZ500      0.0372
      7  CAG       20.8150   33.0270   13.4410 C.ar  500  HMZ500      0.0092
      8  CAH       19.1740   35.1130   12.9520 C.ar  500  HMZ500      0.0790
      9  CAI       23.5560   35.7770   13.8110 C.3   500  HMZ500      0.1222
     10  CAJ       23.2440   35.2520   15.2280 C.3   500  HMZ500      0.0811
     11  OAK       17.9990   33.7900   11.2010 O.3   500  HMZ500     -0.4713
     12  CAL       24.9480   36.4250   13.7530 C.2   500  HMZ500      0.3653
     13  CAM       22.1260   34.1900   15.2470 C.2   500  HMZ500      0.1767
     14  CAN       19.0090   33.9570   12.2140 C.ar  500  HMZ500      0.1419
     15  CAO       20.1450   35.2710   13.9110 C.ar  500  HMZ500      0.2014
     16  CAP       20.9830   34.2000   14.1800 C.ar  500  HMZ500      0.0738
@<TRIPOS>BOND
     1     1    11    1
     2    11    14    1
     3    14     6   ar
     4    14     8   ar
     5     6     7   ar
     6     2    12   ar
     7     8    15   ar
     8     7    16   ar
     9    12     9    1
    10    12     4   ar
    11     9    10    1
    12    15    16   ar
    13    15     5    1
    14    16    13    1
    15    10    13    1
    16    13     3    2
