@<TRIPOS>MOLECULE
3vi3_MAN_A_1.pdb
 11 11 0 0 0
SMALL
GASTEIGER

@<TRIPOS>ATOM
      1  C1       -30.1130   -7.1940  -14.6130 C.3   2014  MAN2014     0.1777
      2  C2       -30.7000   -8.5740  -14.9160 C.3   2014  MAN2014     0.2141
      3  C3       -30.1240   -9.6410  -13.9690 C.3   2014  MAN2014     0.2173
      4  C4       -28.6090   -9.5260  -13.7500 C.3   2014  MAN2014     0.2142
      5  C5       -28.1260   -8.0820  -13.6160 C.3   2014  MAN2014     0.1810
      6  C6       -26.6150   -8.0310  -13.7570 C.3   2014  MAN2014     0.2141
      7  O2       -30.4910   -8.8930  -16.2790 O.3   2014  MAN2014    -0.2176
      8  O3       -30.4200  -10.9340  -14.4500 O.3   2014  MAN2014    -0.2175
      9  O4       -28.2340  -10.2310  -12.5850 O.3   2014  MAN2014    -0.2176
     10  O5       -28.6970   -7.2430  -14.6090 O.3   2014  MAN2014    -0.3481
     11  O6       -26.2820   -8.1270  -15.1230 O.3   2014  MAN2014    -0.2176
@<TRIPOS>BOND
     1     7     2    1
     2    11     6    1
     3     2     1    1
     4     2     3    1
     5     1    10    1
     6    10     5    1
     7     8     3    1
     8     3     4    1
     9     6     5    1
    10     4     5    1
    11     4     9    1
