@<TRIPOS>MOLECULE
3vi4_III_G_1.pdb
 31 30 0 0 0
SMALL
GASTEIGER

@<TRIPOS>ATOM
      1  N        -30.7860  -67.3190  -36.5210 N.3   5001  ARG5001    -0.1231
      2  CA       -30.9880  -66.6170  -37.8250 C.3   5001  ARG5001     0.1694
      3  C        -32.4580  -66.6660  -38.2540 C.2   5001  ARG5001     0.2593
      4  O        -33.2080  -67.5390  -37.8210 O.2   5001  ARG5001    -0.2718
      5  CB       -30.1080  -67.2320  -38.9170 C.3   5001  ARG5001     0.0321
      6  CG       -28.7070  -67.6240  -38.4780 C.3   5001  ARG5001     0.0489
      7  CD       -27.8190  -67.9560  -39.6690 C.3   5001  ARG5001     0.2205
      8  NE       -27.0740  -66.7850  -40.1380 N.pl3 5001  ARG5001    -0.0865
      9  CZ       -26.5440  -66.6520  -41.3540 C.cat 5001  ARG5001     0.5346
     10  NH1      -26.6760  -67.6090  -42.2690 N.pl3 5001  ARG5001     0.1354
     11  NH2      -25.8860  -65.5430  -41.6630 N.pl3 5001  ARG5001     0.1354
     12  N        -32.8630  -65.7230  -39.1020 N.am  5002  GLY5002    -0.1942
     13  CA       -34.2320  -65.6660  -39.6190 C.3   5002  GLY5002     0.2014
     14  C        -35.2800  -65.4670  -38.5420 C.2   5002  GLY5002     0.2639
     15  O        -35.0510  -64.7420  -37.5750 O.2   5002  GLY5002    -0.2714
     16  N        -36.4290  -66.1180  -38.7190 N.am  5003  ASP5003    -0.1957
     17  CA       -37.5370  -66.0750  -37.7600 C.3   5003  ASP5003     0.1840
     18  C        -37.8150  -67.4640  -37.1570 C.2   5003  ASP5003     0.2622
     19  O        -38.8070  -68.1200  -37.5030 O.2   5003  ASP5003    -0.2715
     20  CB       -38.8020  -65.4980  -38.4220 C.3   5003  ASP5003     0.1450
     21  CG       -39.9970  -65.4390  -37.4700 C.2   5003  ASP5003     0.3671
     22  OD1      -40.0400  -64.5230  -36.6140 O.co2 5003  ASP5003    -0.2456
     23  OD2      -40.8930  -66.3070  -37.5840 O.co2 5003  ASP5003    -0.2456
     24  N        -36.9310  -67.9160  -36.2680 N.am  5004  ASN5004    -0.1972
     25  CA       -37.1360  -69.1890  -35.5620 C.3   5004  ASN5004     0.1688
     26  C        -36.5740  -69.2030  -34.1300 C.2   5004  ASN5004     0.2292
     27  O        -35.7370  -68.3740  -33.7600 O.2   5004  ASN5004    -0.2864
     28  CB       -36.5950  -70.3750  -36.3830 C.3   5004  ASN5004     0.1181
     29  CG       -35.0840  -70.5090  -36.3020 C.2   5004  ASN5004     0.2629
     30  OD1      -34.3680  -69.5260  -36.1020 O.2   5004  ASN5004    -0.2716
     31  ND2      -34.5900  -71.7350  -36.4550 N.am  5004  ASN5004    -0.0877
@<TRIPOS>BOND
     1    10     9    1
     2    11     9    1
     3     9     8    2
     4     8     7    1
     5     7     6    1
     6    13    12    1
     7    13    14    1
     8    12     3   am
     9     5     6    1
    10     5     2    1
    11    16    14   am
    12    16    17    1
    13    14    15    2
    14    20    17    1
    15    20    21    1
    16     3     2    1
    17     3     4    2
    18     2     1    1
    19    17    18    1
    20    23    21   ar
    21    19    18    2
    22    21    22   ar
    23    18    24   am
    24    31    29   am
    25    28    29    1
    26    28    25    1
    27    29    30    2
    28    24    25    1
    29    25    26    1
    30    26    27    2
