@<TRIPOS>MOLECULE
3vi4_MAN_A_1.pdb
 11 11 0 0 0
SMALL
GASTEIGER

@<TRIPOS>ATOM
      1  C1       -30.0310   -6.9340  -14.4760 C.3   2015  MAN2015     0.1777
      2  C2       -30.9170   -7.9850  -15.1470 C.3   2015  MAN2015     0.2141
      3  C3       -30.7230   -9.4000  -14.5690 C.3   2015  MAN2015     0.2173
      4  C4       -29.3910   -9.6780  -13.8390 C.3   2015  MAN2015     0.2142
      5  C5       -28.5860   -8.4420  -13.4140 C.3   2015  MAN2015     0.1810
      6  C6       -27.1110   -8.7770  -13.2410 C.3   2015  MAN2015     0.2141
      7  O2       -30.7110   -7.9560  -16.5480 O.3   2015  MAN2015    -0.2176
      8  O3       -30.9010  -10.3510  -15.6020 O.3   2015  MAN2015    -0.2175
      9  O4       -29.6670  -10.4390  -12.6820 O.3   2015  MAN2015    -0.2176
     10  O5       -28.7070   -7.3970  -14.3580 O.3   2015  MAN2015    -0.3481
     11  O6       -26.4170   -8.4640  -14.4290 O.3   2015  MAN2015    -0.2176
@<TRIPOS>BOND
     1     7     2    1
     2     8     3    1
     3     2     3    1
     4     2     1    1
     5     3     4    1
     6     1    10    1
     7    11     6    1
     8    10     5    1
     9     4     5    1
    10     4     9    1
    11     5     6    1
