@<TRIPOS>MOLECULE
3vi5_M4M_C_1.pdb
 32 35 0 0 0
SMALL
GASTEIGER

@<TRIPOS>ATOM
      1  C1         1.3770   -5.4460   95.2910 C.ar  803  M4M803      0.0421
      2  N1         2.2400   -0.3540   94.2450 N.pl3 803  M4M803     -0.1266
      3  O1         2.2140   -2.6650   93.0440 O.2   803  M4M803     -0.2865
      4  S1         2.0250    1.3680   96.5890 S.3   803  M4M803      0.0434
      5  C2         1.1750   -6.8400   95.2870 C.ar  803  M4M803      0.0033
      6  N2         1.0590   -2.8890   99.0380 N.pl3 803  M4M803     -0.2123
      7  O2         1.8290    1.8260   98.0230 O.3   803  M4M803     -0.0649
      8  S2        -1.8310    0.8560  102.3130 S.O2  803  M4M803      0.0935
      9  C3         1.2710   -7.5630   94.0970 C.ar  803  M4M803      0.0001
     10  N3        -0.9300    1.9090  102.8620 N.3   803  M4M803      0.0392
     11  O3         3.3240    1.8980   95.9980 O.3   803  M4M803     -0.0649
     12  C4         1.5920   -6.9390   92.9000 C.ar  803  M4M803      0.0001
     13  O4         0.8700    1.9520   95.8380 O.3   803  M4M803     -0.0649
     14  C5         1.7940   -5.5430   92.9260 C.ar  803  M4M803      0.0033
     15  C6         1.6840   -4.7830   94.1000 C.ar  803  M4M803      0.0421
     16  O6        -2.9120    1.4740  101.4770 O.2   803  M4M803     -0.1503
     17  C7         1.9120   -3.2770   94.0940 C.2   803  M4M803      0.1971
     18  O7         0.9950   -5.3190   97.6110 O.2   803  M4M803     -0.2865
     19  C8         1.7890   -2.4820   95.3470 C.ar  803  M4M803      0.0613
     20  O8        -2.4550    0.1070  103.4480 O.2   803  M4M803     -0.1503
     21  C9         1.9680   -0.9950   95.3720 C.ar  803  M4M803      0.1098
     22  C10        1.8560   -0.2730   96.5420 C.ar  803  M4M803      0.1303
     23  C11        1.5300   -0.9820   97.7120 C.ar  803  M4M803      0.0369
     24  C12        1.3440   -2.3680   97.8210 C.ar  803  M4M803      0.0750
     25  C13        0.4000   -2.0240   99.8340 C.ar  803  M4M803      0.0706
     26  C14        0.9520   -0.7610  100.0980 C.ar  803  M4M803      0.0179
     27  C15        0.2630    0.1590  100.8670 C.ar  803  M4M803      0.0213
     28  C16       -0.9960   -0.1880  101.3950 C.ar  803  M4M803      0.1251
     29  C17       -1.5520   -1.4580  101.1110 C.ar  803  M4M803      0.0213
     30  C18       -0.8590   -2.3760  100.3240 C.ar  803  M4M803      0.0179
     31  C19        1.4630   -3.2030   96.5970 C.ar  803  M4M803      0.0586
     32  C20        1.2580   -4.6820   96.5640 C.2   803  M4M803      0.1970
@<TRIPOS>BOND
     1    12    14   ar
     2    12     9   ar
     3    14    15   ar
     4     3    17    2
     5    17    15    1
     6    17    19    1
     7     9     5   ar
     8    15     1   ar
     9     2    21    1
    10     5     1   ar
    11     1    32    1
    12    19    21   ar
    13    19    31   ar
    14    21    22   ar
    15    13     4    1
    16    11     4    1
    17    22     4    1
    18    22    23   ar
    19    32    31    1
    20    32    18    2
    21     4     7    1
    22    31    24   ar
    23    23    24   ar
    24    24     6    1
    25     6    25    1
    26    25    26   ar
    27    25    30   ar
    28    26    27   ar
    29    30    29   ar
    30    27    28   ar
    31    29    28   ar
    32    28     8    1
    33    16     8    2
    34     8    10    1
    35     8    20    2
