@<TRIPOS>MOLECULE
3vi5_GSH_A_1.pdb
 20 19 0 0 0
SMALL
GASTEIGER

@<TRIPOS>ATOM
      1  N1        24.4860   15.8900   55.7870 N.3   200  GSH200     -0.1208
      2  CA1       25.2110   17.1090   55.3790 C.3   200  GSH200      0.1948
      3  C1        24.2650   18.0010   54.6010 C.2   200  GSH200      0.3819
      4  O11       23.3800   17.4620   53.8930 O.co2 200  GSH200     -0.2441
      5  O12       24.3510   19.2360   54.6580 O.co2 200  GSH200     -0.2441
      6  CB1       26.4210   16.7450   54.5450 C.3   200  GSH200      0.0402
      7  CG1       27.3650   17.9300   54.5080 C.3   200  GSH200      0.0889
      8  CD1       28.4930   17.5420   53.5570 C.2   200  GSH200      0.2418
      9  OE1       29.4060   16.5770   54.0350 O.2   200  GSH200     -0.2733
     10  N2        28.5480   18.1470   52.3430 N.am  200  GSH200     -0.1968
     11  CA2       29.6760   18.0430   51.4220 C.3   200  GSH200      0.1843
     12  C2        30.7880   18.9620   51.8700 C.2   200  GSH200      0.2627
     13  O2        30.5270   20.2950   52.1850 O.2   200  GSH200     -0.2714
     14  CB2       29.2710   18.2240   49.9340 C.3   200  GSH200      0.0997
     15  SG2       27.8120   17.2880   49.3320 S.3   200  GSH200     -0.0797
     16  N3        32.0240   18.4600   51.9790 N.am  200  GSH200     -0.1917
     17  CA3       33.1560   18.8900   51.1730 C.3   200  GSH200      0.2285
     18  C3        34.3710   18.9930   52.0790 C.2   200  GSH200      0.3865
     19  O31       35.5270   19.1240   51.6060 O.co2 200  GSH200     -0.2437
     20  O32       34.2500   18.9450   53.3330 O.co2 200  GSH200     -0.2437
@<TRIPOS>BOND
     1    15    14    1
     2    14    11    1
     3    17    16    1
     4    17    18    1
     5    11    12    1
     6    11    10    1
     7    19    18   ar
     8    12    16   am
     9    12    13    2
    10    18    20   ar
    11    10     8   am
    12     8     9    2
    13     8     7    1
    14     4     3   ar
    15     7     6    1
    16     6     2    1
    17     3     5   ar
    18     3     2    1
    19     2     1    1
