@<TRIPOS>MOLECULE
3vi7_GSH_A_1.pdb
 20 19 0 0 0
SMALL
GASTEIGER

@<TRIPOS>ATOM
      1  N1         6.1560   -3.2980   71.3290 N.3   200  GSH200     -0.1208
      2  CA1        7.3610   -3.9780   71.8460 C.3   200  GSH200      0.1948
      3  C1         7.1300   -4.6290   73.2140 C.2   200  GSH200      0.3819
      4  O11        6.2100   -4.2090   73.9100 O.co2 200  GSH200     -0.2441
      5  O12        7.7680   -5.5750   73.6910 O.co2 200  GSH200     -0.2441
      6  CB1        8.5560   -3.0370   71.9100 C.3   200  GSH200      0.0402
      7  CG1        9.8280   -3.8590   71.9040 C.3   200  GSH200      0.0889
      8  CD1       11.0780   -2.9920   71.9630 C.2   200  GSH200      0.2418
      9  OE1       11.3370   -2.0410   70.9340 O.2   200  GSH200     -0.2733
     10  N2        11.8740   -3.2400   73.0220 N.am  200  GSH200     -0.1968
     11  CA2       13.1370   -2.5390   73.2890 C.3   200  GSH200      0.1843
     12  C2        14.3240   -3.2370   72.6950 C.2   200  GSH200      0.2627
     13  O2        14.3780   -4.6180   72.7390 O.2   200  GSH200     -0.2714
     14  CB2       13.3640   -2.3960   74.7970 C.3   200  GSH200      0.0997
     15  SG2       12.1790   -1.1790   75.4390 S.3   200  GSH200     -0.0797
     16  N3        15.2560   -2.4560   72.1670 N.am  200  GSH200     -0.1917
     17  CA3       16.5490   -2.9500   71.7610 C.3   200  GSH200      0.2285
     18  C3        16.7120   -2.8410   70.2670 C.2   200  GSH200      0.3865
     19  O31       17.8400   -3.0620   69.7760 O.co2 200  GSH200     -0.2437
     20  O32       15.7620   -2.5300   69.4960 O.co2 200  GSH200     -0.2437
@<TRIPOS>BOND
     1    20    18   ar
     2    19    18   ar
     3    18    17    1
     4     9     8    2
     5     1     2    1
     6    17    16    1
     7     2     6    1
     8     2     3    1
     9     7     6    1
    10     7     8    1
    11     8    10   am
    12    16    12   am
    13    12    13    2
    14    12    11    1
    15    10    11    1
    16     3     5   ar
    17     3     4   ar
    18    11    14    1
    19    14    15    1
