@<TRIPOS>MOLECULE
3vi8_13M_A_1.pdb
 35 39 0 0 0
SMALL
GASTEIGER

@<TRIPOS>ATOM
      1  C1        14.5260    2.0780   -1.5250 C.2     1  13M1        0.3646
      2  O1        15.1160    1.0270   -1.1610 O.co2   1  13M1       -0.2457
      3  C2        13.7990    2.0720   -2.8650 C.3     1  13M1        0.1077
      4  O2        14.4620    3.1790   -0.8890 O.co2   1  13M1       -0.2457
      5  C3        14.5700    1.3680   -3.9750 C.3     1  13M1        0.0116
      6  O3         8.9520    1.0330   -7.0890 O.3     1  13M1       -0.4717
      7  C4        15.8990    2.0510   -4.2520 C.3     1  13M1        0.0006
      8  C5        12.4450    1.3980   -2.5630 C.3     1  13M1        0.0376
      9  C6        11.5290    1.2850   -3.7640 C.ar    1  13M1       -0.0217
     10  C7        10.8100    2.4010   -4.2250 C.ar    1  13M1       -0.0038
     11  C8         9.9500    2.3160   -5.3370 C.ar    1  13M1        0.0331
     12  C9         9.8080    1.0720   -6.0050 C.ar    1  13M1        0.1363
     13  C10       10.5300   -0.0400   -5.5440 C.ar    1  13M1        0.0363
     14  C11       11.3800    0.0690   -4.4360 C.ar    1  13M1       -0.0012
     15  C12        8.9040   -0.1840   -7.8270 C.3     1  13M1        0.2525
     16  C15        9.2160    3.5540   -5.7730 C.3     1  13M1        0.1448
     17  C17        9.9120    6.7850   -9.4920 C.ar    1  13M1        0.0044
     18  C19       10.4140    6.9890  -10.8150 C.ar    1  13M1        0.0001
     19  C22       10.0980    4.3570   -9.8470 C.ar    1  13M1        0.0046
     20  C85       10.4120   10.7390  -11.0570 C.ar    1  13M1        0.0000
     21  C86       10.8940   10.9180  -12.3570 C.ar    1  13M1        0.0000
     22  C87        9.7540    5.4440   -9.0200 C.ar    1  13M1        0.0550
     23  C88       11.2200    9.8150  -13.1460 C.ar    1  13M1        0.0000
     24  C89       11.0700    8.5110  -12.6520 C.ar    1  13M1        0.0000
     25  C91       11.3950    7.3970  -13.4380 C.ar    1  13M1        0.0000
     26  C92       11.2380    6.0990  -12.9280 C.ar    1  13M1        0.0000
     27  C93        9.6010    7.9500   -8.7450 C.ar    1  13M1        0.0001
     28  C94        9.7640    9.2470   -9.2460 C.ar    1  13M1        0.0000
     29  C95       10.2480    9.4430  -10.5370 C.ar    1  13M1        0.0000
     30  C96       10.5790    8.3120  -11.3330 C.ar    1  13M1        0.0000
     31  C97        9.2160    5.1440   -7.6610 C.2     1  13M1        0.2651
     32  C98       10.7510    5.8810  -11.6300 C.ar    1  13M1        0.0000
     33  C99       10.5910    4.5770  -11.1310 C.ar    1  13M1        0.0001
     34  N99        9.6590    3.9920   -7.0770 N.am    1  13M1       -0.1967
     35  O99        8.4010    5.8970   -7.1180 O.2     1  13M1       -0.2684
@<TRIPOS>BOND
     1    25    26   ar
     2    25    24   ar
     3    23    24   ar
     4    23    21   ar
     5    26    32   ar
     6    24    30   ar
     7    21    20   ar
     8    32    33   ar
     9    32    18   ar
    10    30    18   ar
    11    30    29   ar
    12    33    19   ar
    13    20    29   ar
    14    18    17   ar
    15    29    28   ar
    16    19    22   ar
    17    17    22   ar
    18    17    27   ar
    19    28    27   ar
    20    22    31    1
    21    15     6    1
    22    31    35    2
    23    31    34   am
    24     6    12    1
    25    34    16    1
    26    12    13   ar
    27    12    11   ar
    28    16    11    1
    29    13    14   ar
    30    11    10   ar
    31    14     9   ar
    32     7     5    1
    33    10     9   ar
    34     5     3    1
    35     9     8    1
    36     3     8    1
    37     3     1    1
    38     1     2   ar
    39     1     4   ar
