@<TRIPOS>MOLECULE
3vid_4TT_A_1.pdb
 17 20 0 0 0
SMALL
GASTEIGER

@<TRIPOS>ATOM
      1  C5        -1.3620   19.9310  -28.5670 C.2   2001  4TT2001     0.0098
      2  C6        -0.1970   17.7050  -29.1820 C.3   2001  4TT2001     0.0115
      3  C7        -2.2100   16.6350  -31.3580 C.3   2001  4TT2001     0.0874
      4  C10       -0.4890   20.4680  -27.6210 C.2   2001  4TT2001    -0.0228
      5  C13       -3.0710   16.0200  -32.2650 C.2   2001  4TT2001     0.1014
      6  C15       -2.8150   21.8490  -28.3520 C.2   2001  4TT2001     0.0275
      7  C17       -1.9530   22.3900  -27.3970 C.2   2001  4TT2001    -0.0188
      8  N4        -3.1710   19.8810  -29.8720 N.2   2001  4TT2001    -0.4050
      9  C9        -2.5240   20.6150  -28.9460 C.2   2001  4TT2001     0.1268
     10  C16       -0.7940   21.6980  -27.0280 C.3   2001  4TT2001     0.0518
     11  C1        -2.4310   18.7850  -30.0720 C.2   2001  4TT2001     0.1282
     12  C3        -2.8660   17.8170  -30.9880 C.2   2001  4TT2001     0.1113
     13  N8        -4.0590   17.9710  -31.5940 N.2   2001  4TT2001    -0.1500
     14  N14       -4.1510   16.8190  -32.3890 N.2   2001  4TT2001    -0.1510
     15  C2        -1.2860   18.7420  -29.2780 C.3   2001  4TT2001     0.0780
     16  C11        0.1100   17.1470  -30.5570 C.3   2001  4TT2001     0.0015
     17  C12       -0.8870   16.0590  -30.9160 C.3   2001  4TT2001     0.0122
@<TRIPOS>BOND
     1    14     5    2
     2    14    13    1
     3     5     3    1
     4    13    12    2
     5     3    12    1
     6     3    17    1
     7    12    11    1
     8    17    16    1
     9    16     2    1
    10    11     8    2
    11    11    15    1
    12     8     9    2
    13    15     2    1
    14    15     1    1
    15     9     1    1
    16     9     6    1
    17     1     4    2
    18     6     7    2
    19     4    10    1
    20     7    10    1
