@<TRIPOS>MOLECULE
3vif_LGC_A_1.pdb
 12 12 0 0 0
SMALL
GASTEIGER

@<TRIPOS>ATOM
      1  C1       -26.9660   83.1350   15.3230 C.2   507  LGC507      0.3505
      2  C2       -28.4280   82.9750   15.5970 C.3   507  LGC507      0.2823
      3  O5       -26.0700   82.0420   15.5020 O.3   507  LGC507     -0.4450
      4  O1       -26.4550   84.1630   14.9180 O.2   507  LGC507     -0.2472
      5  O2       -28.9940   84.2250   15.9910 O.3   507  LGC507     -0.2082
      6  C3       -28.7480   81.8270   16.5530 C.3   507  LGC507      0.2270
      7  O3       -30.1710   81.6360   16.4710 O.3   507  LGC507     -0.2169
      8  C4       -27.9630   80.6100   16.0750 C.3   507  LGC507      0.2276
      9  O4       -28.3570   79.4730   16.8150 O.3   507  LGC507     -0.2163
     10  C5       -26.4780   80.9150   16.2670 C.3   507  LGC507      0.2344
     11  C6       -25.5320   79.7840   15.8910 C.3   507  LGC507      0.2281
     12  O6       -25.6700   79.4320   14.5100 O.3   507  LGC507     -0.2163
@<TRIPOS>BOND
     1    12    11    1
     2     4     1    2
     3     1     3    1
     4     1     2    1
     5     3    10    1
     6     2     5    1
     7     2     6    1
     8    11    10    1
     9     8    10    1
    10     8     6    1
    11     8     9    1
    12     7     6    1
