@<TRIPOS>MOLECULE
3vig_NOJ_A_1.pdb
 11 11 0 0 0
SMALL
GASTEIGER

@<TRIPOS>ATOM
      1  C1       -27.1720   83.2000   15.2390 C.3   507  NOJ507      0.1243
      2  C2       -28.6250   82.9780   15.5650 C.3   507  NOJ507      0.2020
      3  O2       -29.1670   84.2260   16.0030 O.3   507  NOJ507     -0.2188
      4  C3       -28.8740   81.8350   16.5440 C.3   507  NOJ507      0.2151
      5  O3       -30.2910   81.6110   16.4990 O.3   507  NOJ507     -0.2176
      6  C4       -28.0840   80.6270   16.0670 C.3   507  NOJ507      0.2031
      7  O4       -28.4260   79.5020   16.8760 O.3   507  NOJ507     -0.2187
      8  C5       -26.5980   80.9560   16.1960 C.3   507  NOJ507      0.1386
      9  N5       -26.2850   82.1160   15.3860 N.3   507  NOJ507     -0.2113
     10  C6       -25.6510   79.8380   15.7750 C.3   507  NOJ507      0.2020
     11  O6       -25.8750   79.4780   14.4090 O.3   507  NOJ507     -0.2188
@<TRIPOS>BOND
     1    11    10    1
     2     1     9    1
     3     1     2    1
     4     9     8    1
     5     2     3    1
     6     2     4    1
     7    10     8    1
     8     6     8    1
     9     6     4    1
    10     6     7    1
    11     5     4    1
