@<TRIPOS>MOLECULE
3vii_BTB_A_1.pdb
 14 13 0 0 0
SMALL
GASTEIGER

@<TRIPOS>ATOM
      1  C1       -28.9770   81.8090   16.9280 C.3   507  BTB507      0.2017
      2  O1       -30.3180   81.6600   16.4960 O.3   507  BTB507     -0.2188
      3  C2       -28.2430   81.9050   15.6280 C.3   507  BTB507      0.1378
      4  C3       -28.5530   80.6330   14.8230 C.3   507  BTB507      0.2017
      5  O3       -28.5910   79.4720   15.6840 O.3   507  BTB507     -0.2188
      6  C4       -28.7350   83.2080   14.9980 C.3   507  BTB507      0.2017
      7  O4       -28.9790   84.3810   15.8220 O.3   507  BTB507     -0.2188
      8  N        -26.7820   81.9520   15.7510 N.3   507  BTB507     -0.2641
      9  C5       -26.2540   80.9080   16.6480 C.3   507  BTB507      0.1082
     10  C6       -25.0290   80.1750   16.0830 C.3   507  BTB507      0.1993
     11  O6       -25.3500   79.4550   14.8830 O.3   507  BTB507     -0.2189
     12  C7       -26.3890   81.6300   14.3610 C.3   507  BTB507      0.1082
     13  C8       -24.9930   82.1060   13.9910 C.3   507  BTB507      0.1993
     14  O8       -25.1310   83.3960   13.4030 O.3   507  BTB507     -0.2189
@<TRIPOS>BOND
     1    14    13    1
     2    13    12    1
     3    12     8    1
     4     4     3    1
     5     4     5    1
     6    11    10    1
     7     6     3    1
     8     6     7    1
     9     3     8    1
    10     3     1    1
    11     8     9    1
    12    10     9    1
    13     2     1    1
