@<TRIPOS>MOLECULE
3vij_BGC_A_1.pdb
 12 12 0 0 0
SMALL
GASTEIGER

@<TRIPOS>ATOM
      1  C2       -28.6190   82.7000   15.5330 C.3   507  BGC507      0.2823
      2  C3       -28.8440   81.5010   16.4540 C.3   507  BGC507      0.2270
      3  C4       -28.0230   80.3210   15.9540 C.3   507  BGC507      0.2276
      4  C5       -26.5550   80.7310   16.0300 C.3   507  BGC507      0.2344
      5  C6       -25.6130   79.6400   15.5470 C.3   507  BGC507      0.2281
      6  C1       -27.1500   82.9470   15.3880 C.2   507  BGC507      0.3505
      7  O1       -26.7220   84.0470   14.7250 O.2   507  BGC507     -0.2472
      8  O2       -29.1990   83.8780   16.0410 O.3   507  BGC507     -0.2082
      9  O3       -30.2310   81.2320   16.4160 O.3   507  BGC507     -0.2169
     10  O4       -28.3270   79.1840   16.7290 O.3   507  BGC507     -0.2163
     11  O5       -26.2750   81.8860   15.2590 O.3   507  BGC507     -0.4450
     12  O6       -25.8970   79.2900   14.2080 O.3   507  BGC507     -0.2163
@<TRIPOS>BOND
     1    12     5    1
     2     7     6    2
     3    11     6    1
     4    11     4    1
     5     6     1    1
     6     1     8    1
     7     1     2    1
     8     5     4    1
     9     3     4    1
    10     3     2    1
    11     3    10    1
    12     9     2    1
