@<TRIPOS>MOLECULE
3vik_CBI_A_1.pdb
 23 24 0 0 0
SMALL
GASTEIGER

@<TRIPOS>ATOM
      1  C1       -25.9100   83.1280   12.4080 C.3   507  CBI507      0.2695
      2  C2       -27.0410   84.0440   12.8660 C.3   507  CBI507      0.2406
      3  C3       -27.1420   83.9910   14.3860 C.3   507  CBI507      0.2198
      4  C4       -27.3420   82.5330   14.7870 C.3   507  CBI507      0.2144
      5  C5       -26.1770   81.6940   14.2650 C.3   507  CBI507      0.1835
      6  C6       -26.2120   80.2070   14.5810 C.3   507  CBI507      0.2142
      7  O2       -26.7770   85.3830   12.4570 O.3   507  CBI507     -0.2149
      8  O3       -28.1720   84.8860   14.8270 O.3   507  CBI507     -0.2174
      9  O4       -27.4880   82.4020   16.1980 O.3   507  CBI507     -0.2176
     10  O5       -26.1600   81.7980   12.8440 O.3   507  CBI507     -0.3256
     11  O6       -27.5330   79.7610   14.2670 O.3   507  CBI507     -0.2176
     12  C1'      -23.1760   83.2000    7.9010 C.3   507  CBI507      0.3023
     13  C2'      -23.8240   81.8420    8.1920 C.3   507  CBI507      0.2433
     14  C3'      -25.0100   82.0010    9.1390 C.3   507  CBI507      0.2168
     15  C4'      -24.6330   82.8230   10.3690 C.3   507  CBI507      0.1804
     16  C5'      -23.9200   84.1150    9.9660 C.3   507  CBI507      0.1804
     17  C6'      -23.4240   84.9560   11.1390 C.3   507  CBI507      0.2141
     18  O1'      -22.0030   83.1310    7.0950 O.3   507  CBI507     -0.1869
     19  O2'      -24.2270   81.2570    6.9500 O.3   507  CBI507     -0.2148
     20  O3'      -25.4640   80.7100    9.5540 O.3   507  CBI507     -0.2175
     21  O4'      -25.8690   83.1640   10.9920 O.3   507  CBI507     -0.3257
     22  O5'      -22.8050   83.8460    9.1140 O.3   507  CBI507     -0.3237
     23  O6'      -22.9230   86.2280   10.7160 O.3   507  CBI507     -0.2176
@<TRIPOS>BOND
     1    19    13    1
     2    18    12    1
     3    12    13    1
     4    12    22    1
     5    13    14    1
     6    22    16    1
     7    14    20    1
     8    14    15    1
     9    16    15    1
    10    16    17    1
    11    15    21    1
    12    23    17    1
    13    21     1    1
    14     1    10    1
    15     1     2    1
    16     7     2    1
    17    10     5    1
    18     2     3    1
    19     5     6    1
    20     5     4    1
    21    11     6    1
    22     3     4    1
    23     3     8    1
    24     4     9    1
