@<TRIPOS>MOLECULE
3vil_SA0_A_1.pdb
 20 21 0 0 0
SMALL
GASTEIGER

@<TRIPOS>ATOM
      1  C1       -27.1230   83.5230   14.8400 C.3   507  SA0507      0.3218
      2  O1       -27.0040   84.0670   13.5000 O.3   507  SA0507     -0.4507
      3  C2       -28.5690   83.2770   15.3190 C.3   507  SA0507      0.2542
      4  O2       -29.0920   84.4880   15.8600 O.3   507  SA0507     -0.2135
      5  C3       -28.7840   82.1580   16.3460 C.3   507  SA0507      0.2211
      6  O3       -30.1920   81.8860   16.4370 O.3   507  SA0507     -0.2173
      7  C4       -28.0500   80.9180   15.8720 C.3   507  SA0507      0.2145
      8  O4       -28.2830   79.8290   16.7660 O.3   507  SA0507     -0.2176
      9  C5       -26.5790   81.3250   15.8540 C.3   507  SA0507      0.1846
     10  O5       -26.3360   82.3370   14.8680 O.3   507  SA0507     -0.3157
     11  C6       -25.6250   80.1930   15.5220 C.3   507  SA0507      0.2142
     12  O6       -25.8840   79.7310   14.1870 O.3   507  SA0507     -0.2176
     13  OAA      -26.4340   80.9370   11.6110 O.3   507  SA0507     -0.2151
     14  CAF      -23.4260   84.2620   11.2400 C.ar  507  SA0507     -0.0000
     15  CAG      -23.6270   85.0950   12.3380 C.ar  507  SA0507      0.0031
     16  CAH      -24.4320   83.3530   10.9050 C.ar  507  SA0507      0.0013
     17  CAI      -24.8180   85.0050   13.0640 C.ar  507  SA0507      0.0367
     18  CAJ      -26.6710   82.2850   11.2020 C.3   507  SA0507      0.2116
     19  CAN      -25.6160   83.2730   11.6450 C.ar  507  SA0507      0.0447
     20  CAO      -25.8360   84.1060   12.7440 C.ar  507  SA0507      0.1398
@<TRIPOS>BOND
     1    16    14   ar
     2    16    19   ar
     3    18    13    1
     4    18    19    1
     5    14    15   ar
     6    19    20   ar
     7    15    17   ar
     8    20    17   ar
     9    20     2    1
    10     2     1    1
    11    12    11    1
    12     1    10    1
    13     1     3    1
    14    10     9    1
    15     3     4    1
    16     3     5    1
    17    11     9    1
    18     9     7    1
    19     7     5    1
    20     7     8    1
    21     5     6    1
