@<TRIPOS>MOLECULE
3vim_GBH_A_1.pdb
 26 27 0 0 0
SMALL
GASTEIGER

@<TRIPOS>ATOM
      1  C1       -26.9670   82.6560   14.6720 C.3   507  GBH507      0.2695
      2  O1       -27.0350   83.1520   13.3530 O.3   507  GBH507     -0.3271
      3  C2       -28.4030   82.6060   15.1820 C.3   507  GBH507      0.2406
      4  O2       -28.7840   83.9220   15.5930 O.3   507  GBH507     -0.2149
      5  C3       -28.6330   81.5910   16.3000 C.3   507  GBH507      0.2198
      6  O3       -30.0580   81.4580   16.4350 O.3   507  GBH507     -0.2174
      7  C4       -27.9650   80.2680   15.9320 C.3   507  GBH507      0.2144
      8  O4       -28.1990   79.3230   16.9760 O.3   507  GBH507     -0.2176
      9  C5       -26.4780   80.5540   15.7310 C.3   507  GBH507      0.1835
     10  O5       -26.3960   81.3520   14.5550 O.3   507  GBH507     -0.3256
     11  C6       -25.6140   79.3320   15.4770 C.3   507  GBH507      0.2142
     12  O6       -25.8660   78.9140   14.1360 O.3   507  GBH507     -0.2176
     13  OAA      -26.0970   78.5040    4.6180 O.3   507  GBH507     -0.3074
     14  OAB      -27.5800   77.1800    6.0350 O.3   507  GBH507     -0.3074
     15  OAG      -25.3210   76.4390    5.5670 O.3   507  GBH507     -0.3074
     16  CAI      -25.8360   83.7140   12.8400 C.3   507  GBH507      0.1621
     17  CAJ      -24.9950   82.6370   12.1840 C.3   507  GBH507      0.1047
     18  CAK      -26.0160   82.5330    9.9060 C.3   507  GBH507      0.0897
     19  CAL      -24.7930   80.7550   10.8170 C.3   507  GBH507      0.0897
     20  CAM      -26.6580   81.5530    8.9190 C.3   507  GBH507      0.0897
     21  CAN      -25.3800   79.7610    9.8250 C.3   507  GBH507      0.0897
     22  CAO      -26.4770   79.5040    7.6840 C.3   507  GBH507      0.0939
     23  CAP      -25.5450   78.4370    7.1140 C.3   507  GBH507      0.1225
     24  NAX      -25.7190   81.8420   11.1620 N.3   507  GBH507     -0.2682
     25  NAY      -25.7550   80.4320    8.5740 N.3   507  GBH507     -0.2689
     26  SAZ      -26.1800   77.6240    5.8000 S.3   507  GBH507     -0.1946
@<TRIPOS>BOND
     1    13    26    1
     2    15    26    1
     3    26    14    1
     4    26    23    1
     5    23    22    1
     6    22    25    1
     7    25    20    1
     8    25    21    1
     9    20    18    1
    10    21    19    1
    11    18    24    1
    12    19    24    1
    13    24    17    1
    14    17    16    1
    15    16     2    1
    16     2     1    1
    17    12    11    1
    18    10     1    1
    19    10     9    1
    20     1     3    1
    21     3     4    1
    22     3     5    1
    23    11     9    1
    24     9     7    1
    25     7     5    1
    26     7     8    1
    27     5     6    1
