@<TRIPOS>MOLECULE
3vin_GBH_A_1.pdb
 26 27 0 0 0
SMALL
GASTEIGER

@<TRIPOS>ATOM
      1  C1       -27.0220   82.9300   14.6910 C.3   507  GBH507      0.2695
      2  O1       -27.0370   83.3830   13.3420 O.3   507  GBH507     -0.3271
      3  C2       -28.4440   82.9350   15.2850 C.3   507  GBH507      0.2406
      4  O2       -28.8680   84.2440   15.7010 O.3   507  GBH507     -0.2149
      5  C3       -28.6980   81.8950   16.3770 C.3   507  GBH507      0.2198
      6  O3       -30.1330   81.7580   16.4750 O.3   507  GBH507     -0.2174
      7  C4       -28.0130   80.5830   15.9840 C.3   507  GBH507      0.2144
      8  O4       -28.2510   79.5740   16.9640 O.3   507  GBH507     -0.2176
      9  C5       -26.5130   80.8350   15.7560 C.3   507  GBH507      0.1835
     10  O5       -26.4370   81.6300   14.5800 O.3   507  GBH507     -0.3256
     11  C6       -25.6050   79.6390   15.4620 C.3   507  GBH507      0.2142
     12  O6       -25.8890   79.1490   14.1450 O.3   507  GBH507     -0.2176
     13  OAA      -25.9970   78.7780    4.6580 O.3   507  GBH507     -0.3074
     14  OAB      -27.5470   77.4910    6.0030 O.3   507  GBH507     -0.3074
     15  OAG      -25.2720   76.6740    5.5530 O.3   507  GBH507     -0.3074
     16  CAI      -25.8040   83.9390   12.8780 C.3   507  GBH507      0.1621
     17  CAJ      -24.9610   82.9540   12.0750 C.3   507  GBH507      0.1047
     18  CAK      -26.0620   82.7980    9.8640 C.3   507  GBH507      0.0897
     19  CAL      -24.7780   81.0380   10.7730 C.3   507  GBH507      0.0897
     20  CAM      -26.7080   81.7850    8.9170 C.3   507  GBH507      0.0897
     21  CAN      -25.3610   80.0080    9.8120 C.3   507  GBH507      0.0897
     22  CAO      -26.4680   79.7310    7.6960 C.3   507  GBH507      0.0939
     23  CAP      -25.5370   78.6250    7.1980 C.3   507  GBH507      0.1225
     24  NAX      -25.7130   82.1180   11.1180 N.3   507  GBH507     -0.2682
     25  NAY      -25.7780   80.6900    8.5780 N.3   507  GBH507     -0.2689
     26  SAZ      -26.1170   77.8680    5.8250 S.3   507  GBH507     -0.1946
@<TRIPOS>BOND
     1    13    26    1
     2    15    26    1
     3    26    14    1
     4    26    23    1
     5    23    22    1
     6    22    25    1
     7    25    20    1
     8    25    21    1
     9    20    18    1
    10    21    19    1
    11    18    24    1
    12    19    24    1
    13    24    17    1
    14    17    16    1
    15    16     2    1
    16     2     1    1
    17    12    11    1
    18    10     1    1
    19    10     9    1
    20     1     3    1
    21     3     4    1
    22     3     5    1
    23    11     9    1
    24     9     7    1
    25     7     5    1
    26     7     8    1
    27     5     6    1
