@<TRIPOS>MOLECULE
3vio_GBE_A_1.pdb
 27 28 0 0 0
SMALL
GASTEIGER

@<TRIPOS>ATOM
      1  C1       -27.0190   82.8960   14.7110 C.3   507  GBE507      0.2695
      2  O1       -27.0210   83.3390   13.3470 O.3   507  GBE507     -0.3271
      3  C2       -28.4310   82.9020   15.3480 C.3   507  GBE507      0.2406
      4  O2       -28.9220   84.1920   15.7670 O.3   507  GBE507     -0.2149
      5  C3       -28.6970   81.8310   16.4100 C.3   507  GBE507      0.2198
      6  O3       -30.1290   81.6740   16.4460 O.3   507  GBE507     -0.2174
      7  C4       -28.0040   80.5480   15.9570 C.3   507  GBE507      0.2144
      8  O4       -28.2920   79.4820   16.8570 O.3   507  GBE507     -0.2176
      9  C5       -26.4990   80.7900   15.7550 C.3   507  GBE507      0.1835
     10  O5       -26.4040   81.6080   14.5930 O.3   507  GBE507     -0.3256
     11  C6       -25.5850   79.5850   15.5110 C.3   507  GBE507      0.2142
     12  O6       -25.7230   79.1220   14.1620 O.3   507  GBE507     -0.2176
     13  OAA      -23.0880   77.7170    4.8860 O.3   507  GBE507     -0.3075
     14  OAB      -23.6280   75.9920    6.4800 O.3   507  GBE507     -0.3075
     15  OAG      -24.7070   76.0060    4.3070 O.3   507  GBE507     -0.3075
     16  CAH      -24.9580   78.7380    7.1130 C.3   507  GBE507      0.0388
     17  CAJ      -25.7770   83.8730   12.8640 C.3   507  GBE507      0.1621
     18  CAK      -26.0810   79.6590    7.5950 C.3   507  GBE507      0.0739
     19  CAL      -24.9010   82.8630   12.1180 C.3   507  GBE507      0.1047
     20  CAM      -25.2190   79.9220    9.8020 C.3   507  GBE507      0.0897
     21  CAN      -26.5640   81.6920    8.8800 C.3   507  GBE507      0.0897
     22  CAO      -24.6590   80.9420   10.7880 C.3   507  GBE507      0.0897
     23  CAP      -26.0240   82.6950    9.9060 C.3   507  GBE507      0.0897
     24  CAQ      -25.4200   77.7910    6.0060 C.3   507  GBE507      0.1067
     25  NAY      -25.5740   80.6400    8.5710 N.3   507  GBE507     -0.2703
     26  NAZ      -25.6130   82.0040   11.1440 N.3   507  GBE507     -0.2682
     27  SBA      -24.1780   76.8520    5.4060 S.3   507  GBE507     -0.1960
@<TRIPOS>BOND
     1    15    27    1
     2    13    27    1
     3    27    24    1
     4    27    14    1
     5    24    16    1
     6    16    18    1
     7    18    25    1
     8    25    21    1
     9    25    20    1
    10    21    23    1
    11    20    22    1
    12    23    26    1
    13    22    26    1
    14    26    19    1
    15    19    17    1
    16    17     2    1
    17     2     1    1
    18    12    11    1
    19    10     1    1
    20    10     9    1
    21     1     3    1
    22     3     4    1
    23     3     5    1
    24    11     9    1
    25     9     7    1
    26     7     5    1
    27     7     8    1
    28     5     6    1
