@<TRIPOS>MOLECULE
3vip_ONB_A_1.pdb
 15 17 0 0 0
SMALL
GASTEIGER

@<TRIPOS>ATOM
      1  CAA      -21.9140   76.6980   -0.9260 C.2   508  ONB508     -0.0041
      2  CAB      -21.6810   80.1700   -6.9760 C.2   508  ONB508     -0.0041
      3  CAC      -20.5720   76.7210   -1.2980 C.2   508  ONB508      0.0020
      4  CAD      -20.3370   79.9760   -6.6760 C.2   508  ONB508      0.0020
      5  CAE      -22.7290   77.7720   -1.2630 C.2   508  ONB508     -0.0194
      6  CAF      -22.6000   80.2970   -5.9360 C.2   508  ONB508     -0.0194
      7  CAG      -20.0490   77.8070   -2.0000 C.2   508  ONB508      0.0278
      8  CAH      -19.9180   79.9160   -5.3490 C.2   508  ONB508      0.0278
      9  CAI      -23.1600   79.9630   -2.2700 C.3   508  ONB508      0.0122
     10  CAJ      -23.2570   80.4250   -3.5720 C.3   508  ONB508      0.0122
     11  NAK      -20.3940   79.9600   -3.0240 N.2   508  ONB508     -0.4099
     12  CAL      -22.2100   78.8560   -1.9660 C.3   508  ONB508      0.0743
     13  CAM      -22.1900   80.2240   -4.6010 C.3   508  ONB508      0.0743
     14  CAN      -20.8660   78.8920   -2.3270 C.2   508  ONB508      0.1122
     15  CAO      -20.8350   80.0470   -4.3070 C.2   508  ONB508      0.1122
@<TRIPOS>BOND
     1     2     4    1
     2     2     6    2
     3     4     8    2
     4     6    13    1
     5     8    15    1
     6    13    15    1
     7    13    10    1
     8    15    11    2
     9    10     9    1
    10    11    14    2
    11    14     7    1
    12    14    12    1
    13     9    12    1
    14     7     3    2
    15    12     5    1
    16     3     1    1
    17     5     1    2
