@<TRIPOS>MOLECULE
3vip_GOI_A_1.pdb
 38 42 0 0 0
SMALL
GASTEIGER

@<TRIPOS>ATOM
      1  C1       -26.8550   82.7840   14.6750 C.3   507  GOI507      0.2695
      2  O1       -26.8800   83.3670   13.3770 O.3   507  GOI507     -0.3271
      3  C2       -28.2920   82.8030   15.2200 C.3   507  GOI507      0.2406
      4  O2       -28.7280   84.1060   15.6450 O.3   507  GOI507     -0.2149
      5  C3       -28.5500   81.7660   16.3110 C.3   507  GOI507      0.2198
      6  O3       -29.9810   81.6490   16.4290 O.3   507  GOI507     -0.2174
      7  C4       -27.8760   80.4490   15.9240 C.3   507  GOI507      0.2144
      8  O4       -28.1120   79.4670   16.9400 O.3   507  GOI507     -0.2176
      9  C5       -26.3810   80.6930   15.7010 C.3   507  GOI507      0.1835
     10  O5       -26.3130   81.4690   14.5060 O.3   507  GOI507     -0.3256
     11  C6       -25.5290   79.4540   15.4550 C.3   507  GOI507      0.2142
     12  O6       -25.7890   78.9880   14.1280 O.3   507  GOI507     -0.2176
     13  CAE      -24.6380   77.2420    1.5970 C.ar  507  GOI507      0.0001
     14  CAF      -18.8100   80.1430    4.4620 C.ar  507  GOI507      0.0001
     15  CAG      -25.0500   78.5270    1.9430 C.ar  507  GOI507      0.0013
     16  CAH      -19.7570   81.1580    4.5510 C.ar  507  GOI507      0.0013
     17  CAI      -23.6450   76.6120    2.3450 C.ar  507  GOI507      0.0012
     18  CAJ      -19.2230   78.8130    4.5150 C.ar  507  GOI507      0.0012
     19  CAK      -24.4650   79.1620    3.0370 C.ar  507  GOI507      0.0148
     20  CAL      -21.1050   80.8340    4.6950 C.ar  507  GOI507      0.0148
     21  CAM      -22.0140   76.5060    4.1870 C.2   507  GOI507      0.0013
     22  CAN      -20.9170   77.0490    4.7140 C.2   507  GOI507      0.0013
     23  CAO      -23.8300   80.7970    6.5780 C.2   507  GOI507      0.0113
     24  CAQ      -25.6450   83.9450   12.9430 C.3   507  GOI507      0.1621
     25  CAR      -25.0360   80.9910    7.1120 C.2   507  GOI507      0.0585
     26  CAS      -24.7550   82.9200   12.2400 C.3   507  GOI507      0.1047
     27  CAT      -26.1520   82.3070    8.7940 C.3   507  GOI507      0.1081
     28  CAU      -24.9780   80.3270    9.5070 C.3   507  GOI507      0.1081
     29  CAV      -25.6250   83.1370    9.9590 C.3   507  GOI507      0.0939
     30  CAW      -24.5220   81.1130   10.7370 C.3   507  GOI507      0.0939
     31  CAX      -23.7030   80.4250    5.1250 C.3   507  GOI507      0.1231
     32  CBA      -23.0590   77.2490    3.4390 C.ar  507  GOI507      0.0136
     33  CBB      -20.5730   78.4900    4.6500 C.ar  507  GOI507      0.0136
     34  CBC      -23.4680   78.5340    3.7920 C.ar  507  GOI507      0.0518
     35  CBD      -21.5310   79.5030    4.7410 C.ar  507  GOI507      0.0518
     36  NBJ      -25.0610   81.3750    8.4740 N.pl3 507  GOI507     -0.3039
     37  NBK      -25.4200   82.2350   11.1040 N.3   507  GOI507     -0.2676
     38  NBL      -22.9070   79.2060    4.9020 N.pl3 507  GOI507     -0.2825
@<TRIPOS>BOND
     1    13    15   ar
     2    13    17   ar
     3    15    19   ar
     4    17    32   ar
     5    19    34   ar
     6    32    34   ar
     7    32    21    1
     8    34    38    1
     9    21    22    2
    10    14    18   ar
    11    14    16   ar
    12    18    33   ar
    13    16    20   ar
    14    33    22    1
    15    33    35   ar
    16    20    35   ar
    17    35    38    1
    18    38    31    1
    19    31    23    1
    20    23    25    2
    21    25    36    1
    22    36    27    1
    23    36    28    1
    24    27    29    1
    25    28    30    1
    26    29    37    1
    27    30    37    1
    28    37    26    1
    29    26    24    1
    30    24     2    1
    31     2     1    1
    32    12    11    1
    33    10     1    1
    34    10     9    1
    35     1     3    1
    36     3     4    1
    37     3     5    1
    38    11     9    1
    39     9     7    1
    40     7     5    1
    41     7     8    1
    42     5     6    1
