@<TRIPOS>MOLECULE
3viu_ADP_A_1.pdb
 27 29 0 0 0
SMALL
GASTEIGER

@<TRIPOS>ATOM
      1  PB        41.1470  -17.8310   12.4180 P.3   800  ADP800      0.5373
      2  O1B       40.3760  -18.9830   11.8730 O.2   800  ADP800     -0.2221
      3  O2B       40.5090  -17.3840   13.8270 O.3   800  ADP800     -0.1143
      4  O3B       42.7520  -18.3070   12.6210 O.3   800  ADP800     -0.1143
      5  PA        39.7740  -16.5830   10.4170 P.3   800  ADP800      0.2231
      6  O1A       40.0610  -17.3820    9.1940 O.2   800  ADP800     -0.5169
      7  O2A       38.5120  -17.2450   11.1890 O.3   800  ADP800     -0.4370
      8  O3A       41.1030  -16.5610   11.3820 O.3   800  ADP800     -0.2261
      9  O5'       39.3730  -15.0400   10.0590 O.3   800  ADP800     -0.3111
     10  C5'       39.5420  -14.8130    8.6460 C.3   800  ADP800      0.1813
     11  C4'       40.2560  -13.4670    8.3260 C.3   800  ADP800      0.1821
     12  O4'       39.2880  -12.4410    7.9340 O.3   800  ADP800     -0.3135
     13  C3'       41.0450  -12.8610    9.5150 C.3   800  ADP800      0.2184
     14  O3'       42.1940  -12.1600    9.0210 O.3   800  ADP800     -0.2174
     15  C2'       40.0250  -11.9340   10.1760 C.3   800  ADP800      0.2570
     16  O2'       40.6480  -10.8920   10.9320 O.3   800  ADP800     -0.2130
     17  C1'       39.2070  -11.4190    8.9890 C.3   800  ADP800      0.3186
     18  N9        37.8090  -11.1650    9.3640 N.pl3 800  ADP800     -0.1439
     19  C8        36.8350  -12.1050    9.5540 C.3   800  ADP800      0.3377
     20  N7        35.7090  -11.5370    9.8760 N.2   800  ADP800     -0.2095
     21  C5        35.8800  -10.1990    9.9160 C.2   800  ADP800      0.2526
     22  C6        35.0430   -9.0880   10.1980 C.2   800  ADP800      0.4393
     23  N6        33.7120   -9.2760   10.5240 N.pl3 800  ADP800      0.2180
     24  N1        35.5720   -7.8460   10.1410 N.2   800  ADP800      0.0021
     25  C2        36.8610   -7.6420    9.8270 C.3   800  ADP800      0.5254
     26  N3        37.6800   -8.6600    9.5550 N.2   800  ADP800     -0.0055
     27  C4        37.2380   -9.9360    9.5870 C.2   800  ADP800      0.3518
@<TRIPOS>BOND
     1    12    11    1
     2    12    17    1
     3    11    10    1
     4    11    13    1
     5    10     9    1
     6    17    18    1
     7    17    15    1
     8    14    13    1
     9     6     5    2
    10    18    19    1
    11    18    27    1
    12    13    15    1
    13    19    20    1
    14    26    27    2
    15    26    25    1
    16    27    21    1
    17    25    24    1
    18    20    21    2
    19    21    22    1
    20     9     5    1
    21    24    22    2
    22    15    16    1
    23    22    23    1
    24     5     7    1
    25     5     8    1
    26     8     1    1
    27     2     1    2
    28     1     4    1
    29     1     3    1
