@<TRIPOS>MOLECULE
3vj7_3PD_A_1.pdb
 22 24 0 0 0
SMALL
GASTEIGER

@<TRIPOS>ATOM
      1  O5'       11.4600   13.4950    1.3490 O.3     1  3PD1       -0.2176
      2  C5'       12.4100   12.8200    2.1680 C.3     1  3PD1        0.2140
      3  C4'       13.4180   13.7890    2.7730 C.3     1  3PD1        0.1774
      4  O4'       14.3740   14.2750    1.7830 O.3     1  3PD1       -0.3347
      5  C1'       14.6830   15.6230    1.9910 C.3     1  3PD1        0.1980
      6  C2'       13.8770   16.1530    3.1900 C.3     1  3PD1        0.0836
      7  C3'       12.8180   15.0470    3.4350 C.3     1  3PD1        0.1573
      8  O3'       12.6580   14.7240    4.8330 O.3     1  3PD1       -0.2951
      9  N9        14.4990   16.3850    0.6830 N.pl3   1  3PD1       -0.2374
     10  C4        13.3290   16.6820   -0.0260 C.2     1  3PD1        0.2299
     11  N3        12.0140   16.3350    0.3380 N.2     1  3PD1       -0.3074
     12  C2        11.0720   16.7790   -0.5550 C.1     1  3PD1        0.2531
     13  N2         9.7690   16.5460   -0.3800 N.pl3   1  3PD1       -0.0226
     14  N1        11.4110   17.5140   -1.7050 N.2     1  3PD1       -0.2485
     15  C6        12.7410   17.8830   -2.1000 C.1     1  3PD1        0.2372
     16  O6        12.8960   18.5310   -3.1390 O.2     1  3PD1       -0.2069
     17  C5        13.7480   17.4200   -1.1620 C.2     1  3PD1        0.2182
     18  N7        15.1260   17.5630   -1.1750 N.2     1  3PD1       -0.2322
     19  C8        15.5130   16.9460   -0.0810 C.3     1  3PD1        0.2245
     20  P         12.3740   15.7540    6.0310 P.3     1  3PD1        0.3942
     21  O1P       13.5610   15.7790    6.8840 O.3     1  3PD1       -0.1425
     22  O1        11.8820   17.0660    5.5510 O.3     1  3PD1       -0.1425
@<TRIPOS>BOND
     1    16    15    2
     2    15    14    2
     3    15    17    1
     4    14    12    2
     5    18    17    2
     6    18    19    1
     7    17    10    1
     8    12    13    1
     9    12    11    2
    10    19     9    1
    11    10    11    2
    12    10     9    1
    13     9     5    1
    14     1     2    1
    15     4     5    1
    16     4     3    1
    17     5     6    1
    18     2     3    1
    19     3     7    1
    20     6     7    1
    21     7     8    1
    22     8    20    1
    23    22    20    1
    24    20    21    1
