@<TRIPOS>MOLECULE
3vj7_UM3_A_1.pdb
 20 21 0 0 0
SMALL
GASTEIGER

@<TRIPOS>ATOM
      1  N1         6.2100   13.5250    5.1670 N.am  117  UM3117     -0.1790
      2  C2         4.9110   12.9390    5.2780 C.1   117  UM3117      0.2844
      3  N3         3.8670   13.7270    4.7540 N.2   117  UM3117     -0.2452
      4  C4         3.9920   14.9920    4.1540 C.1   117  UM3117      0.2182
      5  C5         5.3610   15.5230    4.0740 C.2   117  UM3117      0.1242
      6  C6         6.4070   14.7960    4.5660 C.2   117  UM3117      0.0928
      7  O2         4.6900   11.8470    5.7920 O.2   117  UM3117     -0.1918
      8  O4         3.0050   15.5700    3.7510 O.2   117  UM3117     -0.2085
      9  C1'        7.3560   12.7020    5.7500 C.3   117  UM3117      0.2089
     10  C2'        8.4960   12.2600    4.8250 C.3   117  UM3117      0.0847
     11  C3'        9.7140   12.3360    5.7850 C.3   117  UM3117      0.1601
     12  C4'        9.3520   13.5550    6.6480 C.3   117  UM3117      0.1775
     13  O3'        9.7700   11.2140    6.6930 O.3   117  UM3117     -0.2700
     14  O4'        7.9120   13.4870    6.7910 O.3   117  UM3117     -0.3339
     15  C5'        9.8920   14.8720    6.1740 C.3   117  UM3117      0.2140
     16  O5'       11.1910   15.0180    6.7970 O.3   117  UM3117     -0.2176
     17  P         10.1930    9.8590    6.0740 P.3   117  UM3117      0.5326
     18  O1P       10.1940    8.8860    7.1280 O.3   117  UM3117     -0.1145
     19  O2P       11.5200    9.9970    5.5450 O.3   117  UM3117     -0.1145
     20  O3P        9.3020    9.4220    5.0250 O.2   117  UM3117     -0.2224
@<TRIPOS>BOND
     1     8     4    2
     2     5     4    1
     3     5     6    2
     4     4     3    2
     5     6     1    1
     6     3     2    2
     7    10     9    1
     8    10    11    1
     9    20    17    2
    10     1     2   am
    11     1     9    1
    12     2     7    2
    13    19    17    1
    14     9    14    1
    15    11    12    1
    16    11    13    1
    17    17    13    1
    18    17    18    1
    19    15    12    1
    20    15    16    1
    21    12    14    1
