@<TRIPOS>MOLECULE
3vjc_ZGA_A_1.pdb
 49 51 0 0 0
SMALL
GASTEIGER

@<TRIPOS>ATOM
      1  CAA       15.7190   65.0890   51.9800 C.2   400  ZGA400     -0.0056
      2  CAB       14.2120   52.1260   54.0460 C.3   400  ZGA400      0.0000
      3  CAC       12.1350   65.8550   49.5260 C.3   400  ZGA400      0.1212
      4  CAD       19.5350   53.4300   50.7880 C.3   400  ZGA400      0.0047
      5  CAE       14.9990   53.8410   51.5800 C.3   400  ZGA400      0.0000
      6  CAF       17.2520   64.8110   48.8050 C.3   400  ZGA400      0.0044
      7  OAG       12.7620   63.8630   50.7180 O.2   400  ZGA400     -0.2501
      8  OAH       18.7320   56.7470   54.3970 O.2   400  ZGA400     -0.2449
      9  OAI       18.7920   63.1290   57.5370 O.co2 400  ZGA400     -0.2428
     10  OAJ       20.3410   58.7270   56.2600 O.co2 400  ZGA400     -0.2427
     11  OAK       21.2470   59.0500   53.2180 O.co2 400  ZGA400     -0.2428
     12  OAL       20.0280   61.4140   58.0960 O.co2 400  ZGA400     -0.2428
     13  OAM       22.0160   60.1040   56.0020 O.co2 400  ZGA400     -0.2427
     14  OAN       20.6930   60.5370   51.7290 O.co2 400  ZGA400     -0.2428
     15  OAO       16.1700   60.0230   55.1360 O.3   400  ZGA400     -0.2139
     16  OAP       20.7520   61.9630   54.9020 O.3   400  ZGA400     -0.2077
     17  CAQ       18.1600   56.1490   52.1670 C.2   400  ZGA400      0.0773
     18  CAR       18.4010   54.8610   52.3690 C.2   400  ZGA400     -0.0198
     19  CAS       18.5760   61.5280   44.7620 C.ar  400  ZGA400     -0.0000
     20  CAT       18.1010   62.8350   44.6490 C.ar  400  ZGA400     -0.0003
     21  CAU       18.1380   60.7250   45.8130 C.ar  400  ZGA400     -0.0003
     22  CAV       17.2240   63.3360   45.6050 C.ar  400  ZGA400     -0.0043
     23  CAW       17.2630   61.2240   46.7830 C.ar  400  ZGA400     -0.0043
     24  CAX       15.3540   51.8370   53.0880 C.3   400  ZGA400      0.0000
     25  CAY       16.2240   62.5930   52.0680 C.3   400  ZGA400      0.0306
     26  CAZ       16.6700   62.8430   53.4950 C.3   400  ZGA400      0.0635
     27  CBA       15.8190   63.1270   47.6590 C.3   400  ZGA400      0.0303
     28  CBB       17.2890   52.7250   51.7480 C.3   400  ZGA400      0.0043
     29  OBC       14.4630   64.7800   49.5380 O.3   400  ZGA400     -0.4480
     30  OBD       18.1600   58.4850   52.9320 O.3   400  ZGA400     -0.4432
     31  OBE       17.9110   62.1480   55.3740 O.3   400  ZGA400     -0.3201
     32  OBF       18.7220   61.5400   53.2970 O.3   400  ZGA400     -0.3196
     33  CBG       13.0830   64.7800   49.9870 C.2   400  ZGA400      0.3177
     34  CBH       18.3880   57.0970   53.2710 C.2   400  ZGA400      0.3411
     35  CBI       15.7490   63.8770   51.3840 C.2   400  ZGA400     -0.0048
     36  CBJ       19.2290   61.9780   57.3180 C.2   400  ZGA400      0.3946
     37  CBK       20.8110   59.8110   55.8530 C.2   400  ZGA400      0.3976
     38  CBL       20.5040   59.9770   52.8400 C.2   400  ZGA400      0.3953
     39  CBM       16.8060   62.5350   46.6710 C.ar  400  ZGA400     -0.0221
     40  CBN       18.1520   53.8840   51.2480 C.3   400  ZGA400      0.0222
     41  CBO       15.9870   53.0860   52.4710 C.3   400  ZGA400      0.0003
     42  CBP       16.4360   63.5300   48.9930 C.3   400  ZGA400      0.0485
     43  CBQ       16.9840   60.2980   53.9980 C.3   400  ZGA400      0.2455
     44  CBR       15.2770   63.6870   49.9720 C.3   400  ZGA400      0.1874
     45  CBS       18.7750   61.2570   56.0790 C.3   400  ZGA400      0.2614
     46  CBT       18.2400   59.4210   53.9980 C.3   400  ZGA400      0.2423
     47  CBU       19.9270   60.8260   55.1660 C.3   400  ZGA400      0.2895
     48  CBV       17.5330   61.7240   54.0580 C.3   400  ZGA400      0.2205
     49  CBW       19.4030   60.3960   53.7940 C.3   400  ZGA400      0.2651
@<TRIPOS>BOND
     1    20    19   ar
     2    20    22   ar
     3    19    21   ar
     4    22    39   ar
     5    21    23   ar
     6    39    23   ar
     7    39    27    1
     8    27    42    1
     9     6    42    1
    10    42    44    1
    11     3    33    1
    12    29    44    1
    13    29    33    1
    14    44    35    1
    15    33     7    2
    16     4    40    1
    17    40    28    1
    18    40    18    1
    19    35     1    2
    20    35    25    1
    21     5    41    1
    22    14    38   ar
    23    28    41    1
    24    25    26    1
    25    17    18    2
    26    17    34    1
    27    41    24    1
    28    38    11   ar
    29    38    49    1
    30    30    34    1
    31    30    46    1
    32    24     2    1
    33    34     8    2
    34    32    49    1
    35    32    48    1
    36    26    48    1
    37    49    46    1
    38    49    47    1
    39    43    46    1
    40    43    48    1
    41    43    15    1
    42    48    31    1
    43    16    47    1
    44    47    37    1
    45    47    45    1
    46    31    45    1
    47    37    13   ar
    48    37    10   ar
    49    45    36    1
    50    36     9   ar
    51    36    12   ar
