@<TRIPOS>MOLECULE
3vje_ZGA_A_1.pdb
 49 51 0 0 0
SMALL
GASTEIGER

@<TRIPOS>ATOM
      1  CAA       27.5770   -7.8390    8.8300 C.2   301  ZGA301     -0.0056
      2  CAB       16.6680  -15.5630   11.0370 C.3   301  ZGA301      0.0000
      3  CAC       29.8080  -10.2480    6.1330 C.3   301  ZGA301      0.1212
      4  CAD       15.6450  -12.0390    6.9840 C.3   301  ZGA301      0.0047
      5  CAE       17.1450  -14.8620    8.5410 C.3   301  ZGA301      0.0000
      6  CAF       27.3190  -10.7810   10.7770 C.3   301  ZGA301      0.0044
      7  OAG       27.5750   -9.3910    6.0060 O.2   301  ZGA301     -0.2501
      8  OAH       18.4790   -7.9190    8.0930 O.2   301  ZGA301     -0.2449
      9  OAI       21.6910   -2.9470   11.0110 O.co2 301  ZGA301     -0.2428
     10  OAJ       19.2220   -5.4980   10.3800 O.co2 301  ZGA301     -0.2427
     11  OAK       21.7580   -9.1910   12.1950 O.co2 301  ZGA301     -0.2428
     12  OAL       23.7760   -3.6080   10.8370 O.co2 301  ZGA301     -0.2428
     13  OAM       19.6550   -5.3670   12.5230 O.co2 301  ZGA301     -0.2427
     14  OAN       19.7190   -8.4430   11.9140 O.co2 301  ZGA301     -0.2428
     15  OAO       21.9070   -6.5970    7.2000 O.3   301  ZGA301     -0.2139
     16  OAP       22.1130   -5.8900   12.3430 O.3   301  ZGA301     -0.2077
     17  CAQ       18.1600  -10.1700    8.7260 C.2   301  ZGA301      0.0773
     18  CAR       16.9540  -10.2800    8.1680 C.2   301  ZGA301     -0.0198
     19  CAS       25.1300  -15.6750   11.5770 C.ar  301  ZGA301     -0.0000
     20  CAT       26.5090  -15.5000   11.4570 C.ar  301  ZGA301     -0.0003
     21  CAU       24.2690  -14.8340   10.8740 C.ar  301  ZGA301     -0.0003
     22  CAV       27.0160  -14.4990   10.6320 C.ar  301  ZGA301     -0.0043
     23  CAW       24.7800  -13.8350   10.0360 C.ar  301  ZGA301     -0.0043
     24  CAX       15.8810  -14.3260   10.6670 C.3   301  ZGA301      0.0000
     25  CAY       25.2950   -8.3780    9.5010 C.3   301  ZGA301      0.0306
     26  CAZ       24.4780   -7.5980    8.5030 C.3   301  ZGA301      0.0635
     27  CBA       26.7360  -12.5750    9.0230 C.3   301  ZGA301      0.0303
     28  CBB       16.8250  -12.5110    9.2310 C.3   301  ZGA301      0.0043
     29  OBC       28.1290  -10.4330    7.9900 O.3   301  ZGA301     -0.4480
     30  OBD       20.3340   -8.9490    9.0490 O.3   301  ZGA301     -0.4432
     31  OBE       23.2750   -5.7020    9.4710 O.3   301  ZGA301     -0.3201
     32  OBF       22.8620   -7.7210   10.4030 O.3   301  ZGA301     -0.3196
     33  CBG       28.4370   -9.9690    6.6510 C.2   301  ZGA301      0.3177
     34  CBH       18.9580   -8.9410    8.5710 C.2   301  ZGA301      0.3411
     35  CBI       26.6140   -8.7610    8.8630 C.2   301  ZGA301     -0.0048
     36  CBJ       22.5500   -3.7900   10.6690 C.2   301  ZGA301      0.3946
     37  CBK       20.0080   -5.5910   11.3460 C.2   301  ZGA301      0.3976
     38  CBL       20.9380   -8.4360   11.6380 C.2   301  ZGA301      0.3953
     39  CBM       26.1580  -13.6520    9.9290 C.ar  301  ZGA301     -0.0221
     40  CBN       16.0860  -11.5090    8.3470 C.3   301  ZGA301      0.0222
     41  CBO       16.1990  -13.8970    9.2400 C.3   301  ZGA301      0.0003
     42  CBP       26.5110  -11.1460    9.5250 C.3   301  ZGA301      0.0485
     43  CBQ       22.0640   -7.5270    8.2750 C.3   301  ZGA301      0.2455
     44  CBR       26.7840  -10.1740    8.3770 C.3   301  ZGA301      0.1874
     45  CBS       22.1130   -5.0910   10.0540 C.3   301  ZGA301      0.2614
     46  CBT       20.8840   -7.6450    9.2240 C.3   301  ZGA301      0.2423
     47  CBU       21.4340   -6.0070   11.0890 C.3   301  ZGA301      0.2895
     48  CBV       23.2090   -7.0990    9.1760 C.3   301  ZGA301      0.2205
     49  CBW       21.4820   -7.4640   10.6210 C.3   301  ZGA301      0.2651
@<TRIPOS>BOND
     1     7    33    2
     2     3    33    1
     3    33    29    1
     4     4    40    1
     5    15    43    1
     6    29    44    1
     7     8    34    2
     8    18    40    1
     9    18    17    2
    10    43    48    1
    11    43    46    1
    12    40    28    1
    13    44    35    1
    14    44    42    1
    15    26    48    1
    16    26    25    1
    17     5    41    1
    18    34    17    1
    19    34    30    1
    20     1    35    2
    21    35    25    1
    22    27    42    1
    23    27    39    1
    24    30    46    1
    25    48    31    1
    26    48    32    1
    27    46    49    1
    28    28    41    1
    29    41    24    1
    30    31    45    1
    31    42     6    1
    32    39    23   ar
    33    39    22   ar
    34    23    21   ar
    35    45    36    1
    36    45    47    1
    37    10    37   ar
    38    32    49    1
    39    49    47    1
    40    49    38    1
    41    22    20   ar
    42    24     2    1
    43    36    12   ar
    44    36     9   ar
    45    21    19   ar
    46    47    37    1
    47    47    16    1
    48    37    13   ar
    49    20    19   ar
    50    38    14   ar
    51    38    11   ar
