@<TRIPOS>MOLECULE
3vjh_J35_A_1.pdb
 30 31 0 0 0
SMALL
GASTEIGER

@<TRIPOS>ATOM
      1  O2       -20.0550   18.6350  -20.4620 O.co2 501  J35501     -0.2457
      2  C19      -18.9600   18.8270  -19.8830 C.2   501  J35501      0.3646
      3  O3       -17.9240   19.0090  -20.5650 O.co2 501  J35501     -0.2457
      4  C20      -18.8780   18.8650  -18.3600 C.3   501  J35501      0.1077
      5  C21      -20.0640   19.6070  -17.7390 C.3   501  J35501      0.0116
      6  C18      -19.9260   21.1160  -17.8480 C.3   501  J35501      0.0006
      7  C22      -21.2670   21.7380  -18.1480 C.3   501  J35501      0.0000
      8  C17      -18.8240   17.4700  -17.7080 C.3   501  J35501      0.0376
      9  C15      -17.9440   17.4850  -16.4650 C.ar  501  J35501     -0.0217
     10  C14      -16.5870   17.6870  -16.6580 C.ar  501  J35501     -0.0012
     11  C13      -15.7070   17.7160  -15.5850 C.ar  501  J35501      0.0363
     12  C11      -16.1710   17.5330  -14.2890 C.ar  501  J35501      0.1363
     13  O4       -15.2700   17.5620  -13.2450 O.3   501  J35501     -0.4717
     14  C8       -14.0300   16.8460  -13.3080 C.3   501  J35501      0.2525
     15  C12      -18.4240   17.3010  -15.1590 C.ar  501  J35501     -0.0038
     16  C10      -17.5320   17.3260  -14.0690 C.ar  501  J35501      0.0331
     17  C9       -18.0160   17.1370  -12.6420 C.3   501  J35501      0.1448
     18  N1       -17.6430   18.3070  -11.8480 N.am  501  J35501     -0.1967
     19  C4       -16.7960   18.4600  -10.8220 C.2   501  J35501      0.2651
     20  O1       -16.1470   17.5400  -10.3530 O.2   501  J35501     -0.2684
     21  C1       -16.6290   19.8370  -10.2420 C.ar  501  J35501      0.0550
     22  C3       -15.4240   20.5150  -10.4260 C.ar  501  J35501      0.0045
     23  C5       -15.2490   21.7950   -9.9070 C.ar  501  J35501      0.0040
     24  C2       -17.6630   20.4490   -9.5380 C.ar  501  J35501      0.0045
     25  C7       -17.4890   21.7320   -9.0200 C.ar  501  J35501      0.0040
     26  C6       -16.2810   22.4110   -9.2010 C.ar  501  J35501      0.0714
     27  C16      -16.0710   23.7960   -8.6480 C.3   501  J35501      0.4186
     28  F1       -14.9050   23.8370   -8.0250 F     501  J35501     -0.1659
     29  F3       -17.0430   24.1340   -7.8100 F     501  J35501     -0.1659
     30  F2       -16.0470   24.6610   -9.6450 F     501  J35501     -0.1659
@<TRIPOS>BOND
     1     3     2   ar
     2     1     2   ar
     3     2     4    1
     4     4     5    1
     5     4     8    1
     6     7     6    1
     7     6     5    1
     8     8     9    1
     9    10     9   ar
    10    10    11   ar
    11     9    15   ar
    12    11    12   ar
    13    15    16   ar
    14    12    16   ar
    15    12    13    1
    16    16    17    1
    17    14    13    1
    18    17    18    1
    19    18    19   am
    20    19    20    2
    21    19    21    1
    22    22    21   ar
    23    22    23   ar
    24    21    24   ar
    25    23    26   ar
    26    30    27    1
    27    24    25   ar
    28    26    25   ar
    29    26    27    1
    30    27    28    1
    31    27    29    1
