@<TRIPOS>MOLECULE
3vji_J53_A_1.pdb
 38 42 0 0 0
SMALL
GASTEIGER

@<TRIPOS>ATOM
      1  O4       -18.6220   19.0420  -19.7670 O.co2 501  J53501     -0.2457
      2  C31      -18.9290   18.4690  -18.6910 C.2   501  J53501      0.3646
      3  O3       -19.1630   17.2420  -18.6730 O.co2 501  J53501     -0.2457
      4  C29      -19.0260   19.2420  -17.3820 C.3   501  J53501      0.1077
      5  C30      -20.1930   20.2410  -17.4790 C.3   501  J53501      0.0116
      6  C32      -19.9630   21.3340  -18.5050 C.3   501  J53501      0.0006
      7  C26      -19.1850   18.3280  -16.1220 C.3   501  J53501      0.0376
      8  C25      -17.8870   18.1320  -15.3380 C.ar  501  J53501     -0.0217
      9  C24      -16.7060   17.9510  -16.0430 C.ar  501  J53501     -0.0012
     10  C23      -15.4930   17.7790  -15.3950 C.ar  501  J53501      0.0363
     11  C21      -15.4050   17.7730  -14.0060 C.ar  501  J53501      0.1362
     12  O1       -14.1550   17.5840  -13.4140 O.3   501  J53501     -0.4757
     13  C34      -13.0410   16.9990  -14.1280 C.3   501  J53501      0.2054
     14  C33      -11.8830   16.5430  -13.2310 C.3   501  J53501      0.0473
     15  C28      -10.8130   15.7850  -14.0340 C.3   501  J53501      0.0038
     16  C27       -9.8260   15.0300  -13.1560 C.3   501  J53501      0.0001
     17  C22      -17.8210   18.1280  -13.9380 C.ar  501  J53501     -0.0038
     18  C20      -16.5880   17.9660  -13.2710 C.ar  501  J53501      0.0331
     19  C19      -16.5430   17.9610  -11.7480 C.3   501  J53501      0.1448
     20  N        -16.6310   19.2810  -11.1210 N.am  501  J53501     -0.1967
     21  C3       -15.5980   19.9370  -10.5340 C.2   501  J53501      0.2651
     22  O2       -14.4730   19.4590  -10.4840 O.2   501  J53501     -0.2684
     23  C1       -15.8170   21.2850   -9.8660 C.ar  501  J53501      0.0550
     24  C4       -17.0290   21.4880   -9.2180 C.ar  501  J53501      0.0042
     25  C8       -17.3170   22.6770   -8.5660 C.ar  501  J53501     -0.0041
     26  C6       -16.3970   23.7250   -8.5100 C.ar  501  J53501     -0.0228
     27  C5       -15.1580   23.5270   -9.1510 C.ar  501  J53501     -0.0041
     28  C2       -14.8680   22.3190   -9.8140 C.ar  501  J53501      0.0042
     29  C7       -16.7800   25.0040   -7.7680 C.3   501  J53501      0.0189
     30  C41      -15.6110   25.5310   -6.9260 C.3   501  J53501      0.0040
     31  C37      -15.9950   26.8130   -6.1640 C.3   501  J53501      0.0003
     32  C40      -16.4180   27.9010   -7.1490 C.3   501  J53501      0.0000
     33  C39      -17.1580   26.5330   -5.2190 C.3   501  J53501      0.0000
     34  C38      -18.3460   26.0300   -6.0300 C.3   501  J53501      0.0003
     35  C9       -17.9610   24.7660   -6.8050 C.3   501  J53501      0.0040
     36  C42      -18.7600   27.1090   -7.0290 C.3   501  J53501      0.0000
     37  C12      -17.5950   27.3930   -7.9810 C.3   501  J53501      0.0003
     38  C11      -17.1910   26.1170   -8.7380 C.3   501  J53501      0.0040
@<TRIPOS>BOND
     1     1     2   ar
     2     2     3   ar
     3     2     4    1
     4     6     5    1
     5     5     4    1
     6     4     7    1
     7     7     8    1
     8     9    10   ar
     9     9     8   ar
    10    10    11   ar
    11     8    17   ar
    12    13    12    1
    13    13    14    1
    14    15    14    1
    15    15    16    1
    16    11    12    1
    17    11    18   ar
    18    17    18   ar
    19    18    19    1
    20    19    20    1
    21    20    21   am
    22    21    22    2
    23    21    23    1
    24    23    28   ar
    25    23    24   ar
    26    28    27   ar
    27    24    25   ar
    28    27    26   ar
    29    38    37    1
    30    38    29    1
    31    25    26   ar
    32    26    29    1
    33    37    32    1
    34    37    36    1
    35    29    30    1
    36    29    35    1
    37    32    31    1
    38    36    34    1
    39    30    31    1
    40    35    34    1
    41    31    33    1
    42    34    33    1
