@<TRIPOS>MOLECULE
3vjk_NAG_A_1.pdb
 14 14 0 0 0
SMALL
GASTEIGER

@<TRIPOS>ATOM
      1  C1        44.0820   30.4320   17.5120 C.3   1092  NAG1092     0.1665
      2  C2        44.4840   30.2290   18.9820 C.3   1092  NAG1092     0.1576
      3  C3        44.3130   28.7610   19.3700 C.3   1092  NAG1092     0.2069
      4  C4        42.8790   28.2880   19.0710 C.3   1092  NAG1092     0.2134
      5  C5        42.0130   29.1940   18.1580 C.3   1092  NAG1092     0.1809
      6  C6        40.9010   29.8370   18.9980 C.3   1092  NAG1092     0.2141
      7  C7        47.0010   30.7960   18.9270 C.2   1092  NAG1092     0.2420
      8  C8        47.3520   29.9800   17.7060 C.3   1092  NAG1092     0.0964
      9  N2        45.7500   30.8450   19.4100 N.am  1092  NAG1092    -0.2019
     10  O3        44.5670   28.5920   20.7520 O.3   1092  NAG1092    -0.2184
     11  O4        42.8970   26.9710   18.5580 O.3   1092  NAG1092    -0.2176
     12  O5        42.6740   30.2200   17.3900 O.3   1092  NAG1092    -0.3489
     13  O6        39.6290   29.4010   18.5750 O.3   1092  NAG1092    -0.2176
     14  O7        47.8900   31.4370   19.4920 O.2   1092  NAG1092    -0.2733
@<TRIPOS>BOND
     1    12     1    1
     2    12     5    1
     3     1     2    1
     4     8     7    1
     5     5     6    1
     6     5     4    1
     7    11     4    1
     8    13     6    1
     9     7     9   am
    10     7    14    2
    11     2     3    1
    12     2     9    1
    13     4     3    1
    14     3    10    1
