@<TRIPOS>MOLECULE
3vjk_M51_A_1.pdb
 30 34 0 0 0
SMALL
GASTEIGER

@<TRIPOS>ATOM
      1  C1        47.4140   63.4950   34.8590 C.ar  1000  M511000     0.0508
      2  C2        46.1380   63.7000   34.2900 C.ar  1000  M511000     0.0822
      3  N3        46.1830   64.4610   33.1790 N.ar  1000  M511000    -0.1683
      4  N4        47.5520   64.7540   33.0230 N.ar  1000  M511000    -0.2164
      5  C5        48.2860   64.2030   34.0170 C.ar  1000  M511000     0.1344
      6  C6        47.8890   65.5280   31.9840 C.ar  1000  M511000     0.0842
      7  C7        48.8040   66.5880   32.0340 C.ar  1000  M511000     0.0192
      8  C8        49.0980   67.3800   30.9250 C.ar  1000  M511000     0.0015
      9  C9        48.4430   67.1560   29.7190 C.ar  1000  M511000     0.0001
     10  C10       47.5030   66.1340   29.6340 C.ar  1000  M511000     0.0015
     11  C11       47.2430   65.3510   30.7540 C.ar  1000  M511000     0.0192
     12  C12       44.9470   63.0710   34.9650 C.3   1000  M511000     0.0540
     13  N13       49.6700   64.2700   34.2150 N.pl3 1000  M511000    -0.2903
     14  C14       50.5650   63.9250   33.0970 C.3   1000  M511000     0.1095
     15  C15       51.8790   64.6990   33.2740 C.3   1000  M511000     0.0939
     16  N16       52.4160   64.4870   34.6320 N.3   1000  M511000    -0.2696
     17  C17       51.5260   64.8350   35.7530 C.3   1000  M511000     0.0939
     18  C18       50.2000   64.0680   35.5820 C.3   1000  M511000     0.1095
     19  C19       53.7330   65.1320   34.7730 C.3   1000  M511000     0.0769
     20  C20       54.6760   64.8000   33.6180 C.3   1000  M511000     0.1051
     21  N21       55.9850   64.9930   34.2190 N.3   1000  M511000    -0.2088
     22  C22       55.9440   65.1260   35.6740 C.3   1000  M511000     0.1503
     23  C23       54.5320   64.6540   35.9950 C.3   1000  M511000     0.0441
     24  C24       57.0390   64.3510   36.3760 C.2   1000  M511000     0.2421
     25  N25       57.5390   64.8160   37.5160 N.am  1000  M511000    -0.2678
     26  C26       57.0340   66.0430   38.1590 C.3   1000  M511000     0.1059
     27  C27       57.8110   66.3710   39.4410 C.3   1000  M511000     0.0807
     28  S28       58.6030   64.8690   39.8520 S.3   1000  M511000    -0.1168
     29  C29       58.6270   64.1530   38.2310 C.3   1000  M511000     0.1523
     30  O30       57.4740   63.3280   35.8710 O.2   1000  M511000    -0.2733
@<TRIPOS>BOND
     1    10     9   ar
     2    10    11   ar
     3     9     8   ar
     4    11     6   ar
     5     8     7   ar
     6     6     7   ar
     7     6     4    1
     8     4     3   ar
     9     4     5   ar
    10    14    15    1
    11    14    13    1
    12     3     2   ar
    13    15    16    1
    14    20    21    1
    15    20    19    1
    16     5    13    1
    17     5     1   ar
    18    13    18    1
    19    21    22    1
    20     2     1   ar
    21     2    12    1
    22    16    19    1
    23    16    17    1
    24    19    23    1
    25    18    17    1
    26    22    23    1
    27    22    24    1
    28    30    24    2
    29    24    25   am
    30    25    26    1
    31    25    29    1
    32    26    27    1
    33    29    28    1
    34    27    28    1
