@<TRIPOS>MOLECULE
3vjl_W94_A_1.pdb
 33 37 0 0 0
SMALL
GASTEIGER

@<TRIPOS>ATOM
      1  C1        48.1160   62.4730   34.7320 C.ar  1000  W941000     0.0617
      2  C2        48.2800   61.1910   35.2670 C.ar  1000  W941000     0.0396
      3  C3        46.9900   60.6670   35.2180 C.ar  1000  W941000     0.1737
      4  N4        46.0430   61.4730   34.7230 N.ar  1000  W941000    -0.1614
      5  N5        46.8100   62.5920   34.4190 N.ar  1000  W941000    -0.2338
      6  C6        46.1870   63.6490   33.9070 C.ar  1000  W941000     0.0824
      7  C7        44.9720   64.0700   34.4750 C.ar  1000  W941000     0.0191
      8  C8        44.2490   65.1660   34.0060 C.ar  1000  W941000     0.0015
      9  C9        44.7460   65.8740   32.9180 C.ar  1000  W941000     0.0001
     10  C10       45.9500   65.4790   32.3290 C.ar  1000  W941000     0.0015
     11  C11       46.6530   64.3790   32.8130 C.ar  1000  W941000     0.0191
     12  C12       46.6050   59.2910   35.6730 C.3   1000  W941000     0.4365
     13  F13       45.3750   59.3620   36.1890 F     1000  W941000    -0.1643
     14  F14       47.4760   58.8570   36.5820 F     1000  W941000    -0.1643
     15  F15       46.6050   58.4970   34.6050 F     1000  W941000    -0.1643
     16  C16       49.3330   63.3470   34.6410 C.3   1000  W941000     0.0431
     17  C17       50.2120   63.1730   35.8770 C.3   1000  W941000     0.0233
     18  C18       51.4290   64.1020   35.8460 C.3   1000  W941000     0.0725
     19  N19       52.1600   63.8600   34.6010 N.3   1000  W941000    -0.2725
     20  C20       51.4010   64.0330   33.3440 C.3   1000  W941000     0.0725
     21  C21       50.1760   63.1060   33.3840 C.3   1000  W941000     0.0233
     22  C22       53.4300   64.6120   34.6170 C.3   1000  W941000     0.0768
     23  C23       54.3410   64.2110   35.7880 C.3   1000  W941000     0.0441
     24  C24       55.7290   64.6790   35.3460 C.3   1000  W941000     0.1503
     25  N25       55.6550   64.5940   33.8980 N.3   1000  W941000    -0.2088
     26  C26       54.3160   64.3130   33.4090 C.3   1000  W941000     0.1051
     27  C27       56.8600   63.8620   35.9380 C.2   1000  W941000     0.2421
     28  N28       57.4120   64.2940   37.0690 N.am  1000  W941000    -0.2678
     29  C29       56.9320   65.5080   37.7270 C.3   1000  W941000     0.1059
     30  C30       57.5080   65.6500   39.1110 C.3   1000  W941000     0.0807
     31  S31       58.5700   64.2740   39.4110 S.3   1000  W941000    -0.1168
     32  C32       58.5180   63.5970   37.7430 C.3   1000  W941000     0.1523
     33  O33       57.2630   62.8570   35.3700 O.2   1000  W941000    -0.2733
@<TRIPOS>BOND
     1    10    11   ar
     2    10     9   ar
     3    11     6   ar
     4     9     8   ar
     5    20    21    1
     6    20    19    1
     7    21    16    1
     8    26    25    1
     9    26    22    1
    10    25    24    1
    11     6     5    1
    12     6     7   ar
    13     8     7   ar
    14     5     4   ar
    15     5     1   ar
    16    19    22    1
    17    19    18    1
    18    15    12    1
    19    22    23    1
    20    16     1    1
    21    16    17    1
    22     4     3   ar
    23     1     2   ar
    24     3     2   ar
    25     3    12    1
    26    24    23    1
    27    24    27    1
    28    33    27    2
    29    12    13    1
    30    12    14    1
    31    18    17    1
    32    27    28   am
    33    28    29    1
    34    28    32    1
    35    29    30    1
    36    32    31    1
    37    30    31    1
