@<TRIPOS>MOLECULE
3vjl_NAG_A_1.pdb
 14 14 0 0 0
SMALL
GASTEIGER

@<TRIPOS>ATOM
      1  C1        34.2480   67.2850    4.2440 C.3   1219  NAG1219     0.1665
      2  C2        33.5420   66.9520    2.9260 C.3   1219  NAG1219     0.1576
      3  C3        33.9290   67.9550    1.8450 C.3   1219  NAG1219     0.2069
      4  C4        33.8300   69.3820    2.3650 C.3   1219  NAG1219     0.2134
      5  C5        34.6260   69.5040    3.6770 C.3   1219  NAG1219     0.1809
      6  C6        34.6760   70.9130    4.2390 C.3   1219  NAG1219     0.2141
      7  C7        33.1480   64.5690    2.5350 C.2   1219  NAG1219     0.2420
      8  C8        33.7880   63.2870    2.0870 C.3   1219  NAG1219     0.0964
      9  N2        33.9610   65.6230    2.5240 N.am  1219  NAG1219    -0.2019
     10  O3        33.1340   67.7900    0.6900 O.3   1219  NAG1219    -0.2184
     11  O4        34.3650   70.2080    1.3580 O.3   1219  NAG1219    -0.2176
     12  O5        34.0750   68.6260    4.6470 O.3   1219  NAG1219    -0.3489
     13  O6        33.3580   71.3490    4.4680 O.3   1219  NAG1219    -0.2176
     14  O7        31.9560   64.6130    2.8760 O.2   1219  NAG1219    -0.2733
@<TRIPOS>BOND
     1    10     3    1
     2    11     4    1
     3     3     4    1
     4     3     2    1
     5     8     7    1
     6     4     5    1
     7     9     7   am
     8     9     2    1
     9     7    14    2
    10     2     1    1
    11     5     6    1
    12     5    12    1
    13     6    13    1
    14     1    12    1
