@<TRIPOS>MOLECULE
3vjm_W61_A_1.pdb
 32 36 0 0 0
SMALL
GASTEIGER

@<TRIPOS>ATOM
      1  C1        48.1550   63.4190   34.3670 C.2   1000  W611000     0.0526
      2  C2        47.6300   62.4290   35.2160 C.2   1000  W611000     0.0506
      3  C3        46.2870   62.0360   35.1020 C.2   1000  W611000     0.2039
      4  N4        45.4900   62.5800   34.1590 N.2   1000  W611000    -0.3978
      5  C5        45.9480   63.5210   33.3160 C.2   1000  W611000     0.1319
      6  C6        47.2810   63.9660   33.3990 C.2   1000  W611000     0.0390
      7  C7        47.6970   64.9530   32.5090 C.2   1000  W611000    -0.0176
      8  C8        46.8150   65.4780   31.5690 C.3   1000  W611000     0.0522
      9  C9        45.4940   65.0320   31.5000 C.2   1000  W611000    -0.0188
     10  C10       45.0620   64.0450   32.3800 C.2   1000  W611000     0.0278
     11  C11       45.6270   60.9790   35.9450 C.3   1000  W611000     0.4463
     12  N20       49.5550   63.7470   34.4180 N.pl3 1000  W611000    -0.3045
     13  C21       50.2410   63.5100   35.6970 C.3   1000  W611000     0.1081
     14  C22       51.5480   64.2990   35.7340 C.3   1000  W611000     0.0938
     15  N23       52.3370   63.9850   34.5500 N.3   1000  W611000    -0.2696
     16  C24       51.6530   64.2030   33.2660 C.3   1000  W611000     0.0938
     17  C26       53.5990   64.7750   34.5970 C.3   1000  W611000     0.0769
     18  C27       54.4960   64.4920   33.3810 C.3   1000  W611000     0.1051
     19  N28       55.8560   64.6600   33.8750 N.3   1000  W611000    -0.2088
     20  C29       55.9120   64.7510   35.3300 C.3   1000  W611000     0.1503
     21  C30       54.4970   64.3910   35.7830 C.3   1000  W611000     0.0441
     22  C32       50.3380   63.4170   33.2310 C.3   1000  W611000     0.1081
     23  C33       56.9850   63.8790   35.9550 C.2   1000  W611000     0.2421
     24  N46       57.5020   64.2960   37.1190 N.am  1000  W611000    -0.2678
     25  C47       58.5790   63.6160   37.8510 C.3   1000  W611000     0.1523
     26  S48       58.5120   64.3150   39.4790 S.3   1000  W611000    -0.1168
     27  C49       57.7370   65.8090   39.0770 C.3   1000  W611000     0.0807
     28  C50       56.9930   65.5100   37.7710 C.3   1000  W611000     0.1059
     29  F52       45.3120   59.9950   35.1300 F     1000  W611000    -0.1635
     30  F53       46.3840   60.4940   36.9110 F     1000  W611000    -0.1635
     31  F54       44.5030   61.4660   36.4310 F     1000  W611000    -0.1635
     32  O57       57.3640   62.8680   35.3650 O.2   1000  W611000    -0.2733
@<TRIPOS>BOND
     1     9     8    1
     2     9    10    2
     3     8     7    1
     4    10     5    1
     5     7     6    2
     6    22    16    1
     7    22    12    1
     8    16    15    1
     9     5     6    1
    10     5     4    2
    11    18    19    1
    12    18    17    1
    13     6     1    1
    14    19    20    1
    15     4     3    2
    16     1    12    1
    17     1     2    2
    18    12    13    1
    19    15    17    1
    20    15    14    1
    21    17    21    1
    22     3     2    1
    23     3    11    1
    24    29    11    1
    25    20    21    1
    26    20    23    1
    27    32    23    2
    28    13    14    1
    29    11    31    1
    30    11    30    1
    31    23    24   am
    32    24    28    1
    33    24    25    1
    34    28    27    1
    35    25    26    1
    36    27    26    1
