@<TRIPOS>MOLECULE
3vjn_ANP_A_1.pdb
 31 33 0 0 0
SMALL
GASTEIGER

@<TRIPOS>ATOM
      1  PG         6.1140   44.2590   25.3010 P.3   2001  ANP2001     0.4884
      2  O1G        6.8080   45.1060   26.2960 O.3   2001  ANP2001    -0.1240
      3  O2G        4.5940   43.9420   25.7290 O.3   2001  ANP2001    -0.1240
      4  O3G        6.8280   42.8260   25.1270 O.2   2001  ANP2001    -0.2331
      5  PB         5.6310   46.4880   23.9350 P.3   2001  ANP2001     0.4669
      6  O1B        6.6810   47.3220   24.5630 O.3   2001  ANP2001    -0.1253
      7  O2B        5.3080   46.9660   22.4310 O.2   2001  ANP2001    -0.2351
      8  N3B        6.0510   44.9250   23.8220 N.3   2001  ANP2001    -0.0163
      9  PA         3.3180   47.8340   24.6920 P.3   2001  ANP2001     0.2220
     10  O1A        2.2640   47.8070   25.7310 O.3   2001  ANP2001    -0.4370
     11  O2A        4.3340   49.0680   24.8830 O.2   2001  ANP2001    -0.5170
     12  O3A        4.2300   46.5100   24.7250 O.3   2001  ANP2001    -0.2360
     13  O5'        2.7440   47.9390   23.1910 O.3   2001  ANP2001    -0.3111
     14  C5'        2.3270   46.7610   22.4950 C.3   2001  ANP2001     0.1813
     15  C4'        1.8210   47.0870   21.0870 C.3   2001  ANP2001     0.1821
     16  O4'        0.7180   48.0100   21.1930 O.3   2001  ANP2001    -0.3135
     17  C3'        2.9070   47.8350   20.3130 C.3   2001  ANP2001     0.2184
     18  O3'        2.6210   47.7840   18.9150 O.3   2001  ANP2001    -0.2174
     19  C2'        2.6740   49.2480   20.8390 C.3   2001  ANP2001     0.2570
     20  O2'        3.2760   50.1940   19.9530 O.3   2001  ANP2001    -0.2130
     21  C1'        1.1550   49.2820   20.6770 C.3   2001  ANP2001     0.3186
     22  N9         0.5430   50.3970   21.4370 N.pl3 2001  ANP2001    -0.1439
     23  C8         0.7390   50.6490   22.7290 C.3   2001  ANP2001     0.3377
     24  N7         0.0080   51.6990   23.1010 N.2   2001  ANP2001    -0.2095
     25  C5        -0.6610   52.1210   22.0320 C.2   2001  ANP2001     0.2526
     26  C6        -1.5790   53.1410   21.8120 C.2   2001  ANP2001     0.4393
     27  N6        -1.9030   53.9680   22.8030 N.pl3 2001  ANP2001     0.2180
     28  N1        -2.1050   53.2870   20.5880 N.2   2001  ANP2001     0.0021
     29  C2        -1.7550   52.4850   19.6000 C.3   2001  ANP2001     0.5254
     30  N3        -0.8820   51.5090   19.7710 N.2   2001  ANP2001    -0.0055
     31  C4        -0.3200   51.2950   20.9680 C.2   2001  ANP2001     0.3518
@<TRIPOS>BOND
     1    18    17    1
     2    29    30    1
     3    29    28    1
     4    30    31    2
     5    20    19    1
     6    17    19    1
     7    17    15    1
     8    28    26    2
     9    21    19    1
    10    21    16    1
    11    21    22    1
    12    31    22    1
    13    31    25    1
    14    15    16    1
    15    15    14    1
    16    22    23    1
    17    26    25    1
    18    26    27    1
    19    25    24    2
    20     7     5    2
    21    14    13    1
    22    23    24    1
    23    13     9    1
    24     8     5    1
    25     8     1    1
    26     5     6    1
    27     5    12    1
    28     9    12    1
    29     9    11    2
    30     9    10    1
    31     4     1    2
    32     1     3    1
    33     1     2    1
