@<TRIPOS>MOLECULE
3vjo_ANP_A_1.pdb
 31 33 0 0 0
SMALL
GASTEIGER

@<TRIPOS>ATOM
      1  PG        43.9600    6.1770  -25.1430 P.3   2001  ANP2001     0.4884
      2  O1G       45.0360    7.0380  -25.6850 O.3   2001  ANP2001    -0.1240
      3  O2G       43.9040    4.7410  -25.8710 O.2   2001  ANP2001    -0.2331
      4  O3G       42.5030    6.8280  -25.3600 O.3   2001  ANP2001    -0.1240
      5  PB        45.5270    5.2010  -23.2120 P.3   2001  ANP2001     0.4669
      6  O1B       46.6710    6.0340  -23.6460 O.2   2001  ANP2001    -0.2351
      7  O2B       45.5330    4.9520  -21.6210 O.3   2001  ANP2001    -0.1253
      8  N3B       44.0950    5.8860  -23.5520 N.3   2001  ANP2001    -0.0163
      9  PA        46.8510    2.8980  -24.0540 P.3   2001  ANP2001     0.2220
     10  O1A       46.7710    1.9120  -25.1550 O.2   2001  ANP2001    -0.5170
     11  O2A       48.0280    3.9730  -24.2790 O.3   2001  ANP2001    -0.4370
     12  O3A       45.4930    3.7460  -23.8990 O.3   2001  ANP2001    -0.2360
     13  O5'       47.1050    2.2370  -22.6090 O.3   2001  ANP2001    -0.3111
     14  C5'       45.9900    1.9300  -21.7690 C.3   2001  ANP2001     0.1813
     15  C4'       46.4520    1.5330  -20.3660 C.3   2001  ANP2001     0.1821
     16  O4'       47.3920    0.4490  -20.4930 O.3   2001  ANP2001    -0.3135
     17  C3'       47.2420    2.6950  -19.7580 C.3   2001  ANP2001     0.2184
     18  O3'       47.3320    2.5260  -18.3410 O.3   2001  ANP2001    -0.2174
     19  C2'       48.6080    2.4520  -20.3940 C.3   2001  ANP2001     0.2570
     20  O2'       49.6110    3.1390  -19.6400 O.3   2001  ANP2001    -0.2130
     21  C1'       48.6910    0.9490  -20.1260 C.3   2001  ANP2001     0.3186
     22  N9        49.7580    0.2970  -20.9230 N.pl3 2001  ANP2001    -0.1439
     23  C8        49.9230    0.4150  -22.2390 C.3   2001  ANP2001     0.3377
     24  N7        50.9630   -0.3240  -22.6260 N.2   2001  ANP2001    -0.2095
     25  C5        51.4640   -0.9150  -21.5490 C.2   2001  ANP2001     0.2526
     26  C6        52.5290   -1.7850  -21.3340 C.2   2001  ANP2001     0.4393
     27  N6        53.2920   -2.1740  -22.3500 N.pl3 2001  ANP2001     0.2180
     28  N1        52.7760   -2.2100  -20.0830 N.2   2001  ANP2001     0.0021
     29  C2        52.0260   -1.8130  -19.0740 C.3   2001  ANP2001     0.5254
     30  N3        51.0040   -0.9850  -19.2400 N.2   2001  ANP2001    -0.0055
     31  C4        50.6980   -0.5200  -20.4590 C.2   2001  ANP2001     0.3518
@<TRIPOS>BOND
     1     3     1    2
     2     2     1    1
     3     4     1    1
     4    10     9    2
     5     1     8    1
     6    11     9    1
     7     9    12    1
     8     9    13    1
     9    12     5    1
    10     6     5    2
    11     8     5    1
    12     5     7    1
    13    24    23    1
    14    24    25    2
    15    13    14    1
    16    27    26    1
    17    23    22    1
    18    14    15    1
    19    25    26    1
    20    25    31    1
    21    26    28    2
    22    22    31    1
    23    22    21    1
    24    16    15    1
    25    16    21    1
    26    31    30    2
    27    19    21    1
    28    19    17    1
    29    19    20    1
    30    15    17    1
    31    28    29    1
    32    17    18    1
    33    30    29    1
