@<TRIPOS>MOLECULE
3vjs_10S_A_1.pdb
 31 40 0 0 0
SMALL
GASTEIGER

@<TRIPOS>ATOM
      1  B1        13.1790    5.5700   25.6200 B     501  10S501      0.0000
      2  C1        13.4800    2.7370   25.9090 C.3   501  10S501      0.0000
      3  O1         9.8570   -2.1580   28.5640 O.3   501  10S501      0.0000
      4  B2        13.4980    4.8400   24.0760 B     501  10S501      0.0000
      5  C2        12.8540    1.3600   26.2400 C.3   501  10S501      0.0000
      6  O2        15.3460    7.3480   22.1140 O.3   501  10S501      0.0000
      7  B3        15.1040    4.1660   24.0250 B     501  10S501      0.0000
      8  C3        11.4960    1.5020   26.9320 C.3   501  10S501      0.0000
      9  O3        16.7180    8.2440   19.7390 O.3   501  10S501      0.0000
     10  B4        15.8080    4.4180   25.6240 B     501  10S501      0.0000
     11  C4        11.0470    0.1100   27.3970 C.3   501  10S501      0.0000
     12  O4        14.5200    4.2630   18.5510 O.3   501  10S501      0.0000
     13  B5        14.6130    5.2920   26.6150 B     501  10S501      0.0000
     14  C5         9.5910    0.1540   27.8720 C.3   501  10S501      0.0000
     15  B6        12.4680    4.0080   25.1760 B     501  10S501      0.0000
     16  C6         8.6460   -1.8090   26.5570 C.3   501  10S501      0.0000
     17  B7        13.6680    3.1310   24.1890 B     501  10S501      0.0000
     18  C7         7.7100   -1.1240   28.8740 C.3   501  10S501      0.0000
     19  B8        15.1170    2.8380   25.1830 B     501  10S501      0.0000
     20  C8         7.0990   -2.4940   29.2070 C.3   501  10S501      0.0000
     21  B9        14.8110    3.5440   26.8000 B     501  10S501      0.0000
     22  C9         8.9600   -1.2470   27.9620 C.3   501  10S501      0.0000
     23  B10       13.1720    4.2690   26.7970 B     501  10S501      0.0000
     24  C10        7.6400   -0.9520   25.7810 C.3   501  10S501      0.0000
     25  C21       14.7770    5.6090   24.9290 C.3   501  10S501      0.0000
     26  C22       15.2610    6.9970   24.4470 C.3   501  10S501      0.0000
     27  C23       14.4770    7.4290   23.2170 C.3   501  10S501      0.0000
     28  C24       14.7090    7.9980   21.0500 C.3   501  10S501      0.0000
     29  C25       15.4310    7.6740   19.7520 C.3   501  10S501      0.0000
     30  C26       15.5670    6.1670   19.5520 C.3   501  10S501      0.0000
     31  C27       14.3460    5.6330   18.8330 C.3   501  10S501      0.0000
@<TRIPOS>BOND
     1    12    31    1
     2    31    30    1
     3    30    29    1
     4     9    29    1
     5    29    28    1
     6    28     6    1
     7     6    27    1
     8    27    26    1
     9     7    17    1
    10     7    19    1
    11     7    10    1
    12     4    17    1
    13     4    25    1
    14     4    15    1
    15     4     1    1
    16    17    19    1
    17    17     2    1
    18    26    25    1
    19    25    10    1
    20    25    13    1
    21    15     2    1
    22    15    23    1
    23    19    10    1
    24    19    21    1
    25     1    13    1
    26     1    23    1
    27    10    21    1
    28    24    16    1
    29     2     5    1
    30     5     8    1
    31    16    22    1
    32    13    23    1
    33    13    21    1
    34    23    21    1
    35     8    11    1
    36    11    14    1
    37    14    22    1
    38    22     3    1
    39    22    18    1
    40    18    20    1
