@<TRIPOS>MOLECULE
3vjt_10R_A_1.pdb
 31 40 0 0 0
SMALL
GASTEIGER

@<TRIPOS>ATOM
      1  B1        13.1110    5.6940   26.0500 B     501  10R501      0.0000
      2  C1        13.3660    2.8430   26.1370 C.3   501  10R501      0.0000
      3  O1         9.5950   -2.0360   28.6960 O.3   501  10R501      0.0000
      4  B2        13.2690    5.0560   24.4420 B     501  10R501      0.0000
      5  C2        12.7360    1.4570   26.4460 C.3   501  10R501      0.0000
      6  O2        15.1450    7.2260   22.4450 O.3   501  10R501      0.0000
      7  B3        14.8470    4.3570   24.2020 B     501  10R501      0.0000
      8  C3        11.3050    1.5860   26.9860 C.3   501  10R501      0.0000
      9  O3        16.1200    8.5580   19.4380 O.3   501  10R501      0.0000
     10  B4        15.6990    4.4960   25.7410 B     501  10R501      0.0000
     11  C4        10.8500    0.2190   27.5300 C.3   501  10R501      0.0000
     12  O4        14.4130    4.5810   18.3270 O.3   501  10R501      0.0000
     13  B5        14.6200    5.3280   26.8900 B     501  10R501      0.0000
     14  C5         9.3990    0.2940   28.0310 C.3   501  10R501      0.0000
     15  B6        12.3240    4.1760   25.5780 B     501  10R501      0.0000
     16  C6         8.3690   -1.6300   26.6930 C.3   501  10R501      0.0000
     17  B7        13.4070    3.3410   24.4340 B     501  10R501      0.0000
     18  C7         7.4770   -0.9460   29.0140 C.3   501  10R501      0.0000
     19  B8        14.9330    2.9590   25.2710 B     501  10R501      0.0000
     20  C8         6.8660   -2.3080   29.3810 C.3   501  10R501      0.0000
     21  B9        14.7910    3.5680   26.9490 B     501  10R501      0.0000
     22  C9         8.7180   -1.0890   28.1020 C.3   501  10R501      0.0000
     23  B10       13.1780    4.3220   27.1400 B     501  10R501      0.0000
     24  C10        7.4560   -0.6910   25.8880 C.3   501  10R501      0.0000
     25  C21       14.6390    5.7460   25.2190 C.3   501  10R501      0.0000
     26  C22       15.0990    7.1440   24.7830 C.3   501  10R501      0.0000
     27  C23       14.3400    7.5730   23.5360 C.3   501  10R501      0.0000
     28  C24       14.7900    8.0510   21.3770 C.3   501  10R501      0.0000
     29  C25       15.5100    7.5140   20.1670 C.3   501  10R501      0.0000
     30  C26       14.5420    6.7850   19.2660 C.3   501  10R501      0.0000
     31  C27       14.6640    5.2940   19.5170 C.3   501  10R501      0.0000
@<TRIPOS>BOND
     1    12    31    1
     2    30    31    1
     3    30    29    1
     4     9    29    1
     5    29    28    1
     6    28     6    1
     7     6    27    1
     8    27    26    1
     9     7    17    1
    10     7    19    1
    11     7    10    1
    12    17     4    1
    13    17    19    1
    14    17     2    1
    15     4    25    1
    16     4    15    1
    17     4     1    1
    18    26    25    1
    19    25    10    1
    20    25    13    1
    21    19    10    1
    22    19    21    1
    23    15     2    1
    24    15    23    1
    25    10    21    1
    26    24    16    1
    27     1    13    1
    28     1    23    1
    29     2     5    1
    30     5     8    1
    31    16    22    1
    32    13    21    1
    33    13    23    1
    34    21    23    1
    35     8    11    1
    36    11    14    1
    37    14    22    1
    38    22     3    1
    39    22    18    1
    40    18    20    1
