@<TRIPOS>MOLECULE
3vk5_FPQ_A_1.pdb
 26 25 0 0 0
SMALL
GASTEIGER

@<TRIPOS>ATOM
      1  P         13.9760   35.9170    7.7680 P.3   900  FPQ900      0.5327
      2  C1        15.8000   38.7750   12.3370 C.3   900  FPQ900      0.1684
      3  C2        15.3810   38.1130   13.6250 C.2   900  FPQ900     -0.0028
      4  C3        14.7800   38.7720   14.6510 C.2   900  FPQ900     -0.0454
      5  C4        14.4470   37.8700   15.7660 C.3   900  FPQ900      0.0261
      6  C5        14.4260   40.2310   14.7370 C.3   900  FPQ900      0.0264
      7  C6        15.5330   41.0490   15.4840 C.3   900  FPQ900      0.0297
      8  C7        15.3750   40.9780   17.0110 C.2   900  FPQ900     -0.0342
      9  C8        16.3010   40.4240   17.8570 C.2   900  FPQ900     -0.0478
     10  C9        17.5870   39.8150   17.4420 C.3   900  FPQ900      0.0260
     11  CX        13.1040   37.1380   10.0060 C.3   900  FPQ900      0.1949
     12  OX        13.9880   36.1920    9.4230 O.3   900  FPQ900     -0.2670
     13  CY        13.7300   37.5240   11.3580 C.3   900  FPQ900      0.2486
     14  OY        14.9230   38.1840   11.1800 O.3   900  FPQ900     -0.3383
     15  CZ        12.6880   38.2730   12.1480 C.2   900  FPQ900      0.3940
     16  C10       15.9870   40.4500   19.3350 C.3   900  FPQ900      0.0263
     17  C11       16.0520   39.0930   20.0310 C.3   900  FPQ900      0.0297
     18  C12       14.9680   38.1540   19.5840 C.2   900  FPQ900     -0.0342
     19  C13       15.1210   36.8920   19.0730 C.2   900  FPQ900     -0.0478
     20  C14       16.4820   36.2610   18.8640 C.3   900  FPQ900      0.0260
     21  C15       13.9030   36.1340   18.6750 C.3   900  FPQ900      0.0260
     22  O1P       12.5580   35.8540    7.2830 O.3   900  FPQ900     -0.1145
     23  O1Z       11.8980   37.5500   12.8430 O.co2 900  FPQ900     -0.2429
     24  O2P       14.7750   37.0420    7.1290 O.2   900  FPQ900     -0.2224
     25  O2Z       12.6700   39.5450   12.1260 O.co2 900  FPQ900     -0.2429
     26  O3P       14.6550   34.5510    7.6710 O.3   900  FPQ900     -0.1145
@<TRIPOS>BOND
     1    24     1    2
     2    22     1    1
     3    26     1    1
     4     1    12    1
     5    12    11    1
     6    11    13    1
     7    14    13    1
     8    14     2    1
     9    13    15    1
    10    25    15   ar
    11    15    23   ar
    12     2     3    1
    13     3     4    2
    14     4     6    1
    15     4     5    1
    16     6     7    1
    17     7     8    1
    18     8     9    2
    19    10     9    1
    20     9    16    1
    21    21    19    1
    22    20    19    1
    23    19    18    2
    24    16    17    1
    25    18    17    1
