@<TRIPOS>MOLECULE
3vka_FPQ_A_1.pdb
 26 25 0 0 0
SMALL
GASTEIGER

@<TRIPOS>ATOM
      1  P          5.7700   26.1720    6.9630 P.3   900  FPQ900      0.5327
      2  C1         7.5430   21.4270    4.0730 C.3   900  FPQ900      0.1684
      3  C2         6.3860   20.4460    3.8670 C.2   900  FPQ900     -0.0028
      4  C3         6.4630   19.1300    4.1080 C.2   900  FPQ900     -0.0454
      5  C4         5.2150   18.4350    3.8610 C.3   900  FPQ900      0.0261
      6  C5         7.7110   18.3500    4.6230 C.3   900  FPQ900      0.0264
      7  C6         8.4410   17.7390    3.3970 C.3   900  FPQ900      0.0297
      8  C7         7.8320   16.4090    2.9700 C.2   900  FPQ900     -0.0342
      9  C8         7.3360   16.1620    1.7210 C.2   900  FPQ900     -0.0478
     10  C9         7.3200   17.1490    0.5940 C.3   900  FPQ900      0.0260
     11  CX         5.7190   23.4110    6.9500 C.3   900  FPQ900      0.1949
     12  OX         5.6800   24.5220    6.2540 O.3   900  FPQ900     -0.2670
     13  CY         6.1240   22.2820    6.0400 C.3   900  FPQ900      0.2486
     14  OY         7.2360   22.4630    5.1680 O.3   900  FPQ900     -0.3383
     15  CZ         6.2050   21.0250    6.8810 C.2   900  FPQ900      0.3940
     16  C10        6.7590   14.7560    1.4480 C.3   900  FPQ900      0.0263
     17  C11        5.3140   14.7210    0.9530 C.3   900  FPQ900      0.0297
     18  C12        4.3350   15.1750    1.9550 C.2   900  FPQ900     -0.0342
     19  C13        3.4730   16.1530    1.8040 C.2   900  FPQ900     -0.0478
     20  C14        3.3540   17.0080    0.5390 C.3   900  FPQ900      0.0260
     21  C15        2.5740   16.4320    2.9730 C.3   900  FPQ900      0.0260
     22  O1P        5.4250   26.2030    8.4370 O.3   900  FPQ900     -0.1145
     23  O1Z        5.0940   20.5480    7.2820 O.co2 900  FPQ900     -0.2429
     24  O2P        7.1100   26.8100    6.6580 O.3   900  FPQ900     -0.1145
     25  O2Z        7.3060   20.4870    7.0810 O.co2 900  FPQ900     -0.2429
     26  O3P        4.7580   26.9220    6.0790 O.2   900  FPQ900     -0.2224
@<TRIPOS>BOND
     1    20    19    1
     2    10     9    1
     3    17    16    1
     4    17    18    1
     5    16     9    1
     6     9     8    2
     7    19    18    2
     8    19    21    1
     9     8     7    1
    10     7     6    1
    11     5     4    1
    12     3     2    1
    13     3     4    2
    14     2    14    1
    15     4     6    1
    16    14    13    1
    17    13    15    1
    18    13    11    1
    19    26     1    2
    20    12    11    1
    21    12     1    1
    22    24     1    1
    23    15    25   ar
    24    15    23   ar
    25     1    22    1
