@<TRIPOS>MOLECULE
3vkb_FPS_A_1.pdb
 24 23 0 0 0
SMALL
GASTEIGER

@<TRIPOS>ATOM
      1  C1        -7.1850    1.5800  -22.1610 C.3   900  FPS900      0.0942
      2  S1        -6.9650    0.1490  -23.3240 S.3   900  FPS900     -0.0237
      3  C2        -7.7790    1.2350  -20.8550 C.2   900  FPS900     -0.0224
      4  C3        -7.1440    1.2170  -19.6630 C.2   900  FPS900     -0.0470
      5  C4        -5.6720    1.5450  -19.4130 C.3   900  FPS900      0.0261
      6  C5        -8.0180    0.8350  -18.5320 C.3   900  FPS900      0.0264
      7  C6        -8.5350    2.0670  -17.8460 C.3   900  FPS900      0.0297
      8  C7        -7.8500    2.0650  -16.4870 C.2   900  FPS900     -0.0342
      9  C8        -7.2730    3.1020  -15.9160 C.2   900  FPS900     -0.0478
     10  C10       -6.6580    2.8720  -14.5550 C.3   900  FPS900      0.0263
     11  C9        -7.2160    4.4870  -16.5700 C.3   900  FPS900      0.0260
     12  C11       -5.1710    3.2810  -14.4110 C.3   900  FPS900      0.0297
     13  C12       -4.2570    2.4390  -15.2250 C.2   900  FPS900     -0.0342
     14  C13       -3.4420    2.8780  -16.1520 C.2   900  FPS900     -0.0478
     15  C14       -3.2950    4.3770  -16.5640 C.3   900  FPS900      0.0260
     16  C15       -2.5960    1.8130  -16.8520 C.3   900  FPS900      0.0260
     17  PA        -5.5780    0.9050  -24.5980 P.3   900  FPS900      0.4273
     18  O1A       -4.1850    0.5070  -24.3110 O.3   900  FPS900     -0.1309
     19  O2A       -5.7260    2.3810  -24.5000 O.2   900  FPS900     -0.2431
     20  O3A       -6.1480    0.5410  -25.9480 O.3   900  FPS900     -0.1955
     21  PB        -5.7450    0.9070  -27.3460 P.3   900  FPS900      0.5394
     22  O1B       -5.3780   -0.3630  -27.9130 O.2   900  FPS900     -0.2220
     23  O2B       -7.0710    1.4060  -27.8910 O.3   900  FPS900     -0.1143
     24  O3B       -4.7750    1.9650  -27.5320 O.3   900  FPS900     -0.1143
@<TRIPOS>BOND
     1    22    21    2
     2    23    21    1
     3    24    21    1
     4    21    20    1
     5    20    17    1
     6    17    19    2
     7    17    18    1
     8    17     2    1
     9     2     1    1
    10     1     3    1
    11     3     4    2
    12     4     5    1
    13     4     6    1
    14     6     7    1
    15     7     8    1
    16    16    14    1
    17    11     9    1
    18    15    14    1
    19     8     9    2
    20    14    13    2
    21     9    10    1
    22    13    12    1
    23    10    12    1
