@<TRIPOS>MOLECULE
3vkc_FPQ_A_1.pdb
 26 25 0 0 0
SMALL
GASTEIGER

@<TRIPOS>ATOM
      1  P         -5.5540  -26.1360    7.0140 P.3   900  FPQ900      0.5327
      2  C1        -7.2910  -21.5920    4.1640 C.3   900  FPQ900      0.1684
      3  C2        -6.1530  -20.6060    3.8890 C.2   900  FPQ900     -0.0028
      4  C3        -6.2150  -19.3180    4.1590 C.2   900  FPQ900     -0.0454
      5  C4        -4.9600  -18.5370    3.8680 C.3   900  FPQ900      0.0261
      6  C5        -7.3700  -18.5480    4.7710 C.3   900  FPQ900      0.0264
      7  C6        -8.1770  -17.8920    3.6350 C.3   900  FPQ900      0.0297
      8  C7        -7.5860  -16.5480    3.1730 C.2   900  FPQ900     -0.0342
      9  C8        -7.1210  -16.2520    1.9420 C.2   900  FPQ900     -0.0478
     10  C9        -7.0800  -17.1880    0.7360 C.3   900  FPQ900      0.0260
     11  CX        -5.5770  -23.4620    7.1590 C.3   900  FPQ900      0.1949
     12  OX        -5.3600  -24.6330    6.3790 O.3   900  FPQ900     -0.2670
     13  CY        -5.7660  -22.3430    6.0920 C.3   900  FPQ900      0.2486
     14  OY        -6.9330  -22.5460    5.3430 O.3   900  FPQ900     -0.3383
     15  CZ        -5.8330  -21.0540    6.8960 C.2   900  FPQ900      0.3940
     16  C10       -6.5970  -14.8150    1.7700 C.3   900  FPQ900      0.0263
     17  C11       -5.1750  -14.7690    1.0950 C.3   900  FPQ900      0.0297
     18  C12       -4.0890  -15.2170    2.0730 C.2   900  FPQ900     -0.0342
     19  C13       -3.2090  -16.1980    1.8420 C.2   900  FPQ900     -0.0478
     20  C14       -3.1830  -17.0060    0.5490 C.3   900  FPQ900      0.0260
     21  C15       -2.1580  -16.5590    2.8920 C.3   900  FPQ900      0.0260
     22  O1P       -5.1390  -26.0900    8.4570 O.3   900  FPQ900     -0.1145
     23  O1Z       -4.7750  -20.5140    7.2520 O.co2 900  FPQ900     -0.2429
     24  O2P       -6.9520  -26.6370    6.6530 O.3   900  FPQ900     -0.1145
     25  O2Z       -6.9910  -20.5510    7.1190 O.co2 900  FPQ900     -0.2429
     26  O3P       -4.6010  -26.9020    6.1460 O.2   900  FPQ900     -0.2224
@<TRIPOS>BOND
     1    20    19    1
     2    10     9    1
     3    17    16    1
     4    17    18    1
     5    16     9    1
     6    19    18    2
     7    19    21    1
     8     9     8    2
     9     8     7    1
    10     7     6    1
    11     5     4    1
    12     3     4    2
    13     3     2    1
    14     4     6    1
    15     2    14    1
    16    14    13    1
    17    13    15    1
    18    13    11    1
    19    26     1    2
    20    12     1    1
    21    12    11    1
    22    24     1    1
    23    15    25   ar
    24    15    23   ar
    25     1    22    1
