@<TRIPOS>MOLECULE
3vkd_FPQ_A_1.pdb
 26 25 0 0 0
SMALL
GASTEIGER

@<TRIPOS>ATOM
      1  P         -5.6860    1.0120  -27.0830 P.3   900  FPQ900      0.5327
      2  C1        -7.4720    2.3530  -21.7690 C.3   900  FPQ900      0.1684
      3  C2        -6.3230    2.3090  -20.7860 C.2   900  FPQ900     -0.0028
      4  C3        -6.3910    1.6890  -19.6230 C.2   900  FPQ900     -0.0454
      5  C4        -5.1430    1.7210  -18.8420 C.3   900  FPQ900      0.0261
      6  C5        -7.5780    0.9300  -19.0480 C.3   900  FPQ900      0.0264
      7  C6        -8.3800    1.8990  -18.1540 C.3   900  FPQ900      0.0297
      8  C7        -7.7830    1.8760  -16.7370 C.2   900  FPQ900     -0.0342
      9  C8        -7.2880    2.9640  -16.1000 C.2   900  FPQ900     -0.0478
     10  C9        -7.2410    4.3690  -16.6810 C.3   900  FPQ900      0.0260
     11  CX        -5.8110    0.1220  -24.5790 C.3   900  FPQ900      0.1949
     12  OX        -5.4530    1.1750  -25.4320 O.3   900  FPQ900     -0.2670
     13  CY        -5.9560    0.7500  -23.1680 C.3   900  FPQ900      0.2486
     14  OY        -7.0510    1.5960  -23.0820 O.3   900  FPQ900     -0.3383
     15  CZ        -6.0130   -0.4520  -22.1840 C.2   900  FPQ900      0.3940
     16  C10       -6.7620    2.7550  -14.6690 C.3   900  FPQ900      0.0263
     17  C11       -5.3550    3.3310  -14.4130 C.3   900  FPQ900      0.0297
     18  C12       -4.3050    2.5640  -15.1830 C.2   900  FPQ900     -0.0342
     19  C13       -3.4090    3.0240  -16.0440 C.2   900  FPQ900     -0.0478
     20  C14       -3.2710    4.5020  -16.4560 C.3   900  FPQ900      0.0260
     21  C15       -2.4450    2.0740  -16.6870 C.3   900  FPQ900      0.0260
     22  O1P       -5.3720   -0.3810  -27.4860 O.3   900  FPQ900     -0.1145
     23  O1Z       -4.9160   -0.9720  -21.8490 O.co2 900  FPQ900     -0.2429
     24  O2P       -7.1300    1.4300  -27.4660 O.3   900  FPQ900     -0.1145
     25  O2Z       -7.1260   -0.8130  -21.7440 O.co2 900  FPQ900     -0.2429
     26  O3P       -4.7120    2.0590  -27.5810 O.2   900  FPQ900     -0.2224
@<TRIPOS>BOND
     1    26     1    2
     2    22     1    1
     3    24     1    1
     4     1    12    1
     5    12    11    1
     6    11    13    1
     7    13    14    1
     8    13    15    1
     9    14     2    1
    10    15    23   ar
    11    15    25   ar
    12     2     3    1
    13     3     4    2
    14     4     6    1
    15     4     5    1
    16     6     7    1
    17     7     8    1
    18     8     9    2
    19    21    19    1
    20    10     9    1
    21    20    19    1
    22     9    16    1
    23    19    18    2
    24    18    17    1
    25    16    17    1
