@<TRIPOS>MOLECULE
3vkg_ADP_A_1.pdb
 27 29 0 0 0
SMALL
GASTEIGER

@<TRIPOS>ATOM
      1  PB        75.5920  133.3380   67.8640 P.3   9001  ADP9001     0.5373
      2  O1B       76.0070  132.3400   68.9040 O.3   9001  ADP9001    -0.1143
      3  O2B       76.6710  134.2270   67.3830 O.3   9001  ADP9001    -0.1143
      4  O3B       74.7200  132.7640   66.7820 O.2   9001  ADP9001    -0.2221
      5  PA        74.1830  135.7550   68.1820 P.3   9001  ADP9001     0.2231
      6  O1A       72.6980  135.8600   68.3600 O.3   9001  ADP9001    -0.4370
      7  O2A       74.7640  136.0080   66.8590 O.2   9001  ADP9001    -0.5169
      8  O3A       74.6440  134.3100   68.6900 O.3   9001  ADP9001    -0.2261
      9  O5'       74.8620  136.6570   69.3110 O.3   9001  ADP9001    -0.3111
     10  C5'       75.6790  137.7560   69.0230 C.3   9001  ADP9001     0.1813
     11  C4'       75.2200  138.9980   69.7900 C.3   9001  ADP9001     0.1821
     12  O4'       76.0780  140.0430   69.4360 O.3   9001  ADP9001    -0.3135
     13  C3'       73.8480  139.3650   69.3450 C.3   9001  ADP9001     0.2184
     14  O3'       72.9900  139.4190   70.4800 O.3   9001  ADP9001    -0.2174
     15  C2'       73.9520  140.7030   68.6650 C.3   9001  ADP9001     0.2570
     16  O2'       73.1320  141.6780   69.3100 O.3   9001  ADP9001    -0.2130
     17  C1'       75.4070  141.0840   68.7550 C.3   9001  ADP9001     0.3186
     18  N9        75.9890  141.2390   67.4010 N.pl3 9001  ADP9001    -0.1439
     19  C8        76.6970  140.3060   66.7000 C.3   9001  ADP9001     0.3377
     20  N7        77.0740  140.7860   65.4960 N.2   9001  ADP9001    -0.2095
     21  C5        76.6070  142.0440   65.4120 C.2   9001  ADP9001     0.2526
     22  C6        76.6280  143.1460   64.4160 C.2   9001  ADP9001     0.4393
     23  N6        77.2380  143.0050   63.2280 N.pl3 9001  ADP9001     0.2180
     24  N1        76.0060  144.3140   64.7440 N.2   9001  ADP9001     0.0021
     25  C2        75.3740  144.5020   65.9310 C.3   9001  ADP9001     0.5254
     26  N3        75.3200  143.5350   66.8700 N.2   9001  ADP9001    -0.0055
     27  C4        75.8940  142.3250   66.6770 C.2   9001  ADP9001     0.3518
@<TRIPOS>BOND
     1    23    22    1
     2    22    24    2
     3    22    21    1
     4    24    25    1
     5    21    20    2
     6    21    27    1
     7    20    19    1
     8    25    26    1
     9    27    26    2
    10    27    18    1
    11    19    18    1
    12     4     1    2
    13     7     5    2
    14     3     1    1
    15    18    17    1
    16     1     8    1
    17     1     2    1
    18     5     6    1
    19     5     8    1
    20     5     9    1
    21    15    17    1
    22    15    16    1
    23    15    13    1
    24    17    12    1
    25    10     9    1
    26    10    11    1
    27    13    11    1
    28    13    14    1
    29    12    11    1
