@<TRIPOS>MOLECULE
3vkh_ADP_A_1.pdb
 27 29 0 0 0
SMALL
GASTEIGER

@<TRIPOS>ATOM
      1  PB        64.0160  138.9030   78.5160 P.3   9001  ADP9001     0.5373
      2  O1B       65.3360  139.6310   78.4410 O.3   9001  ADP9001    -0.1143
      3  O2B       63.2980  138.7860   77.1950 O.2   9001  ADP9001    -0.2221
      4  O3B       64.0590  137.6230   79.3160 O.3   9001  ADP9001    -0.1143
      5  PA        62.6300  141.3430   78.8850 P.3   9001  ADP9001     0.2231
      6  O1A       61.1420  141.4710   79.0980 O.3   9001  ADP9001    -0.4370
      7  O2A       63.2100  141.5820   77.5090 O.2   9001  ADP9001    -0.5169
      8  O3A       63.0840  139.8800   79.4050 O.3   9001  ADP9001    -0.2261
      9  O5'       63.3680  142.3220   79.9420 O.3   9001  ADP9001    -0.3111
     10  C5'       64.3230  143.3070   79.5230 C.3   9001  ADP9001     0.1813
     11  C4'       64.0620  144.6350   80.2380 C.3   9001  ADP9001     0.1821
     12  O4'       65.0240  145.6200   79.8230 O.3   9001  ADP9001    -0.3135
     13  C3'       62.6760  145.1880   79.9300 C.3   9001  ADP9001     0.2184
     14  O3'       61.8750  145.2410   81.1190 O.3   9001  ADP9001    -0.2174
     15  C2'       62.8910  146.5630   79.3100 C.3   9001  ADP9001     0.2570
     16  O2'       62.2360  147.5960   80.0620 O.3   9001  ADP9001    -0.2130
     17  C1'       64.3930  146.7880   79.2680 C.3   9001  ADP9001     0.3186
     18  N9        64.8490  147.0360   77.8560 N.pl3 9001  ADP9001    -0.1439
     19  C8        65.5310  146.1690   77.0690 C.3   9001  ADP9001     0.3377
     20  N7        65.7860  146.7120   75.8480 N.2   9001  ADP9001    -0.2095
     21  C5        65.2650  147.9490   75.8340 C.2   9001  ADP9001     0.2526
     22  C6        65.1730  149.0800   74.8590 C.2   9001  ADP9001     0.4393
     23  N6        65.7090  148.9790   73.6210 N.pl3 9001  ADP9001     0.2180
     24  N1        64.5280  150.2240   75.2570 N.2   9001  ADP9001     0.0021
     25  C2        63.9760  150.3620   76.4950 C.3   9001  ADP9001     0.5254
     26  N3        64.0290  149.3670   77.4240 N.2   9001  ADP9001    -0.0055
     27  C4        64.6450  148.1650   77.1620 C.2   9001  ADP9001     0.3518
@<TRIPOS>BOND
     1    23    22    1
     2    22    24    2
     3    22    21    1
     4    24    25    1
     5    21    20    2
     6    21    27    1
     7    20    19    1
     8    25    26    1
     9    19    18    1
    10    27    26    2
    11    27    18    1
    12     3     1    2
    13     7     5    2
    14    18    17    1
    15     2     1    1
    16     1     4    1
    17     1     8    1
    18     5     6    1
    19     5     8    1
    20     5     9    1
    21    17    15    1
    22    17    12    1
    23    15    13    1
    24    15    16    1
    25    10     9    1
    26    10    11    1
    27    12    11    1
    28    13    11    1
    29    13    14    1
