@<TRIPOS>MOLECULE
3vkj_FNR_A_1.pdb
 31 33 0 0 0
SMALL
GASTEIGER

@<TRIPOS>ATOM
      1  C9A       60.4890   19.6680   14.1610 C.2   401  FNR401      0.0793
      2  N10       60.4180   19.5260   15.5970 N.pl3 401  FNR401     -0.2545
      3  CAA       60.3110   18.2540   16.1290 C.2   401  FNR401      0.2449
      4  N1        60.4860   18.1300   17.4770 N.2   401  FNR401     -0.2887
      5  C2        60.3770   16.8910   18.0360 C.1   401  FNR401      0.3669
      6  O2        60.6080   16.8430   19.2620 O.2   401  FNR401     -0.1744
      7  N3        60.3960   15.7480   17.2660 N.2   401  FNR401     -0.2300
      8  C4        60.3070   15.8060   15.8920 C.1   401  FNR401      0.2513
      9  O4        60.0190   14.7780   15.2540 O.2   401  FNR401     -0.2057
     10  C4A       60.2500   17.1190   15.2220 C.2   401  FNR401      0.2703
     11  N5        60.0580   17.2820   13.8520 N.2   401  FNR401     -0.3882
     12  C5A       60.3810   18.5160   13.3730 C.2   401  FNR401      0.1277
     13  C6        60.6030   18.6200   11.9970 C.3   401  FNR401      0.0820
     14  C7        61.0160   19.8280   11.4220 C.2   401  FNR401     -0.0408
     15  C7M       61.0080   19.9040    9.8690 C.3   401  FNR401      0.0265
     16  C8        61.1550   20.9750   12.1980 C.2   401  FNR401     -0.0280
     17  C8M       61.5260   22.3160   11.6230 C.3   401  FNR401      0.0304
     18  C9        60.8860   20.9060   13.6310 C.2   401  FNR401      0.0123
     19  C1'       60.3670   20.6830   16.5170 C.3   401  FNR401      0.1336
     20  C2'       61.7480   21.3360   16.6810 C.3   401  FNR401      0.2048
     21  O2'       62.5720   20.4170   17.4850 O.3   401  FNR401     -0.2185
     22  C3'       61.6790   22.6260   17.4690 C.3   401  FNR401      0.2165
     23  O3'       61.2400   22.3510   18.8300 O.3   401  FNR401     -0.2175
     24  C4'       60.7500   23.6650   16.8320 C.3   401  FNR401      0.2147
     25  O4'       60.7830   23.5660   15.3800 O.3   401  FNR401     -0.2176
     26  C5'       61.1790   25.0890   17.3540 C.3   401  FNR401      0.1892
     27  O5'       62.5120   25.4500   17.0210 O.3   401  FNR401     -0.2674
     28  P         62.8670   26.2520   15.6750 P.3   401  FNR401      0.5327
     29  O1P       64.3250   26.5260   15.7400 O.3   401  FNR401     -0.1145
     30  O2P       62.0630   27.5330   15.6180 O.3   401  FNR401     -0.1145
     31  O3P       62.4660   25.3880   14.4670 O.2   401  FNR401     -0.2224
@<TRIPOS>BOND
     1    15    14    1
     2    14    13    1
     3    14    16    2
     4    17    16    1
     5    13    12    1
     6    16    18    1
     7    12    11    2
     8    12     1    1
     9    18     1    2
    10    11    10    2
    11     1     2    1
    12    31    28    2
    13    10     8    1
    14    10     3    1
    15     9     8    2
    16    25    24    1
    17     2     3    1
    18     2    19    1
    19    30    28    1
    20    28    29    1
    21    28    27    1
    22     8     7    2
    23     3     4    2
    24    19    20    1
    25    20    22    1
    26    20    21    1
    27    24    26    1
    28    24    22    1
    29    27    26    1
    30     7     5    2
    31    22    23    1
    32     4     5    2
    33     5     6    2
