@<TRIPOS>MOLECULE
3vkk_MAN_A_1.pdb
 11 11 0 0 0
SMALL
GASTEIGER

@<TRIPOS>ATOM
      1  C1       -29.1770   -2.6410    6.7510 C.3   477  MAN477      0.1777
      2  C2       -28.1490   -2.5990    7.9000 C.3   477  MAN477      0.2141
      3  C3       -28.3470   -1.3530    8.8130 C.3   477  MAN477      0.2173
      4  C4       -28.6070   -0.0600    8.0550 C.3   477  MAN477      0.2142
      5  C5       -29.6350   -0.3170    6.9180 C.3   477  MAN477      0.1810
      6  C6       -29.8300    0.9580    6.0470 C.3   477  MAN477      0.2141
      7  O2       -26.7970   -2.7380    7.4770 O.3   477  MAN477     -0.2176
      8  O3       -27.3150   -1.2470    9.7880 O.3   477  MAN477     -0.2175
      9  O4       -29.0550    0.9980    8.9400 O.3   477  MAN477     -0.2176
     10  O5       -29.2180   -1.4120    6.0870 O.3   477  MAN477     -0.3481
     11  O6       -28.6460    1.1700    5.2960 O.3   477  MAN477     -0.2176
@<TRIPOS>BOND
     1    11     6    1
     2     6     5    1
     3    10     1    1
     4    10     5    1
     5     1     2    1
     6     5     4    1
     7     7     2    1
     8     2     3    1
     9     4     3    1
    10     4     9    1
    11     3     8    1
