@<TRIPOS>MOLECULE
3vkl_GAL_A_1.pdb
 11 11 0 0 0
SMALL
GASTEIGER

@<TRIPOS>ATOM
      1  C1       -12.5930  -50.4660   25.1060 C.3   401  GAL401      0.1777
      2  C2       -13.1200  -50.5130   23.6580 C.3   401  GAL401      0.2141
      3  C3       -12.1070  -49.8710   22.7090 C.3   401  GAL401      0.2173
      4  C4       -11.8590  -48.4480   23.1880 C.3   401  GAL401      0.2142
      5  C5       -11.2930  -48.5230   24.6080 C.3   401  GAL401      0.1810
      6  C6       -10.9260  -47.1810   25.1910 C.3   401  GAL401      0.2141
      7  O2       -13.3510  -51.8550   23.2700 O.3   401  GAL401     -0.2176
      8  O3       -12.6090  -49.8640   21.3800 O.3   401  GAL401     -0.2175
      9  O4       -13.1010  -47.7510   23.2040 O.3   401  GAL401     -0.2176
     10  O5       -12.2690  -49.1190   25.4850 O.3   401  GAL401     -0.3481
     11  O6       -10.5330  -47.3090   26.5480 O.3   401  GAL401     -0.2176
@<TRIPOS>BOND
     1     8     3    1
     2     3     4    1
     3     3     2    1
     4     4     9    1
     5     4     5    1
     6     7     2    1
     7     2     1    1
     8     5     6    1
     9     5    10    1
    10     1    10    1
    11     6    11    1
