@<TRIPOS>MOLECULE
3vkl_BGC_A_1.pdb
 12 12 0 0 0
SMALL
GASTEIGER

@<TRIPOS>ATOM
      1  C2       -14.1900  -51.3020   29.6930 C.3   402  BGC402      0.2434
      2  C3       -14.4090  -50.8380   28.2480 C.3   402  BGC402      0.2199
      3  C4       -13.1720  -51.0610   27.3610 C.3   402  BGC402      0.2144
      4  C5       -12.5370  -52.4490   27.5850 C.3   402  BGC402      0.1836
      5  C6       -11.1770  -52.5980   26.9130 C.3   402  BGC402      0.2142
      6  C1       -13.5740  -52.7020   29.7190 C.3   402  BGC402      0.3024
      7  O1       -13.3080  -53.0790   31.0270 O.3   402  BGC402     -0.1869
      8  O2       -15.4320  -51.3170   30.3750 O.3   402  BGC402     -0.2148
      9  O3       -14.7290  -49.4570   28.2490 O.3   402  BGC402     -0.2174
     10  O4       -13.5620  -50.9330   25.9800 O.3   402  BGC402     -0.2176
     11  O5       -12.3380  -52.6950   28.9960 O.3   402  BGC402     -0.3236
     12  O6       -10.2260  -51.6750   27.4370 O.3   402  BGC402     -0.2176
@<TRIPOS>BOND
     1    10     3    1
     2     5    12    1
     3     5     4    1
     4     3     4    1
     5     3     2    1
     6     4    11    1
     7     2     9    1
     8     2     1    1
     9    11     6    1
    10     1     6    1
    11     1     8    1
    12     6     7    1
