@<TRIPOS>MOLECULE
3vkm_BGC_A_1.pdb
 12 12 0 0 0
SMALL
GASTEIGER

@<TRIPOS>ATOM
      1  C2        33.8360  -37.2450   -5.5410 C.3   403  BGC403      0.2434
      2  C3        33.6120  -37.7000   -6.9810 C.3   403  BGC403      0.2199
      3  C4        34.3280  -36.7730   -7.9630 C.3   403  BGC403      0.2144
      4  C5        35.8040  -36.5950   -7.5760 C.3   403  BGC403      0.1836
      5  C6        36.4870  -35.5430   -8.4190 C.3   403  BGC403      0.2142
      6  C1        35.3350  -37.0630   -5.2710 C.3   403  BGC403      0.3024
      7  O1        35.5170  -36.5330   -4.0080 O.3   403  BGC403     -0.1869
      8  O2        33.3080  -38.2220   -4.6560 O.3   403  BGC403     -0.2148
      9  O3        32.2220  -37.6960   -7.2580 O.3   403  BGC403     -0.2174
     10  O4        34.2290  -37.3110   -9.2930 O.3   403  BGC403     -0.2176
     11  O5        35.9080  -36.1430   -6.2110 O.3   403  BGC403     -0.3236
     12  O6        36.2760  -34.2450   -7.8780 O.3   403  BGC403     -0.2176
@<TRIPOS>BOND
     1    10     3    1
     2     5    12    1
     3     5     4    1
     4     3     4    1
     5     3     2    1
     6     4    11    1
     7     9     2    1
     8     2     1    1
     9    11     6    1
    10     1     6    1
    11     1     8    1
    12     6     7    1
