@<TRIPOS>MOLECULE
3vkm_GAL_A_1.pdb
 11 11 0 0 0
SMALL
GASTEIGER

@<TRIPOS>ATOM
      1  C1        33.9200  -36.3990  -10.2880 C.3   402  GAL402      0.1777
      2  C2        33.7700  -37.1220  -11.6140 C.3   402  GAL402      0.2141
      3  C3        33.4170  -36.1020  -12.6810 C.3   402  GAL402      0.2173
      4  C4        32.1300  -35.3790  -12.3000 C.3   402  GAL402      0.2142
      5  C5        32.2970  -34.7480  -10.9160 C.3   402  GAL402      0.1810
      6  C6        31.0170  -34.1180  -10.4140 C.3   402  GAL402      0.2141
      7  O2        34.9830  -37.7700  -11.9470 O.3   402  GAL402     -0.2176
      8  O3        33.2640  -36.7630  -13.9490 O.3   402  GAL402     -0.2175
      9  O4        31.0570  -36.3040  -12.2780 O.3   402  GAL402     -0.2176
     10  O5        32.6830  -35.7510   -9.9500 O.3   402  GAL402     -0.3481
     11  O6        31.1500  -33.6890   -9.0680 O.3   402  GAL402     -0.2176
@<TRIPOS>BOND
     1     8     3    1
     2     3     4    1
     3     3     2    1
     4     4     9    1
     5     4     5    1
     6     7     2    1
     7     2     1    1
     8     5     6    1
     9     5    10    1
    10     6    11    1
    11     1    10    1
