@<TRIPOS>MOLECULE
3vkm_SIA_A_1.pdb
 20 20 0 0 0
SMALL
GASTEIGER

@<TRIPOS>ATOM
      1  C1        34.2330  -35.0200  -15.2560 C.2   401  SIA401      0.3914
      2  C2        34.2560  -36.5010  -14.8840 C.3   401  SIA401      0.2203
      3  C3        34.0350  -37.3590  -16.1550 C.3   401  SIA401      0.0760
      4  C4        35.2470  -37.2670  -17.0950 C.3   401  SIA401      0.1773
      5  C5        36.5000  -37.6120  -16.2950 C.3   401  SIA401      0.1552
      6  C6        36.6310  -36.5910  -15.1910 C.3   401  SIA401      0.1710
      7  C7        37.9660  -36.7190  -14.4700 C.3   401  SIA401      0.2134
      8  C8        38.3430  -35.4200  -13.7370 C.3   401  SIA401      0.2173
      9  C9        38.3290  -34.2050  -14.6680 C.3   401  SIA401      0.2175
     10  C10       38.1490  -38.8000  -17.5550 C.2   401  SIA401      0.2420
     11  C11       38.5470  -39.8480  -16.5260 C.3   401  SIA401      0.0964
     12  N5        37.6890  -37.6350  -17.1140 N.am  401  SIA401     -0.2020
     13  O1A       33.5090  -34.6510  -16.2040 O.co2 401  SIA401     -0.2430
     14  O1B       34.9320  -34.2240  -14.5910 O.co2 401  SIA401     -0.2430
     15  O4        35.0890  -38.1680  -18.1800 O.3   401  SIA401     -0.2211
     16  O6        35.5350  -36.7810  -14.2770 O.3   401  SIA401     -0.3429
     17  O7        37.8930  -37.7880  -13.5420 O.3   401  SIA401     -0.2176
     18  O8        37.4530  -35.1890  -12.6590 O.3   401  SIA401     -0.2175
     19  O9        38.3310  -33.0110  -13.8920 O.3   401  SIA401     -0.2175
     20  O10       38.2630  -39.0470  -18.7480 O.2   401  SIA401     -0.2733
@<TRIPOS>BOND
     1    20    10    2
     2    15     4    1
     3    10    12   am
     4    10    11    1
     5    12     5    1
     6     4     5    1
     7     4     3    1
     8     5     6    1
     9    13     1   ar
    10     3     2    1
    11     1     2    1
    12     1    14   ar
    13     6     7    1
    14     6    16    1
    15     2    16    1
    16     9    19    1
    17     9     8    1
    18     7     8    1
    19     7    17    1
    20     8    18    1
