@<TRIPOS>MOLECULE
3vko_SIA_A_1.pdb
 20 20 0 0 0
SMALL
GASTEIGER

@<TRIPOS>ATOM
      1  C1        17.6940   -6.2540   -7.5870 C.2   201  SIA201      0.3914
      2  C2        17.9260   -5.1860   -8.6530 C.3   201  SIA201      0.2203
      3  C3        18.9200   -4.1380   -8.1300 C.3   201  SIA201      0.0760
      4  C4        20.3370   -4.7020   -8.0090 C.3   201  SIA201      0.1773
      5  C5        20.7570   -5.4140   -9.2950 C.3   201  SIA201      0.1552
      6  C6        19.7110   -6.4660   -9.6480 C.3   201  SIA201      0.1710
      7  C7        20.1050   -7.2320  -10.9100 C.3   201  SIA201      0.2134
      8  C8        18.9370   -8.0850  -11.4000 C.3   201  SIA201      0.2173
      9  C9        19.3730   -8.9730  -12.5610 C.3   201  SIA201      0.2175
     10  C10       23.1000   -5.6300   -9.8130 C.2   201  SIA201      0.2420
     11  C11       24.0510   -6.6890  -10.3360 C.3   201  SIA201      0.0964
     12  N5        22.0530   -6.0400   -9.1040 N.am  201  SIA201     -0.2020
     13  O1A       17.6440   -5.9040   -6.3910 O.co2 201  SIA201     -0.2430
     14  O1B       17.5350   -7.4410   -7.9460 O.co2 201  SIA201     -0.2430
     15  O4        21.2440   -3.6450   -7.7500 O.3   201  SIA201     -0.2211
     16  O6        18.4310   -5.8250   -9.8410 O.3   201  SIA201     -0.3429
     17  O7        20.4790   -6.3150  -11.9300 O.3   201  SIA201     -0.2176
     18  O8        18.4500   -8.8930  -10.3380 O.3   201  SIA201     -0.2175
     19  O9        18.2390   -9.6400  -13.0950 O.3   201  SIA201     -0.2175
     20  O10       23.3150   -4.4430  -10.0550 O.2   201  SIA201     -0.2733
@<TRIPOS>BOND
     1    19     9    1
     2     9     8    1
     3    17     7    1
     4     8     7    1
     5     8    18    1
     6     7     6    1
     7    11    10    1
     8    20    10    2
     9    16     6    1
    10    16     2    1
    11    10    12   am
    12     6     5    1
    13     5    12    1
    14     5     4    1
    15     2     3    1
    16     2     1    1
    17     3     4    1
    18     4    15    1
    19    14     1   ar
    20     1    13   ar
