@<TRIPOS>MOLECULE
3vko_GAL_A_1.pdb
 11 11 0 0 0
SMALL
GASTEIGER

@<TRIPOS>ATOM
      1  C1        14.3840   -5.6870  -11.6820 C.3   202  GAL202      0.1777
      2  C2        15.5430   -4.9360  -11.0480 C.3   202  GAL202      0.2141
      3  C3        15.7090   -5.3730   -9.5930 C.3   202  GAL202      0.2173
      4  C4        14.3890   -5.2150   -8.8360 C.3   202  GAL202      0.2142
      5  C5        13.2760   -5.9560   -9.5900 C.3   202  GAL202      0.1810
      6  C6        11.9120   -5.8060   -8.9520 C.3   202  GAL202      0.2141
      7  O2        16.7270   -5.2210  -11.7720 O.3   202  GAL202     -0.2176
      8  O3        16.7250   -4.5680   -8.9680 O.3   202  GAL202     -0.2175
      9  O4        14.0630   -3.8370   -8.7160 O.3   202  GAL202     -0.2176
     10  O5        13.1770   -5.4590  -10.9400 O.3   202  GAL202     -0.3481
     11  O6        10.9190   -6.4750   -9.7070 O.3   202  GAL202     -0.2176
@<TRIPOS>BOND
     1     7     2    1
     2     1     2    1
     3     1    10    1
     4     2     3    1
     5    10     5    1
     6    11     6    1
     7     3     8    1
     8     3     4    1
     9     5     6    1
    10     5     4    1
    11     4     9    1
