@<TRIPOS>MOLECULE
3vkv_FBP_B_1.pdb
 20 20 0 0 0
SMALL
GASTEIGER

@<TRIPOS>ATOM
      1  P1        -8.5950   -1.0720  -17.6820 P.3   328  FBP328      0.5328
      2  O1P       -8.2200   -0.1420  -18.8050 O.2   328  FBP328     -0.2224
      3  O2P       -7.3640   -1.6520  -17.0700 O.3   328  FBP328     -0.1145
      4  O3P       -9.5410   -2.0810  -18.3170 O.3   328  FBP328     -0.1145
      5  O1        -9.1120   -0.2850  -16.3710 O.3   328  FBP328     -0.2648
      6  C1        -8.3280   -0.4110  -15.1990 C.3   328  FBP328      0.2152
      7  C2        -8.2170    0.9050  -14.4230 C.3   328  FBP328      0.2780
      8  O2        -6.9890    1.5730  -14.7630 O.3   328  FBP328     -0.1897
      9  C3        -8.1400    0.6720  -12.9320 C.3   328  FBP328      0.2408
     10  O3        -6.8470    1.0920  -12.5550 O.3   328  FBP328     -0.2149
     11  C4        -9.2610    1.5290  -12.3430 C.3   328  FBP328      0.2167
     12  O4        -9.9420    0.8570  -11.3110 O.3   328  FBP328     -0.2175
     13  C5       -10.1860    1.8080  -13.5250 C.3   328  FBP328      0.1808
     14  O5        -9.3100    1.7840  -14.6430 O.3   328  FBP328     -0.3255
     15  C6       -10.9450    3.1330  -13.4430 C.3   328  FBP328      0.1859
     16  O6       -11.2600    3.6250  -14.7380 O.3   328  FBP328     -0.2675
     17  P2       -12.7990    3.6270  -15.2650 P.3   328  FBP328      0.5327
     18  O4P      -13.1580    4.5660  -16.3970 O.2   328  FBP328     -0.2224
     19  O5P      -13.6360    3.9660  -14.0620 O.3   328  FBP328     -0.1145
     20  O6P      -13.1790    2.2280  -15.6630 O.3   328  FBP328     -0.1145
@<TRIPOS>BOND
     1     2     1    2
     2     4     1    1
     3     1     3    1
     4     1     5    1
     5    18    17    2
     6     5     6    1
     7    20    17    1
     8    17    16    1
     9    17    19    1
    10     6     7    1
    11     8     7    1
    12    16    15    1
    13    14     7    1
    14    14    13    1
    15     7     9    1
    16    13    15    1
    17    13    11    1
    18     9    10    1
    19     9    11    1
    20    11    12    1
