@<TRIPOS>MOLECULE
3vkx_T3_A_1.pdb
 23 24 0 0 0
SMALL
GASTEIGER

@<TRIPOS>ATOM
      1  C1       -20.0350    2.5880   39.0220 C.ar  301  T3301      -0.0191
      2  C2       -16.9490    4.3200   35.5380 C.ar  301  T3301       0.1460
      3  C3       -20.5800    3.3930   38.0170 C.ar  301  T3301       0.0047
      4  C4       -17.1790    2.9670   35.2440 C.ar  301  T3301       0.0465
      5  C5       -19.7850    4.2150   37.2130 C.ar  301  T3301       0.0647
      6  C6       -16.6930    2.4200   34.0640 C.ar  301  T3301       0.0720
      7  C7       -18.3170    4.1590   37.4250 C.ar  301  T3301       0.1558
      8  C8       -15.9420    3.2890   33.1360 C.ar  301  T3301       0.2012
      9  C9       -17.7940    3.2620   38.4830 C.ar  301  T3301       0.0647
     10  C10      -15.7400    4.6210   33.4600 C.ar  301  T3301       0.0456
     11  C11      -18.6600    2.5010   39.2450 C.ar  301  T3301       0.0047
     12  C12      -16.2420    5.1330   34.6610 C.ar  301  T3301       0.0408
     13  C13      -20.9350    1.6910   39.8230 C.3   301  T3301       0.0570
     14  C15      -21.9350    2.3640   40.7360 C.3   301  T3301       0.1986
     15  C17      -22.7470    1.2380   41.3380 C.2   301  T3301       0.3822
     16  I1       -20.7270    5.3970   35.7300 I     301  T3301      -0.0393
     17  I2       -17.0080    0.4100   33.5540 I     301  T3301      -0.0391
     18  I3       -15.7470    3.1350   38.8180 I     301  T3301      -0.0393
     19  N1       -21.2070    3.1170   41.7390 N.3   301  T3301      -0.1205
     20  O1       -15.4670    2.7690   31.9840 O.3   301  T3301      -0.2861
     21  O2       -17.4190    4.8830   36.6870 O.3   301  T3301      -0.4526
     22  O3       -23.0030    0.2440   40.6060 O.co2 301  T3301      -0.2440
     23  O4       -23.1090    1.3130   42.5390 O.co2 301  T3301      -0.2440
@<TRIPOS>BOND
     1    20     8    1
     2     8    10   ar
     3     8     6   ar
     4    10    12   ar
     5    17     6    1
     6     6     4   ar
     7    12     2   ar
     8     4     2   ar
     9     2    21    1
    10    16     5    1
    11    21     7    1
    12     5     7   ar
    13     5     3   ar
    14     7     9   ar
    15     3     1   ar
    16     9    18    1
    17     9    11   ar
    18     1    11   ar
    19     1    13    1
    20    13    14    1
    21    22    15   ar
    22    14    15    1
    23    14    19    1
    24    15    23   ar
