@<TRIPOS>MOLECULE
3vkz_IPM_A_1.pdb
 12 11 0 0 0
SMALL
GASTEIGER

@<TRIPOS>ATOM
      1  C1       -28.0750    4.1600  -21.9060 C.2   401  IPM401      0.3952
      2  C2       -29.4120    4.6470  -21.3670 C.3   401  IPM401      0.2645
      3  C3       -29.4140    6.1720  -21.3600 C.3   401  IPM401      0.1448
      4  C4       -29.2050    6.7480  -22.7820 C.2   401  IPM401      0.3674
      5  C5       -30.6600    6.8500  -20.7590 C.3   401  IPM401      0.0138
      6  C6       -30.8190    6.3920  -19.3040 C.3   401  IPM401      0.0007
      7  C7       -30.5090    8.3850  -20.8340 C.3   401  IPM401      0.0007
      8  O1       -30.4570    4.1890  -22.2390 O.3   401  IPM401     -0.2103
      9  O2       -27.0110    4.3530  -21.2330 O.co2 401  IPM401     -0.2428
     10  O3       -27.9890    3.5570  -22.9920 O.co2 401  IPM401     -0.2428
     11  O4       -27.9730    6.9800  -23.1350 O.co2 401  IPM401     -0.2456
     12  O5       -30.1960    6.9740  -23.5730 O.co2 401  IPM401     -0.2456
@<TRIPOS>BOND
     1    12     4   ar
     2    11     4   ar
     3    10     1   ar
     4     4     3    1
     5     8     2    1
     6     1     2    1
     7     1     9   ar
     8     2     3    1
     9     3     5    1
    10     7     5    1
    11     5     6    1
