@<TRIPOS>MOLECULE
3vl2_IPM_A_1.pdb
 12 11 0 0 0
SMALL
GASTEIGER

@<TRIPOS>ATOM
      1  C1       -28.0060    4.1130  -21.5710 C.2   401  IPM401      0.3952
      2  C2       -29.3550    4.6470  -21.1170 C.3   401  IPM401      0.2645
      3  C3       -29.3650    6.1730  -21.0800 C.3   401  IPM401      0.1448
      4  C4       -29.1470    6.7080  -22.4900 C.2   401  IPM401      0.3674
      5  C5       -30.6220    6.8070  -20.4540 C.3   401  IPM401      0.0138
      6  C6       -30.7800    6.4340  -18.9780 C.3   401  IPM401      0.0007
      7  C7       -30.5160    8.3250  -20.5280 C.3   401  IPM401      0.0007
      8  O1       -30.3860    4.2760  -22.0220 O.3   401  IPM401     -0.2103
      9  O2       -27.0360    4.4460  -20.8750 O.co2 401  IPM401     -0.2428
     10  O3       -27.8510    3.4430  -22.6210 O.co2 401  IPM401     -0.2428
     11  O4       -27.9670    6.9400  -22.7800 O.co2 401  IPM401     -0.2456
     12  O5       -30.1050    7.0060  -23.2980 O.co2 401  IPM401     -0.2456
@<TRIPOS>BOND
     1    12     4   ar
     2    11     4   ar
     3    10     1   ar
     4     4     3    1
     5     8     2    1
     6     1     2    1
     7     1     9   ar
     8     2     3    1
     9     3     5    1
    10     7     5    1
    11     5     6    1
