@<TRIPOS>MOLECULE
3vl3_IPM_A_1.pdb
 12 11 0 0 0
SMALL
GASTEIGER

@<TRIPOS>ATOM
      1  C1       -27.8050    4.1620  -21.5380 C.2   401  IPM401      0.3952
      2  C2       -29.1390    4.6650  -21.0170 C.3   401  IPM401      0.2645
      3  C3       -29.1920    6.1740  -21.0070 C.3   401  IPM401      0.1448
      4  C4       -28.9690    6.7070  -22.4570 C.2   401  IPM401      0.3674
      5  C5       -30.4070    6.7820  -20.4670 C.3   401  IPM401      0.0138
      6  C6       -30.6760    6.3130  -18.9600 C.3   401  IPM401      0.0007
      7  C7       -30.2640    8.3180  -20.4640 C.3   401  IPM401      0.0007
      8  O1       -30.2060    4.2140  -21.8580 O.3   401  IPM401     -0.2103
      9  O2       -26.7720    4.4710  -20.9070 O.co2 401  IPM401     -0.2428
     10  O3       -27.7140    3.5590  -22.6240 O.co2 401  IPM401     -0.2428
     11  O4       -27.7660    6.8680  -22.7860 O.co2 401  IPM401     -0.2456
     12  O5       -29.9870    6.8170  -23.2190 O.co2 401  IPM401     -0.2456
@<TRIPOS>BOND
     1    12     4   ar
     2    11     4   ar
     3    10     1   ar
     4     4     3    1
     5     8     2    1
     6     1     2    1
     7     1     9   ar
     8     2     3    1
     9     3     5    1
    10     5     7    1
    11     5     6    1
