@<TRIPOS>MOLECULE
3vl4_IPM_A_1.pdb
 12 11 0 0 0
SMALL
GASTEIGER

@<TRIPOS>ATOM
      1  C1       -27.8080    4.0430  -21.4110 C.2   401  IPM401      0.3952
      2  C2       -29.1410    4.5670  -20.9280 C.3   401  IPM401      0.2645
      3  C3       -29.1480    6.1180  -20.9820 C.3   401  IPM401      0.1448
      4  C4       -28.9310    6.6440  -22.3840 C.2   401  IPM401      0.3674
      5  C5       -30.3870    6.7280  -20.3300 C.3   401  IPM401      0.0138
      6  C6       -30.4760    6.3300  -18.8250 C.3   401  IPM401      0.0007
      7  C7       -30.3220    8.2670  -20.4640 C.3   401  IPM401      0.0007
      8  O1       -30.1950    4.1660  -21.7810 O.3   401  IPM401     -0.2103
      9  O2       -26.8410    4.3540  -20.7490 O.co2 401  IPM401     -0.2428
     10  O3       -27.6660    3.4060  -22.4940 O.co2 401  IPM401     -0.2428
     11  O4       -27.7520    6.9100  -22.7290 O.co2 401  IPM401     -0.2456
     12  O5       -29.8830    6.9020  -23.1600 O.co2 401  IPM401     -0.2456
@<TRIPOS>BOND
     1    12     4   ar
     2    11     4   ar
     3    10     1   ar
     4     4     3    1
     5     8     2    1
     6     1     2    1
     7     1     9   ar
     8     3     2    1
     9     3     5    1
    10     7     5    1
    11     5     6    1
