@<TRIPOS>MOLECULE
3vl6_IPM_A_1.pdb
 12 11 0 0 0
SMALL
GASTEIGER

@<TRIPOS>ATOM
      1  C1       -27.7200    4.0700  -21.4590 C.2   401  IPM401      0.3952
      2  C2       -29.0680    4.5340  -20.9720 C.3   401  IPM401      0.2645
      3  C3       -29.0450    6.0520  -20.9680 C.3   401  IPM401      0.1448
      4  C4       -28.7990    6.5840  -22.3520 C.2   401  IPM401      0.3674
      5  C5       -30.3050    6.6920  -20.4110 C.3   401  IPM401      0.0138
      6  C6       -30.5380    6.1630  -19.0090 C.3   401  IPM401      0.0007
      7  C7       -30.1720    8.2220  -20.3910 C.3   401  IPM401      0.0007
      8  O1       -30.0920    4.1960  -21.8810 O.3   401  IPM401     -0.2103
      9  O2       -26.7460    4.4630  -20.7850 O.co2 401  IPM401     -0.2428
     10  O3       -27.6210    3.3720  -22.4980 O.co2 401  IPM401     -0.2428
     11  O4       -27.6210    6.8600  -22.6570 O.co2 401  IPM401     -0.2456
     12  O5       -29.7560    6.7770  -23.1410 O.co2 401  IPM401     -0.2456
@<TRIPOS>BOND
     1    12     4   ar
     2    11     4   ar
     3    10     1   ar
     4     4     3    1
     5     8     2    1
     6     1     2    1
     7     1     9   ar
     8     2     3    1
     9     3     5    1
    10     5     7    1
    11     5     6    1
