@<TRIPOS>MOLECULE
3vl7_IPM_A_1.pdb
 12 11 0 0 0
SMALL
GASTEIGER

@<TRIPOS>ATOM
      1  C1       -27.7920    4.1190  -21.5040 C.2   401  IPM401      0.3952
      2  C2       -29.1560    4.6320  -21.0440 C.3   401  IPM401      0.2645
      3  C3       -29.1410    6.1400  -20.8980 C.3   401  IPM401      0.1448
      4  C4       -28.9300    6.7270  -22.2610 C.2   401  IPM401      0.3674
      5  C5       -30.4370    6.6840  -20.2960 C.3   401  IPM401      0.0138
      6  C6       -30.6980    6.2200  -18.8670 C.3   401  IPM401      0.0007
      7  C7       -30.4750    8.2030  -20.2820 C.3   401  IPM401      0.0007
      8  O1       -30.2630    4.2580  -21.8890 O.3   401  IPM401     -0.2103
      9  O2       -26.7910    4.6190  -20.9200 O.co2 401  IPM401     -0.2428
     10  O3       -27.6710    3.2260  -22.3970 O.co2 401  IPM401     -0.2428
     11  O4       -27.7650    7.0450  -22.5390 O.co2 401  IPM401     -0.2456
     12  O5       -29.8980    6.8960  -23.0640 O.co2 401  IPM401     -0.2456
@<TRIPOS>BOND
     1    12     4   ar
     2    11     4   ar
     3    10     1   ar
     4     4     3    1
     5     8     2    1
     6     1     2    1
     7     1     9   ar
     8     2     3    1
     9     3     5    1
    10     5     7    1
    11     5     6    1
