@<TRIPOS>MOLECULE
3vl9_BGC_A_1.pdb
 12 12 0 0 0
SMALL
GASTEIGER

@<TRIPOS>ATOM
      1  C2        -1.0470   33.5770   -0.6840 C.3   225  BGC225      0.2434
      2  C3         0.4050   33.7010   -1.1930 C.3   225  BGC225      0.2199
      3  C4         1.1150   32.3700   -1.3570 C.3   225  BGC225      0.2144
      4  C5         0.2370   31.4350   -2.1650 C.3   225  BGC225      0.1836
      5  C6         0.8110   30.0480   -2.2810 C.3   225  BGC225      0.2142
      6  C1        -1.7860   32.5890   -1.5620 C.3   225  BGC225      0.3024
      7  O1        -3.0410   32.3410   -1.0150 O.3   225  BGC225     -0.1869
      8  O2        -1.7000   34.8420   -0.7160 O.3   225  BGC225     -0.2148
      9  O3         1.1450   34.5680   -0.3180 O.3   225  BGC225     -0.2174
     10  O4         2.3300   32.5640   -2.1140 O.3   225  BGC225     -0.2176
     11  O5        -1.0660   31.3500   -1.5490 O.3   225  BGC225     -0.3236
     12  O6         0.9980   29.4320   -1.0050 O.3   225  BGC225     -0.2176
@<TRIPOS>BOND
     1     5     4    1
     2     5    12    1
     3     4    11    1
     4     4     3    1
     5    10     3    1
     6     6    11    1
     7     6     7    1
     8     6     1    1
     9     3     2    1
    10     2     1    1
    11     2     9    1
    12     8     1    1
