@<TRIPOS>MOLECULE
3vlc_ADP_A_1.pdb
 27 29 0 0 0
SMALL
GASTEIGER

@<TRIPOS>ATOM
      1  PB        16.2580   37.1860   38.1790 P.3   401  ADP401      0.5373
      2  O1B       14.9980   36.5090   37.9040 O.3   401  ADP401     -0.1143
      3  O2B       17.2590   37.0420   36.9290 O.2   401  ADP401     -0.2221
      4  O3B       16.9470   36.5560   39.4950 O.3   401  ADP401     -0.1143
      5  PA        14.9700   38.8920   39.6630 P.3   401  ADP401      0.2231
      6  O1A       13.6400   38.3510   39.2840 O.2   401  ADP401     -0.5169
      7  O2A       15.5310   38.1460   40.9850 O.3   401  ADP401     -0.4370
      8  O3A       16.0060   38.7270   38.4500 O.3   401  ADP401     -0.2261
      9  O5'       14.8570   40.4570   39.9110 O.3   401  ADP401     -0.3111
     10  C5'       13.9390   40.7160   40.9540 C.3   401  ADP401      0.1813
     11  C4'       13.9610   42.2090   41.1240 C.3   401  ADP401      0.1821
     12  O4'       13.6780   42.8530   39.8820 O.3   401  ADP401     -0.3135
     13  C3'       12.9640   42.6600   42.1820 C.3   401  ADP401      0.2184
     14  O3'       13.6590   43.2630   43.2640 O.3   401  ADP401     -0.2174
     15  C2'       12.0520   43.6470   41.4680 C.3   401  ADP401      0.2570
     16  O2'       12.1420   44.9140   42.0920 O.3   401  ADP401     -0.2130
     17  C1'       12.5640   43.7350   40.0380 C.3   401  ADP401      0.3186
     18  N9        11.5400   43.4030   39.0380 N.pl3 401  ADP401     -0.1439
     19  C8        11.2570   42.1640   38.5050 C.3   401  ADP401      0.3377
     20  N7        10.2890   42.2620   37.6260 N.2   401  ADP401     -0.2095
     21  C5         9.8860   43.5670   37.5350 C.2   401  ADP401      0.2526
     22  C6         8.9030   44.2980   36.7700 C.2   401  ADP401      0.4393
     23  N6         8.0790   43.6560   35.8480 N.pl3 401  ADP401      0.2180
     24  N1         8.7970   45.6370   36.9670 N.2   401  ADP401      0.0021
     25  C2         9.5780   46.2870   37.8480 C.3   401  ADP401      0.5254
     26  N3        10.5020   45.6500   38.5720 N.2   401  ADP401     -0.0055
     27  C4        10.6890   44.3110   38.4520 C.2   401  ADP401      0.3518
@<TRIPOS>BOND
     1    23    22    1
     2    22    24    2
     3    22    21    1
     4     3     1    2
     5    24    25    1
     6    21    20    2
     7    21    27    1
     8    20    19    1
     9    25    26    1
    10     2     1    1
    11     1     8    1
    12     1     4    1
    13     8     5    1
    14    27    26    2
    15    27    18    1
    16    19    18    1
    17    18    17    1
    18     6     5    2
    19     5     9    1
    20     5     7    1
    21    12    17    1
    22    12    11    1
    23     9    10    1
    24    17    15    1
    25    10    11    1
    26    11    13    1
    27    15    16    1
    28    15    13    1
    29    13    14    1
