@<TRIPOS>MOLECULE
3vlh_HEM_A_1.pdb
 43 50 0 0 0
SMALL
GASTEIGER

@<TRIPOS>ATOM
      1  CHA      137.1540   23.2990   51.6260 C.2   800  HEM800      0.0000
      2  CHB      139.7450   26.8660   50.0570 C.2   800  HEM800      0.0000
      3  CHC      140.0610   28.5510   54.2730 C.2   800  HEM800      0.0000
      4  CHD      137.5180   24.8960   55.9200 C.2   800  HEM800      0.0000
      5  C1A      137.7480   24.0830   50.6410 C.ar  800  HEM800      0.0000
      6  C2A      137.7390   23.9470   49.2070 C.ar  800  HEM800      0.0000
      7  C3A      138.4760   24.9600   48.6760 C.ar  800  HEM800      0.0000
      8  C4A      138.9670   25.7580   49.7860 C.ar  800  HEM800      0.0000
      9  CMA      138.9730   25.2970   47.3030 C.3   800  HEM800      0.0000
     10  CAA      137.0170   22.8330   48.4610 C.3   800  HEM800      0.0000
     11  CBA      135.5660   23.1340   47.9990 C.3   800  HEM800      0.0000
     12  CGA      135.1600   21.8770   47.4830 C.2   800  HEM800      0.0000
     13  O1A      135.5920   21.4950   46.3160 O.co2 800  HEM800      0.0000
     14  O2A      134.3840   21.0870   48.0630 O.co2 800  HEM800      0.0000
     15  C1B      140.2010   27.7750   51.0040 C.2   800  HEM800      0.0000
     16  C2B      141.1110   28.8980   50.9010 C.2   800  HEM800      0.0000
     17  C3B      141.2970   29.3450   52.1810 C.2   800  HEM800      0.0000
     18  C4B      140.4680   28.4330   52.9460 C.2   800  HEM800      0.0000
     19  CMB      141.7840   29.2720   49.6100 C.3   800  HEM800      0.0000
     20  CAB      142.0530   30.5800   52.6060 C.3   800  HEM800      0.0000
     21  CBB      141.5390   31.9290   52.0350 C.3   800  HEM800      0.0000
     22  C1C      139.2760   27.8900   55.1750 C.ar  800  HEM800      0.0000
     23  C2C      139.0640   28.2080   56.5750 C.ar  800  HEM800      0.0000
     24  C3C      138.3490   27.1700   57.0330 C.ar  800  HEM800      0.0000
     25  C4C      138.0570   26.1670   56.0450 C.ar  800  HEM800      0.0000
     26  CMC      139.4990   29.5170   57.2180 C.3   800  HEM800      0.0000
     27  CAC      137.5960   26.9600   58.3420 C.3   800  HEM800      0.0000
     28  CBC      138.3170   27.1950   59.6900 C.3   800  HEM800      0.0000
     29  C1D      137.1290   23.9550   54.9790 C.2   800  HEM800      0.0000
     30  C2D      136.5260   22.6550   55.2260 C.2   800  HEM800      0.0000
     31  C3D      136.5470   22.2060   53.9470 C.2   800  HEM800      0.0000
     32  C4D      137.1250   23.1840   53.0230 C.2   800  HEM800      0.0000
     33  CMD      136.3370   21.8970   56.5030 C.3   800  HEM800      0.0000
     34  CAD      136.1790   20.8320   53.4410 C.3   800  HEM800      0.0000
     35  CBD      134.6870   20.7130   52.9030 C.3   800  HEM800      0.0000
     36  CGD      134.1630   19.4280   52.6510 C.2   800  HEM800      0.0000
     37  O1D      133.0570   19.3320   52.0360 O.co2 800  HEM800      0.0000
     38  O2D      134.7820   18.3930   53.0350 O.co2 800  HEM800      0.0000
     39  NA       138.5040   25.1930   50.9510 N.ar  800  HEM800      0.0000
     40  NB       139.7670   27.4440   52.2710 N.2   800  HEM800      0.0000
     41  NC       138.6500   26.6590   54.9160 N.ar  800  HEM800      0.0000
     42  ND       137.5000   24.3090   53.6880 N.2   800  HEM800      0.0000
     43 FE        138.8020   25.7520   53.0350 Fe    800  HEM800      0.0000
@<TRIPOS>UNITY_ATOM_ATTR
43 1
charge 3
@<TRIPOS>BOND
     1    13    12   ar
     2     9     7    1
     3    12    11    1
     4    12    14   ar
     5    11    10    1
     6    10     6    1
     7     7     6   ar
     8     7     8   ar
     9     6     5   ar
    10    19    16    1
    11     8     2    2
    12     8    39   ar
    13     2    15    1
    14     5    39   ar
    15     5     1    2
    16    16    15    1
    17    16    17    2
    18    39    43    1
    19    15    40    2
    20     1    32    1
    21    21    20    1
    22    37    36   ar
    23    17    20    1
    24    17    18    1
    25    40    18    1
    26    40    43    1
    27    36    35    1
    28    36    38   ar
    29    35    34    1
    30    18     3    2
    31    32    42    2
    32    32    31    1
    33    43    42    1
    34    43    41    1
    35    34    31    1
    36    42    29    1
    37    31    30    2
    38     3    22    1
    39    41    22   ar
    40    41    25   ar
    41    29    30    1
    42    29     4    2
    43    22    23   ar
    44    30    33    1
    45     4    25    1
    46    25    24   ar
    47    23    24   ar
    48    23    26    1
    49    24    27    1
    50    27    28    1
