@<TRIPOS>MOLECULE
3vli_HEM_A_1.pdb
 43 50 0 0 0
SMALL
GASTEIGER

@<TRIPOS>ATOM
      1  CHA      136.5970  -17.5650   51.6810 C.2   800  HEM800      0.0000
      2  CHB      139.3690  -13.9410   50.0690 C.2   800  HEM800      0.0000
      3  CHC      139.6800  -12.0190   54.4560 C.2   800  HEM800      0.0000
      4  CHD      137.0630  -15.7960   56.1750 C.2   800  HEM800      0.0000
      5  C1A      137.2020  -16.5780   50.8810 C.ar  800  HEM800      0.0000
      6  C2A      137.3220  -16.6980   49.4450 C.ar  800  HEM800      0.0000
      7  C3A      138.1090  -15.8170   48.8260 C.ar  800  HEM800      0.0000
      8  C4A      138.5480  -15.0470   49.9880 C.ar  800  HEM800      0.0000
      9  CMA      138.4590  -15.3920   47.4110 C.3   800  HEM800      0.0000
     10  CAA      136.5910  -17.8060   48.6560 C.3   800  HEM800      0.0000
     11  CBA      135.1190  -17.6100   48.2140 C.3   800  HEM800      0.0000
     12  CGA      134.6560  -18.8430   47.6280 C.2   800  HEM800      0.0000
     13  O1A      135.1660  -19.1840   46.4470 O.co2 800  HEM800      0.0000
     14  O2A      133.8350  -19.5850   48.1570 O.co2 800  HEM800      0.0000
     15  C1B      139.7800  -13.0790   51.1010 C.2   800  HEM800      0.0000
     16  C2B      140.6550  -11.9230   50.9850 C.2   800  HEM800      0.0000
     17  C3B      140.7090  -11.4670   52.2620 C.2   800  HEM800      0.0000
     18  C4B      139.9070  -12.3020   53.1060 C.2   800  HEM800      0.0000
     19  CMB      141.2700  -11.5400   49.6510 C.3   800  HEM800      0.0000
     20  CAB      141.5910  -10.2790   52.6270 C.3   800  HEM800      0.0000
     21  CBB      142.9520   -9.7900   52.0970 C.3   800  HEM800      0.0000
     22  C1C      138.9270  -12.8520   55.2470 C.ar  800  HEM800      0.0000
     23  C2C      138.6370  -12.5320   56.6310 C.ar  800  HEM800      0.0000
     24  C3C      137.8580  -13.5040   57.0990 C.ar  800  HEM800      0.0000
     25  C4C      137.5650  -14.5200   56.1200 C.ar  800  HEM800      0.0000
     26  CMC      139.0780  -11.2400   57.3620 C.3   800  HEM800      0.0000
     27  CAC      137.1920  -13.7870   58.4610 C.3   800  HEM800      0.0000
     28  CBC      137.8580  -13.3510   59.7620 C.3   800  HEM800      0.0000
     29  C1D      136.7250  -16.6300   55.0980 C.2   800  HEM800      0.0000
     30  C2D      136.0890  -17.9180   55.2690 C.2   800  HEM800      0.0000
     31  C3D      136.0240  -18.3820   54.0050 C.2   800  HEM800      0.0000
     32  C4D      136.6070  -17.4160   53.0760 C.2   800  HEM800      0.0000
     33  CMD      135.7410  -18.5480   56.5970 C.3   800  HEM800      0.0000
     34  CAD      135.6560  -19.8070   53.5840 C.3   800  HEM800      0.0000
     35  CBD      134.1640  -19.9270   53.0040 C.3   800  HEM800      0.0000
     36  CGD      133.5690  -21.2350   52.7940 C.2   800  HEM800      0.0000
     37  O1D      134.2000  -22.2410   53.2900 O.co2 800  HEM800      0.0000
     38  O2D      132.4760  -21.2980   52.1670 O.co2 800  HEM800      0.0000
     39  NA       138.0020  -15.5130   51.1600 N.ar  800  HEM800      0.0000
     40  NB       139.3150  -13.3340   52.3570 N.2   800  HEM800      0.0000
     41  NC       138.2450  -14.0580   55.0060 N.ar  800  HEM800      0.0000
     42  ND       137.0300  -16.3370   53.7940 N.2   800  HEM800      0.0000
     43 FE        138.3450  -14.9140   53.1320 Fe    800  HEM800      0.0000
@<TRIPOS>UNITY_ATOM_ATTR
43 1
charge 3
@<TRIPOS>BOND
     1    13    12   ar
     2     9     7    1
     3    12    14   ar
     4    12    11    1
     5    11    10    1
     6    10     6    1
     7     7     6   ar
     8     7     8   ar
     9     6     5   ar
    10    19    16    1
    11     8     2    2
    12     8    39   ar
    13     2    15    1
    14     5    39   ar
    15     5     1    2
    16    16    15    1
    17    16    17    2
    18    15    40    2
    19    39    43    1
    20     1    32    1
    21    21    20    1
    22    38    36   ar
    23    17    20    1
    24    17    18    1
    25    40    18    1
    26    40    43    1
    27    36    35    1
    28    36    37   ar
    29    35    34    1
    30    32    42    2
    31    32    31    1
    32    18     3    2
    33    43    42    1
    34    43    41    1
    35    34    31    1
    36    42    29    1
    37    31    30    2
    38     3    22    1
    39    41    22   ar
    40    41    25   ar
    41    29    30    1
    42    29     4    2
    43    22    23   ar
    44    30    33    1
    45    25     4    1
    46    25    24   ar
    47    23    24   ar
    48    23    26    1
    49    24    27    1
    50    27    28    1
