@<TRIPOS>MOLECULE
3vlj_HEM_A_1.pdb
 43 50 0 0 0
SMALL
GASTEIGER

@<TRIPOS>ATOM
      1  CHA      136.4120  -17.4690   51.6790 C.2   800  HEM800      0.0000
      2  CHB      139.2410  -13.9740   50.0470 C.2   800  HEM800      0.0000
      3  CHC      139.4910  -12.1150   54.3200 C.2   800  HEM800      0.0000
      4  CHD      136.8080  -15.6790   56.1020 C.2   800  HEM800      0.0000
      5  C1A      137.0520  -16.6510   50.7500 C.ar  800  HEM800      0.0000
      6  C2A      137.1420  -16.7220   49.3170 C.ar  800  HEM800      0.0000
      7  C3A      137.9410  -15.7800   48.7540 C.ar  800  HEM800      0.0000
      8  C4A      138.3920  -15.0540   49.9320 C.ar  800  HEM800      0.0000
      9  CMA      138.2570  -15.4510   47.3200 C.3   800  HEM800      0.0000
     10  CAA      136.3900  -17.7900   48.5380 C.3   800  HEM800      0.0000
     11  CBA      134.8980  -17.5850   48.1990 C.3   800  HEM800      0.0000
     12  CGA      134.5500  -18.8050   47.5720 C.2   800  HEM800      0.0000
     13  O1A      134.9860  -19.1700   46.4090 O.co2 800  HEM800      0.0000
     14  O2A      133.7690  -19.5940   48.1370 O.co2 800  HEM800      0.0000
     15  C1B      139.5800  -13.0130   50.9930 C.2   800  HEM800      0.0000
     16  C2B      140.4720  -11.8870   50.8410 C.2   800  HEM800      0.0000
     17  C3B      140.6010  -11.4250   52.1110 C.2   800  HEM800      0.0000
     18  C4B      139.8020  -12.2650   52.9790 C.2   800  HEM800      0.0000
     19  CMB      140.9910  -11.4090   49.5100 C.3   800  HEM800      0.0000
     20  CAB      141.3330  -10.1790   52.5430 C.3   800  HEM800      0.0000
     21  CBB      142.7960   -9.8560   52.1630 C.3   800  HEM800      0.0000
     22  C1C      138.7330  -12.7670   55.2430 C.ar  800  HEM800      0.0000
     23  C2C      138.4640  -12.5110   56.6410 C.ar  800  HEM800      0.0000
     24  C3C      137.6890  -13.5190   57.0660 C.ar  800  HEM800      0.0000
     25  C4C      137.4260  -14.4470   56.0050 C.ar  800  HEM800      0.0000
     26  CMC      138.8940  -11.2210   57.3060 C.3   800  HEM800      0.0000
     27  CAC      137.1250  -13.6930   58.4750 C.3   800  HEM800      0.0000
     28  CBC      137.5860  -13.4130   59.9200 C.3   800  HEM800      0.0000
     29  C1D      136.6200  -16.6080   55.0890 C.2   800  HEM800      0.0000
     30  C2D      135.9710  -17.8960   55.2320 C.2   800  HEM800      0.0000
     31  C3D      135.8650  -18.4020   53.9830 C.2   800  HEM800      0.0000
     32  C4D      136.4520  -17.4180   53.0750 C.2   800  HEM800      0.0000
     33  CMD      135.6830  -18.5850   56.5320 C.3   800  HEM800      0.0000
     34  CAD      135.4460  -19.7970   53.5840 C.3   800  HEM800      0.0000
     35  CBD      133.9400  -19.8860   53.0840 C.3   800  HEM800      0.0000
     36  CGD      133.4850  -21.2040   52.8120 C.2   800  HEM800      0.0000
     37  O1D      132.3990  -21.3050   52.1580 O.co2 800  HEM800      0.0000
     38  O2D      134.0870  -22.2440   53.1920 O.co2 800  HEM800      0.0000
     39  NA       137.8600  -15.5820   51.0850 N.ar  800  HEM800      0.0000
     40  NB       139.1560  -13.2680   52.2810 N.2   800  HEM800      0.0000
     41  NC       138.0740  -13.9620   54.9060 N.ar  800  HEM800      0.0000
     42  ND       136.9030  -16.3370   53.7660 N.2   800  HEM800      0.0000
     43 FE        138.1960  -14.9060   53.0610 Fe    800  HEM800      0.0000
@<TRIPOS>UNITY_ATOM_ATTR
43 1
charge 3
@<TRIPOS>BOND
     1    13    12   ar
     2     9     7    1
     3    12    14   ar
     4    12    11    1
     5    11    10    1
     6    10     6    1
     7     7     6   ar
     8     7     8   ar
     9     6     5   ar
    10    19    16    1
    11     8     2    2
    12     8    39   ar
    13     2    15    1
    14     5    39   ar
    15     5     1    2
    16    16    15    1
    17    16    17    2
    18    15    40    2
    19    39    43    1
    20     1    32    1
    21    17    20    1
    22    17    18    1
    23    37    36   ar
    24    21    20    1
    25    40    18    1
    26    40    43    1
    27    36    35    1
    28    36    38   ar
    29    18     3    2
    30    43    42    1
    31    43    41    1
    32    32    42    2
    33    32    31    1
    34    35    34    1
    35    34    31    1
    36    42    29    1
    37    31    30    2
    38     3    22    1
    39    41    22   ar
    40    41    25   ar
    41    29    30    1
    42    29     4    2
    43    30    33    1
    44    22    23   ar
    45    25     4    1
    46    25    24   ar
    47    23    24   ar
    48    23    26    1
    49    24    27    1
    50    27    28    1
