@<TRIPOS>MOLECULE
3vlj_DDJ_A_1.pdb
 18 19 0 0 0
SMALL
GASTEIGER

@<TRIPOS>ATOM
      1  NAA      136.9580  -12.7640   45.7110 N.pl3 801  DDJ801     -0.1249
      2  OAB      135.7290  -13.7140   37.2690 O.3   801  DDJ801     -0.4701
      3  OAC      134.8760  -14.5300   45.4800 O.3   801  DDJ801     -0.4701
      4  CAD      135.4930  -13.5530   39.6340 C.ar  801  DDJ801      0.0383
      5  CAE      134.7400  -14.0480   43.1520 C.ar  801  DDJ801      0.0383
      6  CAF      135.3220  -13.8370   44.3970 C.ar  801  DDJ801      0.1553
      7  CAG      136.4050  -12.9740   44.5200 C.ar  801  DDJ801      0.1229
      8  CAH      135.2460  -13.4070   42.0260 C.ar  801  DDJ801      0.0032
      9  CAI      136.3320  -12.5470   42.1500 C.ar  801  DDJ801      0.0016
     10  CAJ      136.9100  -12.3290   43.3960 C.ar  801  DDJ801      0.0211
     11  CAK      134.9490  -13.8040   38.3790 C.ar  801  DDJ801      0.1553
     12  CAL      134.7050  -13.6760   40.7740 C.ar  801  DDJ801      0.0032
     13  CAM      133.6130  -14.1730   38.2630 C.ar  801  DDJ801      0.1229
     14  CAN      132.8250  -14.2960   39.4010 C.ar  801  DDJ801      0.0211
     15  CAO      133.3710  -14.0490   40.6560 C.ar  801  DDJ801      0.0016
     16  CAP      135.6710  -12.3860   36.7430 C.3   801  DDJ801      0.2525
     17  CAQ      133.7980  -13.8320   46.1070 C.3   801  DDJ801      0.2525
     18  NAR      133.0900  -14.4050   37.0620 N.pl3 801  DDJ801     -0.1249
@<TRIPOS>BOND
     1    16     2    1
     2    18    13    1
     3     2    11    1
     4    13    11   ar
     5    13    14   ar
     6    11     4   ar
     7    14    15   ar
     8     4    12   ar
     9    15    12   ar
    10    12     8    1
    11     8     9   ar
    12     8     5   ar
    13     9    10   ar
    14     5     6   ar
    15    10     7   ar
    16     6     7   ar
    17     6     3    1
    18     7     1    1
    19     3    17    1
