@<TRIPOS>MOLECULE
3vlk_HEM_A_1.pdb
 43 50 0 0 0
SMALL
GASTEIGER

@<TRIPOS>ATOM
      1  CHA       15.0800   -3.2180  -14.3610 C.2   800  HEM800      0.0000
      2  CHB       12.5060    0.2950  -12.7260 C.2   800  HEM800      0.0000
      3  CHC       12.2390    2.2210  -16.8560 C.2   800  HEM800      0.0000
      4  CHD       14.5010   -1.3740  -18.5800 C.2   800  HEM800      0.0000
      5  C1A       14.4590   -2.5370  -13.3360 C.2   800  HEM800      0.0000
      6  C2A       14.3790   -2.5430  -11.8980 C.2   800  HEM800      0.0000
      7  C3A       13.7090   -1.5290  -11.2880 C.2   800  HEM800      0.0000
      8  C4A       13.3200   -0.7940  -12.4900 C.2   800  HEM800      0.0000
      9  CMA       13.2180   -1.2530   -9.9020 C.3   800  HEM800      0.0000
     10  CAA       15.0500   -3.6880  -11.1640 C.3   800  HEM800      0.0000
     11  CBA       16.5270   -3.4970  -10.7390 C.3   800  HEM800      0.0000
     12  CGA       16.8360   -4.8070  -10.3100 C.2   800  HEM800      0.0000
     13  O1A       16.3450   -5.3470   -9.2280 O.co2 800  HEM800      0.0000
     14  O2A       17.6000   -5.6110  -10.8640 O.co2 800  HEM800      0.0000
     15  C1B       12.2040    1.3580  -13.5860 C.ar  800  HEM800      0.0000
     16  C2B       11.2820    2.4580  -13.3790 C.ar  800  HEM800      0.0000
     17  C3B       11.1280    3.0050  -14.6050 C.ar  800  HEM800      0.0000
     18  C4B       11.9640    2.2180  -15.5060 C.ar  800  HEM800      0.0000
     19  CMB       10.7800    2.9850  -12.0500 C.3   800  HEM800      0.0000
     20  CAB       10.4440    4.3000  -14.9690 C.3   800  HEM800      0.0000
     21  CBB        9.0290    4.6750  -14.5170 C.3   800  HEM800      0.0000
     22  C1C       12.8780    1.6590  -17.8870 C.2   800  HEM800      0.0000
     23  C2C       13.1650    1.9840  -19.2950 C.2   800  HEM800      0.0000
     24  C3C       13.8640    0.9500  -19.7690 C.2   800  HEM800      0.0000
     25  C4C       14.0610   -0.0580  -18.7470 C.2   800  HEM800      0.0000
     26  CMC       12.6350    3.2960  -19.7810 C.3   800  HEM800      0.0000
     27  CAC       14.6830    0.7090  -21.0540 C.3   800  HEM800      0.0000
     28  CBC       13.8660    0.9130  -22.3680 C.3   800  HEM800      0.0000
     29  C1D       14.8530   -2.4450  -17.7330 C.ar  800  HEM800      0.0000
     30  C2D       15.4740   -3.7190  -18.0720 C.ar  800  HEM800      0.0000
     31  C3D       15.5470   -4.1960  -16.8070 C.ar  800  HEM800      0.0000
     32  C4D       15.0180   -3.3030  -15.7630 C.ar  800  HEM800      0.0000
     33  CMD       15.8220   -4.5520  -19.2640 C.3   800  HEM800      0.0000
     34  CAD       15.8090   -5.5680  -16.2570 C.3   800  HEM800      0.0000
     35  CBD       17.3180   -5.7620  -15.8260 C.3   800  HEM800      0.0000
     36  CGD       17.6870   -7.0940  -15.5850 C.2   800  HEM800      0.0000
     37  O1D       16.9920   -8.1160  -15.9070 O.co2 800  HEM800      0.0000
     38  O2D       18.7840   -7.3360  -15.0170 O.co2 800  HEM800      0.0000
     39  NA        13.7670   -1.3990  -13.6460 N.2   800  HEM800      0.0000
     40  NB        12.6540    1.1650  -14.8730 N.ar  800  HEM800      0.0000
     41  NC        13.4540    0.4100  -17.6320 N.2   800  HEM800      0.0000
     42  ND        14.5830   -2.1900  -16.4000 N.ar  800  HEM800      0.0000
     43 FE         13.3300   -0.6470  -15.6400 Fe    800  HEM800      0.0000
@<TRIPOS>UNITY_ATOM_ATTR
43 1
charge 3
@<TRIPOS>BOND
     1    28    27    1
     2    27    24    1
     3    26    23    1
     4    24    23    2
     5    24    25    1
     6    23    22    1
     7    33    30    1
     8    25     4    1
     9    25    41    2
    10     4    29    2
    11    30    29   ar
    12    30    31   ar
    13    22    41    1
    14    22     3    2
    15    29    42   ar
    16    41    43    1
    17     3    18    1
    18    31    34    1
    19    31    32   ar
    20    42    32   ar
    21    42    43    1
    22    34    35    1
    23    37    36   ar
    24    35    36    1
    25    32     1    2
    26    43    40    1
    27    43    39    1
    28    36    38   ar
    29    18    40   ar
    30    18    17   ar
    31    20    17    1
    32    20    21    1
    33    40    15   ar
    34    17    16   ar
    35     1     5    1
    36    39     5    2
    37    39     8    1
    38    15    16   ar
    39    15     2    1
    40    16    19    1
    41     5     6    1
    42     2     8    2
    43     8     7    1
    44     6     7    2
    45     6    10    1
    46     7     9    1
    47    10    11    1
    48    14    12   ar
    49    11    12    1
    50    12    13   ar
