@<TRIPOS>MOLECULE
3vll_SHA_A_1.pdb
 11 11 0 0 0
SMALL
GASTEIGER

@<TRIPOS>ATOM
      1  C1        94.7570   74.5030   34.7740 C.ar  801  SHA801      0.0616
      2  C2        95.2140   75.8020   34.3950 C.ar  801  SHA801      0.0051
      3  C3        95.0750   76.2490   33.0690 C.ar  801  SHA801      0.0003
      4  C4        94.4460   75.4470   32.1000 C.ar  801  SHA801      0.0033
      5  C5        93.9730   74.1650   32.4380 C.ar  801  SHA801      0.0421
      6  C6        94.0930   73.6840   33.7690 C.ar  801  SHA801      0.1975
      7  O6        93.6360   72.4520   34.0690 O.3   801  SHA801     -0.2865
      8  C7        94.9060   74.0520   36.2050 C.2   801  SHA801      0.1132
      9  O7        94.5060   72.9440   36.5470 O.2   801  SHA801     -0.5359
     10  N8        95.5130   74.8590   37.1170 N.am  801  SHA801     -0.1983
     11  O9        95.6620   74.4240   38.4600 O.3   801  SHA801     -0.4024
@<TRIPOS>BOND
     1     4     5   ar
     2     4     3   ar
     3     5     6   ar
     4     3     2   ar
     5     6     7    1
     6     6     1   ar
     7     2     1   ar
     8     1     8    1
     9     8     9    2
    10     8    10   am
    11    10    11    1
