@<TRIPOS>MOLECULE
3vll_HEM_A_1.pdb
 43 50 0 0 0
SMALL
GASTEIGER

@<TRIPOS>ATOM
      1  CHA       94.0070   79.7700   38.8770 C.2   800  HEM800      0.0000
      2  CHB       92.1000   75.5800   38.9280 C.2   800  HEM800      0.0000
      3  CHC       93.7830   74.9410   43.0060 C.2   800  HEM800      0.0000
      4  CHD       95.6240   79.0390   42.9880 C.2   800  HEM800      0.0000
      5  C1A       93.2620   78.8170   38.1960 C.ar  800  HEM800      0.0000
      6  C2A       92.6490   78.4570   36.9350 C.ar  800  HEM800      0.0000
      7  C3A       92.0240   77.2510   36.8710 C.ar  800  HEM800      0.0000
      8  C4A       92.2460   76.7600   38.2310 C.ar  800  HEM800      0.0000
      9  CMA       91.3510   76.5690   35.7160 C.3   800  HEM800      0.0000
     10  CAA       92.8250   79.5350   35.8740 C.3   800  HEM800      0.0000
     11  CBA       94.1800   79.5680   35.1190 C.3   800  HEM800      0.0000
     12  CGA       94.1570   80.8430   34.5130 C.2   800  HEM800      0.0000
     13  O1A       93.7570   80.9830   33.2850 O.co2 800  HEM800      0.0000
     14  O2A       94.4670   81.9670   34.9570 O.co2 800  HEM800      0.0000
     15  C1B       92.1110   74.8160   40.1050 C.2   800  HEM800      0.0000
     16  C2B       91.6100   73.4830   40.3740 C.2   800  HEM800      0.0000
     17  C3B       92.2610   73.2490   41.5460 C.2   800  HEM800      0.0000
     18  C4B       93.0920   74.3930   41.9210 C.2   800  HEM800      0.0000
     19  CMB       90.7000   72.6920   39.4450 C.3   800  HEM800      0.0000
     20  CAB       92.0400   72.0400   42.4010 C.3   800  HEM800      0.0000
     21  CBB       90.8480   71.1470   42.8520 C.3   800  HEM800      0.0000
     22  C1C       94.5950   75.8620   43.6240 C.ar  800  HEM800      0.0000
     23  C2C       95.3240   75.9770   44.8650 C.ar  800  HEM800      0.0000
     24  C3C       95.9140   77.1820   44.8550 C.ar  800  HEM800      0.0000
     25  C4C       95.5560   77.8060   43.6140 C.ar  800  HEM800      0.0000
     26  CMC       95.4470   74.7570   45.7620 C.3   800  HEM800      0.0000
     27  CAC       97.0170   77.8870   45.6330 C.3   800  HEM800      0.0000
     28  CBC       96.9920   77.6140   47.1650 C.3   800  HEM800      0.0000
     29  C1D       95.4390   79.9520   41.9530 C.2   800  HEM800      0.0000
     30  C2D       95.6730   81.3850   41.8290 C.2   800  HEM800      0.0000
     31  C3D       95.0800   81.5950   40.6310 C.2   800  HEM800      0.0000
     32  C4D       94.5070   80.3870   40.0290 C.2   800  HEM800      0.0000
     33  CMD       96.2680   82.4340   42.7130 C.3   800  HEM800      0.0000
     34  CAD       94.7980   82.8070   39.7850 C.3   800  HEM800      0.0000
     35  CBD       96.1080   83.2270   38.9940 C.3   800  HEM800      0.0000
     36  CGD       95.9390   84.4210   38.2710 C.2   800  HEM800      0.0000
     37  O1D       95.0440   85.3300   38.3060 O.co2 800  HEM800      0.0000
     38  O2D       96.8040   84.7090   37.4100 O.co2 800  HEM800      0.0000
     39  NA        92.9590   77.6940   38.9430 N.ar  800  HEM800      0.0000
     40  NB        92.9930   75.4100   40.9820 N.2   800  HEM800      0.0000
     41  NC        94.7420   77.0120   42.8360 N.ar  800  HEM800      0.0000
     42  ND        94.7570   79.3700   40.8990 N.2   800  HEM800      0.0000
     43 FE         93.8050   77.4140   40.9110 Fe    800  HEM800      0.0000
@<TRIPOS>BOND
     1    13    12   ar
     2    12    14   ar
     3    12    11    1
     4    11    10    1
     5     9     7    1
     6    10     6    1
     7     7     6   ar
     8     7     8   ar
     9     6     5   ar
    10    38    36   ar
    11     5     1    2
    12     5    39   ar
    13     8     2    2
    14     8    39   ar
    15    36    37   ar
    16    36    35    1
    17     1    32    1
    18     2    15    1
    19    39    43    1
    20    35    34    1
    21    19    16    1
    22    34    31    1
    23    32    31    1
    24    32    42    2
    25    15    16    1
    26    15    40    2
    27    16    17    2
    28    31    30    2
    29    42    43    1
    30    42    29    1
    31    43    40    1
    32    43    41    1
    33    40    18    1
    34    17    18    1
    35    17    20    1
    36    30    29    1
    37    30    33    1
    38    18     3    2
    39    29     4    2
    40    20    21    1
    41    41    25   ar
    42    41    22   ar
    43     4    25    1
    44     3    22    1
    45    25    24   ar
    46    22    23   ar
    47    24    23   ar
    48    24    27    1
    49    23    26    1
    50    27    28    1
