@<TRIPOS>MOLECULE
3vlm_HEM_A_1.pdb
 43 50 0 0 0
SMALL
GASTEIGER

@<TRIPOS>ATOM
      1  CHA      142.8240  -17.6640   13.9980 C.2   800  HEM800      0.0000
      2  CHB      145.7630  -14.2090   12.7130 C.2   800  HEM800      0.0000
      3  CHC      146.0990  -12.2780   17.1470 C.2   800  HEM800      0.0000
      4  CHD      143.1470  -15.7320   18.4690 C.2   800  HEM800      0.0000
      5  C1A      143.5200  -16.8340   13.1880 C.ar  800  HEM800      0.0000
      6  C2A      143.5730  -16.8660   11.7520 C.ar  800  HEM800      0.0000
      7  C3A      144.4220  -15.9290   11.4270 C.ar  800  HEM800      0.0000
      8  C4A      144.9160  -15.2570   12.6320 C.ar  800  HEM800      0.0000
      9  CMA      144.7780  -15.5770    9.9820 C.3   800  HEM800      0.0000
     10  CAA      142.8850  -17.8090   10.7850 C.3   800  HEM800      0.0000
     11  CBA      141.3850  -17.7080   10.8500 C.3   800  HEM800      0.0000
     12  CGA      140.9120  -18.9000   10.1230 C.2   800  HEM800      0.0000
     13  O1A      141.3580  -19.1360    8.9540 O.co2 800  HEM800      0.0000
     14  O2A      140.0750  -19.6260   10.6870 O.co2 800  HEM800      0.0000
     15  C1B      146.0400  -13.4060   13.7740 C.2   800  HEM800      0.0000
     16  C2B      146.7810  -12.1590   13.6360 C.2   800  HEM800      0.0000
     17  C3B      146.8720  -11.6190   14.8590 C.2   800  HEM800      0.0000
     18  C4B      146.1900  -12.5100   15.7860 C.2   800  HEM800      0.0000
     19  CMB      147.3350  -11.6130   12.2880 C.3   800  HEM800      0.0000
     20  CAB      147.5320  -10.3020   15.3010 C.2   800  HEM800      0.0000
     21  CBB      148.7650   -9.9360   14.9550 C.2   800  HEM800      0.0000
     22  C1C      145.2520  -12.9950   17.9130 C.ar  800  HEM800      0.0000
     23  C2C      144.8720  -12.6800   19.2380 C.ar  800  HEM800      0.0000
     24  C3C      144.0460  -13.6500   19.6330 C.ar  800  HEM800      0.0000
     25  C4C      143.8770  -14.5960   18.5070 C.ar  800  HEM800      0.0000
     26  CMC      145.4060  -11.4100   19.8930 C.3   800  HEM800      0.0000
     27  CAC      143.3280  -13.7690   21.0070 C.2   800  HEM800      0.0000
     28  CBC      143.8960  -13.1020   22.0110 C.2   800  HEM800      0.0000
     29  C1D      142.8800  -16.6380   17.4630 C.2   800  HEM800      0.0000
     30  C2D      142.2880  -17.9580   17.6270 C.2   800  HEM800      0.0000
     31  C3D      142.2520  -18.5390   16.2150 C.2   800  HEM800      0.0000
     32  C4D      142.7580  -17.5300   15.3570 C.2   800  HEM800      0.0000
     33  CMD      141.8390  -18.7100   18.8600 C.3   800  HEM800      0.0000
     34  CAD      141.7220  -19.8940   15.7270 C.3   800  HEM800      0.0000
     35  CBD      140.2340  -19.9600   15.9680 C.3   800  HEM800      0.0000
     36  CGD      139.8840  -21.3550   15.6000 C.2   800  HEM800      0.0000
     37  O1D      138.7110  -21.5600   15.2210 O.co2 800  HEM800      0.0000
     38  O2D      140.8080  -22.2120   15.6940 O.co2 800  HEM800      0.0000
     39  NA       144.3360  -15.8570   13.6610 N.ar  800  HEM800      0.0000
     40  NB       145.6960  -13.6210   15.1310 N.2   800  HEM800      0.0000
     41  NC       144.6470  -14.1520   17.5170 N.ar  800  HEM800      0.0000
     42  ND       143.1840  -16.4530   16.0820 N.2   800  HEM800      0.0000
     43 FE        144.4220  -14.9970   15.5690 Fe    800  HEM800      0.0000
@<TRIPOS>UNITY_ATOM_ATTR
43 1
charge 3
@<TRIPOS>BOND
     1    13    12   ar
     2     9     7    1
     3    12    14   ar
     4    12    11    1
     5    10    11    1
     6    10     6    1
     7     7     6   ar
     8     7     8   ar
     9     6     5   ar
    10    19    16    1
    11     8     2    2
    12     8    39   ar
    13     2    15    1
    14     5    39   ar
    15     5     1    2
    16    16    15    1
    17    16    17    2
    18    39    43    1
    19    15    40    2
    20     1    32    1
    21    17    20    1
    22    17    18    1
    23    21    20    2
    24    40    43    1
    25    40    18    1
    26    37    36   ar
    27    32    42    2
    28    32    31    1
    29    43    42    1
    30    43    41    1
    31    36    38   ar
    32    36    35    1
    33    34    35    1
    34    34    31    1
    35    18     3    2
    36    42    29    1
    37    31    30    2
    38     3    22    1
    39    29    30    1
    40    29     4    2
    41    41    22   ar
    42    41    25   ar
    43    30    33    1
    44    22    23   ar
    45     4    25    1
    46    25    24   ar
    47    23    24   ar
    48    23    26    1
    49    24    27    1
    50    27    28    2
