@<TRIPOS>MOLECULE
3vln_ASC_A_1.pdb
 12 12 0 0 0
SMALL
GASTEIGER

@<TRIPOS>ATOM
      1  C1        13.8410   -9.4600   16.1420 C.2   904  ASC904      0.3557
      2  C2        14.8560   -9.6630   15.1330 C.3   904  ASC904      0.3096
      3  C3        15.1490  -10.9230   15.2410 C.2   904  ASC904      0.2342
      4  C4        14.2420  -11.6520   16.1990 C.3   904  ASC904      0.2612
      5  C5        14.8450  -12.9880   16.6620 C.3   904  ASC904      0.2318
      6  C6        15.2830  -13.2010   18.1140 C.3   904  ASC904      0.2190
      7  O1        13.1400   -8.4660   16.2640 O.2   904  ASC904     -0.2468
      8  O2        15.3960   -8.8120   14.2700 O.3   904  ASC904     -0.2028
      9  O3        16.0420  -11.4970   14.5510 O.2   904  ASC904     -0.2889
     10  O4        13.7670  -10.6140   17.0340 O.3   904  ASC904     -0.4397
     11  O5        15.9340  -13.3290   15.7250 O.3   904  ASC904     -0.2159
     12  O6        14.7980  -14.2890   18.8900 O.3   904  ASC904     -0.2174
@<TRIPOS>BOND
     1     8     2    1
     2     9     3    2
     3     2     3    1
     4     2     1    1
     5     3     4    1
     6    11     5    1
     7     1     7    2
     8     1    10    1
     9     4     5    1
    10     4    10    1
    11     5     6    1
    12     6    12    1
