@<TRIPOS>MOLECULE
3vlu_BEM_A_1.pdb
 12 12 0 0 0
SMALL
GASTEIGER

@<TRIPOS>ATOM
      1  C1        14.8930    0.4200   24.3630 C.3   503  BEM503      0.1783
      2  C2        16.4180    0.5590   24.3250 C.3   503  BEM503      0.2141
      3  O2        16.7960    1.9000   24.6560 O.3   503  BEM503     -0.2176
      4  C3        17.0310   -0.4070   25.3400 C.3   503  BEM503      0.2178
      5  O3        18.4540   -0.3010   25.3290 O.3   503  BEM503     -0.2175
      6  C4        16.4750   -0.1160   26.7380 C.3   503  BEM503      0.2227
      7  O4        17.0180   -1.0330   27.6790 O.3   503  BEM503     -0.2171
      8  C5        14.9480   -0.2630   26.6930 C.3   503  BEM503      0.2512
      9  O5        14.3870    0.6430   25.7120 O.3   503  BEM503     -0.3403
     10  C6        14.2870    0.0230   28.0380 C.2   503  BEM503      0.3940
     11  O6A       13.4450    0.9460   28.0740 O.co2 503  BEM503     -0.2429
     12  O6B       14.5960   -0.6990   29.0110 O.co2 503  BEM503     -0.2429
@<TRIPOS>BOND
     1     2     1    1
     2     2     3    1
     3     2     4    1
     4     1     9    1
     5     5     4    1
     6     4     6    1
     7     9     8    1
     8     8     6    1
     9     8    10    1
    10     6     7    1
    11    10    11   ar
    12    10    12   ar
