@<TRIPOS>MOLECULE
3vlv_MAW_A_1.pdb
 11 11 0 0 0
SMALL
GASTEIGER

@<TRIPOS>ATOM
      1  C1        14.6990    0.1510   24.3520 C.3   504  MAW504      0.2413
      2  C2        16.2020    0.2660   24.2620 C.3   504  MAW504      0.2297
      3  O2        16.6140    1.5840   24.6840 O.3   504  MAW504     -0.2160
      4  C3        16.8050   -0.7870   25.1830 C.3   504  MAW504      0.2111
      5  O3        18.2070   -0.5210   25.3200 O.3   504  MAW504     -0.2153
      6  C4        16.1670   -0.8020   26.4430 C.2   504  MAW504      0.0526
      7  C5        14.9390   -0.1620   26.6630 C.2   504  MAW504      0.2164
      8  O5        14.2870    0.5300   25.6800 O.2   504  MAW504     -0.4664
      9  C6        14.2900   -0.1430   27.8980 C.2   504  MAW504      0.4208
     10  O6A       13.2190    0.4910   28.0110 O.co2 504  MAW504     -0.2371
     11  O6B       14.7470   -0.7600   28.8850 O.co2 504  MAW504     -0.2371
@<TRIPOS>BOND
     1     2     1    1
     2     2     3    1
     3     2     4    1
     4     1     8    1
     5     4     5    1
     6     4     6    1
     7     8     7    1
     8     6     7    2
     9     7     9    1
    10     9    10   ar
    11     9    11   ar
