@<TRIPOS>MOLECULE
3vlv_LGU_A_1.pdb
 12 12 0 0 0
SMALL
GASTEIGER

@<TRIPOS>ATOM
      1  C1        11.9670    3.5880   22.3200 C.3   505  LGU505      0.1783
      2  C2        11.8500    3.0300   23.7460 C.3   505  LGU505      0.2141
      3  O2        10.7160    3.6100   24.4130 O.3   505  LGU505     -0.2176
      4  C3        11.7380    1.4910   23.7320 C.3   505  LGU505      0.2178
      5  O3        10.4730    1.0620   23.1800 O.3   505  LGU505     -0.2175
      6  C4        12.8910    0.8910   22.9150 C.3   505  LGU505      0.2227
      7  O4        14.1460    1.1870   23.5380 O.3   505  LGU505     -0.2171
      8  C5        12.8930    1.4880   21.5150 C.3   505  LGU505      0.2512
      9  O5        13.0440    2.9340   21.5950 O.3   505  LGU505     -0.3403
     10  C6        14.0360    0.8880   20.7020 C.2   505  LGU505      0.3940
     11  O6A       13.8330   -0.2300   20.1840 O.co2 505  LGU505     -0.2429
     12  O6B       15.0890    1.5560   20.6240 O.co2 505  LGU505     -0.2429
@<TRIPOS>BOND
     1    11    10   ar
     2    12    10   ar
     3    10     8    1
     4     8     9    1
     5     8     6    1
     6     9     1    1
     7     1     2    1
     8     6     7    1
     9     6     4    1
    10     5     4    1
    11     4     2    1
    12     2     3    1
