@<TRIPOS>MOLECULE
3vlw_BEM_A_1.pdb
 12 12 0 0 0
SMALL
GASTEIGER

@<TRIPOS>ATOM
      1  C1        30.3820   -0.1870   27.6030 C.3   504  BEM504      0.1783
      2  C2        29.4250   -0.2670   26.4050 C.3   504  BEM504      0.2141
      3  O2        28.9470   -1.6190   26.2400 O.3   504  BEM504     -0.2176
      4  C3        28.2490    0.6680   26.6570 C.3   504  BEM504      0.2178
      5  O3        27.3260    0.6110   25.5470 O.3   504  BEM504     -0.2175
      6  C4        27.5530    0.2840   27.9670 C.3   504  BEM504      0.2227
      7  O4        26.4700    1.1740   28.2290 O.3   504  BEM504     -0.2171
      8  C5        28.5830    0.3740   29.1070 C.3   504  BEM504      0.2512
      9  O5        29.6830   -0.5320   28.8340 O.3   504  BEM504     -0.3403
     10  C6        27.9470    0.0620   30.4670 C.2   504  BEM504      0.3940
     11  O6A       27.0190    0.8100   30.8490 O.co2 504  BEM504     -0.2429
     12  O6B       28.4320   -0.8920   31.1150 O.co2 504  BEM504     -0.2429
@<TRIPOS>BOND
     1     5     4    1
     2     3     2    1
     3     2     4    1
     4     2     1    1
     5     4     6    1
     6     1     9    1
     7     6     7    1
     8     6     8    1
     9     9     8    1
    10     8    10    1
    11    10    11   ar
    12    10    12   ar
