@<TRIPOS>MOLECULE
3vlw_LGU_A_1.pdb
 13 13 0 0 0
SMALL
GASTEIGER

@<TRIPOS>ATOM
      1  C1        33.4290   -3.9680   28.2510 C.3   505  LGU505      0.3028
      2  C2        32.4320   -3.4280   29.3030 C.3   505  LGU505      0.2435
      3  O2        32.5810   -4.1320   30.5430 O.3   505  LGU505     -0.2148
      4  C3        32.6350   -1.9270   29.5360 C.3   505  LGU505      0.2204
      5  O3        33.8870   -1.6890   30.2230 O.3   505  LGU505     -0.2174
      6  C4        32.6060   -1.1720   28.1980 C.3   505  LGU505      0.2229
      7  O4        31.3010   -1.2790   27.6080 O.3   505  LGU505     -0.2171
      8  C5        33.6340   -1.7550   27.2300 C.3   505  LGU505      0.2530
      9  O5        33.3600   -3.1680   27.0290 O.3   505  LGU505     -0.3149
     10  C6        33.5540   -1.0060   25.8930 C.2   505  LGU505      0.3941
     11  O6A       32.8250   -1.4960   25.0050 O.co2 505  LGU505     -0.2429
     12  O6B       34.2140    0.0520   25.7960 O.co2 505  LGU505     -0.2429
     13  O1        34.7750   -3.9840   28.7860 O.3   505  LGU505     -0.1869
@<TRIPOS>BOND
     1    11    10   ar
     2    12    10   ar
     3    10     8    1
     4     9     8    1
     5     9     1    1
     6     8     6    1
     7     7     6    1
     8     6     4    1
     9     1    13    1
    10     1     2    1
    11     2     4    1
    12     2     3    1
    13     4     5    1
