@<TRIPOS>MOLECULE
3vm4_HEM_A_1.pdb
 43 50 0 0 0
SMALL
GASTEIGER

@<TRIPOS>ATOM
      1  CHA       13.2290  -39.5870  -21.3540 C.2   501  HEM501      0.0000
      2  CHB       12.3410  -38.2220  -16.7810 C.2   501  HEM501      0.0000
      3  CHC       14.2990  -42.3780  -15.2050 C.2   501  HEM501      0.0000
      4  CHD       15.3380  -43.7000  -19.7270 C.2   501  HEM501      0.0000
      5  C1A       12.7990  -38.8610  -20.2620 C.2   501  HEM501      0.0000
      6  C2A       12.1360  -37.5720  -20.3060 C.2   501  HEM501      0.0000
      7  C3A       11.8820  -37.1970  -19.0380 C.2   501  HEM501      0.0000
      8  C4A       12.3840  -38.2340  -18.1570 C.2   501  HEM501      0.0000
      9  CMA       11.1900  -35.8980  -18.5740 C.3   501  HEM501      0.0000
     10  CAA       11.8580  -36.7700  -21.5920 C.3   501  HEM501      0.0000
     11  CBA       10.4500  -36.8430  -22.1640 C.3   501  HEM501      0.0000
     12  CGA       10.4530  -36.0580  -23.4690 C.2   501  HEM501      0.0000
     13  O1A        9.3480  -35.7250  -23.9710 O.co2 501  HEM501      0.0000
     14  O2A       11.5450  -35.7510  -24.0360 O.co2 501  HEM501      0.0000
     15  C1B       12.9150  -39.1580  -15.9370 C.ar  501  HEM501      0.0000
     16  C2B       13.0650  -39.0570  -14.4970 C.ar  501  HEM501      0.0000
     17  C3B       13.6270  -40.2040  -14.0630 C.ar  501  HEM501      0.0000
     18  C4B       13.8230  -41.0760  -15.2140 C.ar  501  HEM501      0.0000
     19  CMB       12.6910  -37.8290  -13.6150 C.3   501  HEM501      0.0000
     20  CAB       13.9810  -40.5250  -12.5920 C.2   501  HEM501      0.0000
     21  CBB       15.1580  -41.0870  -12.2570 C.2   501  HEM501      0.0000
     22  C1C       14.6400  -43.1670  -16.2730 C.2   501  HEM501      0.0000
     23  C2C       15.0930  -44.5500  -16.2350 C.2   501  HEM501      0.0000
     24  C3C       15.3950  -44.9260  -17.4950 C.2   501  HEM501      0.0000
     25  C4C       15.1390  -43.7820  -18.3620 C.2   501  HEM501      0.0000
     26  CMC       15.2170  -45.4400  -14.9730 C.3   501  HEM501      0.0000
     27  CAC       15.9220  -46.3330  -17.9000 C.2   501  HEM501      0.0000
     28  CBC       15.6850  -46.8610  -19.1100 C.2   501  HEM501      0.0000
     29  C1D       14.9530  -42.6770  -20.5610 C.ar  501  HEM501      0.0000
     30  C2D       15.2390  -42.6280  -21.9810 C.ar  501  HEM501      0.0000
     31  C3D       14.5810  -41.3570  -22.4820 C.ar  501  HEM501      0.0000
     32  C4D       13.9570  -40.7610  -21.3280 C.ar  501  HEM501      0.0000
     33  CMD       16.0560  -43.6470  -22.8090 C.3   501  HEM501      0.0000
     34  CAD       14.5610  -40.8340  -23.9310 C.3   501  HEM501      0.0000
     35  CBD       13.2600  -41.4090  -24.5350 C.3   501  HEM501      0.0000
     36  CGD       13.0110  -40.8050  -25.9050 C.2   501  HEM501      0.0000
     37  O1D       12.2010  -41.3630  -26.6800 O.co2 501  HEM501      0.0000
     38  O2D       13.6230  -39.7480  -26.2260 O.co2 501  HEM501      0.0000
     39  NA        12.9100  -39.2420  -18.9370 N.2   501  HEM501      0.0000
     40  NB        13.3770  -40.4060  -16.3320 N.ar  501  HEM501      0.0000
     41  NC        14.6450  -42.7600  -17.5930 N.2   501  HEM501      0.0000
     42  ND        14.1800  -41.5830  -20.2140 N.ar  501  HEM501      0.0000
     43 FE         13.7090  -41.0330  -18.2740 Fe    501  HEM501      0.0000
@<TRIPOS>BOND
     1    37    36   ar
     2    38    36   ar
     3    36    35    1
     4    35    34    1
     5    14    12   ar
     6    13    12   ar
     7    34    31    1
     8    12    11    1
     9    33    30    1
    10    31    30   ar
    11    31    32   ar
    12    11    10    1
    13    30    29   ar
    14    10     6    1
    15     1    32    2
    16     1     5    1
    17    32    42   ar
    18    29    42   ar
    19    29     4    2
    20     6     5    1
    21     6     7    2
    22     5    39    2
    23    42    43    1
    24     4    25    1
    25    28    27    2
    26     7     9    1
    27     7     8    1
    28    39    43    1
    29    39     8    1
    30    25    41    2
    31    25    24    1
    32    43    41    1
    33    43    40    1
    34     8     2    2
    35    27    24    1
    36    41    22    1
    37    24    23    2
    38     2    15    1
    39    40    15   ar
    40    40    18   ar
    41    22    23    1
    42    22     3    2
    43    23    26    1
    44    15    16   ar
    45    18     3    1
    46    18    17   ar
    47    16    17   ar
    48    16    19    1
    49    17    20    1
    50    20    21    2
