@<TRIPOS>MOLECULE
3vm4_IZP_A_1.pdb
 15 15 0 0 0
SMALL
GASTEIGER

@<TRIPOS>ATOM
      1  C1        18.7520  -38.6850  -16.1810 C.2     1  IZP1        0.3683
      2  O1        18.2140  -38.7160  -17.3110 O.co2   1  IZP1       -0.2453
      3  C2        18.3780  -32.2760  -14.5700 C.3     1  IZP1        0.0263
      4  O2        19.9090  -39.0860  -15.9500 O.co2   1  IZP1       -0.2453
      5  C3        19.3200  -31.5780  -15.5670 C.3     1  IZP1        0.0044
      6  C4        20.7220  -32.1980  -15.6820 C.3     1  IZP1        0.0003
      7  C5        18.6870  -31.3880  -16.9440 C.3     1  IZP1        0.0003
      8  C6        17.9520  -38.1450  -14.9620 C.3     1  IZP1        0.1256
      9  C7        16.4900  -38.6310  -15.0180 C.3     1  IZP1        0.0166
     10  C8        18.0350  -36.6010  -14.8750 C.ar    1  IZP1       -0.0118
     11  C9        17.4070  -35.7870  -15.8260 C.ar    1  IZP1       -0.0041
     12  C10       17.5140  -34.4030  -15.7290 C.ar    1  IZP1       -0.0046
     13  C11       18.2670  -33.8100  -14.6930 C.ar    1  IZP1       -0.0222
     14  C12       18.8860  -34.6220  -13.7530 C.ar    1  IZP1       -0.0046
     15  C13       18.7770  -36.0130  -13.8480 C.ar    1  IZP1       -0.0041
@<TRIPOS>BOND
     1     2     1   ar
     2     7     5    1
     3     1     4   ar
     4     1     8    1
     5    11    12   ar
     6    11    10   ar
     7    12    13   ar
     8     6     5    1
     9     5     3    1
    10     9     8    1
    11     8    10    1
    12    10    15   ar
    13    13     3    1
    14    13    14   ar
    15    15    14   ar
