@<TRIPOS>MOLECULE
3vm6_RI2_A_1.pdb
 18 18 0 0 0
SMALL
GASTEIGER

@<TRIPOS>ATOM
      1  P         60.6930   55.4850   19.8770 P.3   401  RI2401      0.5327
      2  C1        58.8880   58.9880   16.3250 C.3   401  RI2401      0.2781
      3  O1        58.0070   60.0670   15.9640 O.3   401  RI2401     -0.2416
      4  C2        58.9220   57.9730   15.1800 C.3   401  RI2401      0.2409
      5  O2        57.7020   58.0540   14.4360 O.3   401  RI2401     -0.2149
      6  C3        59.0570   56.6320   15.9200 C.3   401  RI2401      0.2167
      7  O3        58.5530   55.5380   15.1480 O.3   401  RI2401     -0.2175
      8  C4        58.2260   56.8570   17.2000 C.3   401  RI2401      0.1808
      9  O4        58.3750   58.2760   17.5060 O.3   401  RI2401     -0.3254
     10  C5        58.7360   55.9960   18.3700 C.3   401  RI2401      0.1859
     11  O5        60.1200   56.2900   18.5950 O.3   401  RI2401     -0.2675
     12  PA        58.7930   61.4820   16.0380 P.3   401  RI2401      0.5346
     13  O1A       58.9920   61.8900   17.4460 O.3   401  RI2401     -0.1145
     14  O1P       60.6810   54.0300   19.6410 O.2   401  RI2401     -0.2224
     15  O2A       57.9890   62.5240   15.3730 O.2   401  RI2401     -0.2223
     16  O2P       62.0890   55.8880   20.1070 O.3   401  RI2401     -0.1145
     17  O3A       60.1080   61.3800   15.3740 O.3   401  RI2401     -0.1145
     18  O3P       59.8940   55.7950   21.0790 O.3   401  RI2401     -0.1145
@<TRIPOS>BOND
     1     5     4    1
     2     7     6    1
     3     4     6    1
     4     4     2    1
     5    15    12    2
     6    17    12    1
     7     6     8    1
     8     3    12    1
     9     3     2    1
    10    12    13    1
    11     2     9    1
    12     8     9    1
    13     8    10    1
    14    10    11    1
    15    11     1    1
    16    14     1    2
    17     1    16    1
    18     1    18    1
