@<TRIPOS>MOLECULE
3vm9_HEM_A_1.pdb
 43 50 0 0 0
SMALL
GASTEIGER

@<TRIPOS>ATOM
      1  CHA       -2.0080   36.5570  -15.5220 C.2   154  HEM154      0.0000
      2  CHB       -2.1600   35.7120  -10.7940 C.2   154  HEM154      0.0000
      3  CHC        1.4560   38.8110  -10.0900 C.2   154  HEM154      0.0000
      4  CHD        1.5610   39.6690  -14.8210 C.2   154  HEM154      0.0000
      5  C1A       -2.3920   36.0780  -14.2910 C.2   154  HEM154      0.0000
      6  C2A       -3.3950   35.0620  -14.0870 C.2   154  HEM154      0.0000
      7  C3A       -3.4470   34.8580  -12.7490 C.2   154  HEM154      0.0000
      8  C4A       -2.4450   35.6960  -12.1430 C.2   154  HEM154      0.0000
      9  CMA       -4.3290   33.8700  -11.9950 C.3   154  HEM154      0.0000
     10  CAA       -4.2420   34.4270  -15.1600 C.3   154  HEM154      0.0000
     11  CBA       -3.8080   33.0100  -15.4440 C.3   154  HEM154      0.0000
     12  CGA       -2.3320   32.9000  -15.7670 C.2   154  HEM154      0.0000
     13  O1A       -1.9040   33.4490  -16.8200 O.co2 154  HEM154      0.0000
     14  O2A       -1.5910   32.3430  -14.9080 O.co2 154  HEM154      0.0000
     15  C1B       -1.1590   36.4520  -10.1600 C.ar  154  HEM154      0.0000
     16  C2B       -0.9110   36.4600   -8.7680 C.ar  154  HEM154      0.0000
     17  C3B        0.1010   37.3500   -8.5640 C.ar  154  HEM154      0.0000
     18  C4B        0.4800   37.8720   -9.8530 C.ar  154  HEM154      0.0000
     19  CMB       -1.6120   35.6000   -7.7680 C.3   154  HEM154      0.0000
     20  CAB        0.7020   37.7550   -7.2770 C.2   154  HEM154      0.0000
     21  CBB        0.0790   37.9300   -6.1320 C.2   154  HEM154      0.0000
     22  C1C        1.8030   39.3530  -11.3180 C.2   154  HEM154      0.0000
     23  C2C        2.6900   40.4660  -11.4990 C.2   154  HEM154      0.0000
     24  C3C        2.6810   40.7470  -12.8210 C.2   154  HEM154      0.0000
     25  C4C        1.8510   39.7670  -13.4700 C.2   154  HEM154      0.0000
     26  CMC        3.3550   41.2360  -10.3850 C.3   154  HEM154      0.0000
     27  CAC        3.3270   41.8670  -13.5770 C.2   154  HEM154      0.0000
     28  CBC        4.0220   42.8820  -13.1240 C.2   154  HEM154      0.0000
     29  C1D        0.6660   38.8830  -15.4540 C.ar  154  HEM154      0.0000
     30  C2D        0.3690   38.9740  -16.8380 C.ar  154  HEM154      0.0000
     31  C3D       -0.7580   38.1030  -17.0280 C.ar  154  HEM154      0.0000
     32  C4D       -1.0000   37.4910  -15.7670 C.ar  154  HEM154      0.0000
     33  CMD        1.0040   39.8280  -17.8650 C.3   154  HEM154      0.0000
     34  CAD       -1.5070   37.9210  -18.3300 C.3   154  HEM154      0.0000
     35  CBD       -2.5080   39.0150  -18.4730 C.3   154  HEM154      0.0000
     36  CGD       -3.3890   38.7410  -19.6880 C.2   154  HEM154      0.0000
     37  O1D       -2.8910   38.3710  -20.7630 O.co2 154  HEM154      0.0000
     38  O2D       -4.6300   38.7740  -19.5000 O.co2 154  HEM154      0.0000
     39  NA        -1.7820   36.4180  -13.0860 N.2   154  HEM154      0.0000
     40  NB        -0.3230   37.3270  -10.8400 N.ar  154  HEM154      0.0000
     41  NC         1.3240   38.9160  -12.5250 N.2   154  HEM154      0.0000
     42  ND        -0.1590   38.0060  -14.7900 N.ar  154  HEM154      0.0000
     43 FE         -0.1890   37.6100  -12.8310 Fe    154  HEM154      0.0000
@<TRIPOS>BOND
     1    37    36   ar
     2    36    38   ar
     3    36    35    1
     4    35    34    1
     5    34    31    1
     6    33    30    1
     7    31    30   ar
     8    31    32   ar
     9    30    29   ar
    10    13    12   ar
    11    32     1    2
    12    32    42   ar
    13    12    11    1
    14    12    14   ar
    15     1     5    1
    16    29     4    2
    17    29    42   ar
    18    11    10    1
    19    10     6    1
    20     4    25    1
    21    42    43    1
    22     5     6    1
    23     5    39    2
    24     6     7    2
    25    27    28    2
    26    27    24    1
    27    25    24    1
    28    25    41    2
    29    39    43    1
    30    39     8    1
    31    43    41    1
    32    43    40    1
    33    24    23    2
    34     7     8    1
    35     7     9    1
    36    41    22    1
    37     8     2    2
    38    23    22    1
    39    23    26    1
    40    22     3    2
    41    40    15   ar
    42    40    18   ar
    43     2    15    1
    44    15    16   ar
    45     3    18    1
    46    18    17   ar
    47    16    17   ar
    48    16    19    1
    49    17    20    1
    50    20    21    2
