@<TRIPOS>MOLECULE
3vmf_GTP_A_1.pdb
 32 34 0 0 0
SMALL
GASTEIGER

@<TRIPOS>ATOM
      1  PG        -6.8270   -6.1450  -20.7960 P.3   501  GTP501      0.5373
      2  O1G       -7.5800   -6.8310  -21.8760 O.2   501  GTP501     -0.2221
      3  O2G       -7.0080   -4.6720  -21.0010 O.3   501  GTP501     -0.1143
      4  O3G       -7.3650   -6.4730  -19.4260 O.3   501  GTP501     -0.1143
      5  O3B       -5.3140   -6.6260  -20.7430 O.3   501  GTP501     -0.2258
      6  PB        -4.2720   -6.5040  -21.9390 P.3   501  GTP501      0.2277
      7  O1B       -4.8370   -6.7410  -23.3210 O.2   501  GTP501     -0.5168
      8  O2B       -3.6580   -5.1520  -21.9530 O.3   501  GTP501     -0.4368
      9  O3A       -3.1560   -7.6090  -21.5430 O.3   501  GTP501     -0.2700
     10  PA        -2.0410   -7.3130  -20.4140 P.3   501  GTP501      0.2189
     11  O1A       -2.7130   -6.9230  -19.1200 O.3   501  GTP501     -0.4371
     12  O2A       -1.0580   -6.2760  -20.8340 O.2   501  GTP501     -0.5170
     13  O5'       -1.3050   -8.7270  -20.2260 O.3   501  GTP501     -0.3112
     14  C5'       -2.0020   -9.9500  -20.1010 C.3   501  GTP501      0.1813
     15  C4'       -0.9990  -11.0530  -19.7520 C.3   501  GTP501      0.1799
     16  O4'       -0.3060  -11.4670  -20.9240 O.3   501  GTP501     -0.3326
     17  C3'        0.0450  -10.5520  -18.7650 C.3   501  GTP501      0.2158
     18  O3'        0.2940  -11.5580  -17.8210 O.3   501  GTP501     -0.2175
     19  C2'        1.2850  -10.3460  -19.6100 C.3   501  GTP501      0.2310
     20  O2'        2.4850  -10.5770  -18.9140 O.3   501  GTP501     -0.2158
     21  C1'        1.0900  -11.3590  -20.7130 C.3   501  GTP501      0.2293
     22  N9         1.7740  -10.8420  -21.8970 N.pl3 501  GTP501     -0.2354
     23  C8         1.6060   -9.6240  -22.4960 C.3   501  GTP501      0.2246
     24  N7         2.4420   -9.5700  -23.5540 N.2   501  GTP501     -0.2322
     25  C5         3.1320  -10.7270  -23.6290 C.2   501  GTP501      0.2182
     26  C6         4.0990  -11.1980  -24.5000 C.1   501  GTP501      0.2372
     27  O6         4.4790  -10.5050  -25.4320 O.2   501  GTP501     -0.2069
     28  N1         4.6160  -12.4550  -24.3190 N.2   501  GTP501     -0.2485
     29  C2         4.1910  -13.2420  -23.2690 C.1   501  GTP501      0.2531
     30  N2         4.6980  -14.4530  -23.0820 N.pl3 501  GTP501     -0.0226
     31  N3         3.2320  -12.7700  -22.4070 N.2   501  GTP501     -0.3074
     32  C4         2.7150  -11.5350  -22.5900 C.2   501  GTP501      0.2300
@<TRIPOS>BOND
     1    27    26    2
     2    26    28    2
     3    26    25    1
     4    28    29    2
     5    25    24    2
     6    25    32    1
     7    24    23    1
     8     7     6    2
     9    29    30    1
    10    29    31    2
    11    32    31    2
    12    32    22    1
    13    23    22    1
    14     8     6    1
    15     6     9    1
    16     6     5    1
    17    22    21    1
    18     2     1    2
    19     9    10    1
    20     3     1    1
    21    16    21    1
    22    16    15    1
    23    12    10    2
    24     1     5    1
    25     1     4    1
    26    21    19    1
    27    10    13    1
    28    10    11    1
    29    13    14    1
    30    14    15    1
    31    15    17    1
    32    19    20    1
    33    19    17    1
    34    17    18    1
