@<TRIPOS>MOLECULE
3vmg_9CA_B_1.pdb
 13 15 0 0 0
SMALL
GASTEIGER

@<TRIPOS>ATOM
      1  C9A       -2.3950    2.3700   -5.9580 C.ar  2001  9CA2001     0.1314
      2  C1        -1.0320    2.4740   -5.6990 C.ar  2001  9CA2001     0.0320
      3  C2        -0.2300    3.2850   -6.4980 C.ar  2001  9CA2001     0.0026
      4  C3        -0.7900    3.9920   -7.5580 C.ar  2001  9CA2001     0.0002
      5  C4        -2.1530    3.8880   -7.8210 C.ar  2001  9CA2001     0.0026
      6  C4A       -2.9520    3.0770   -7.0200 C.ar  2001  9CA2001     0.0320
      7  C4B       -4.3110    2.7860   -7.0210 C.ar  2001  9CA2001     0.0320
      8  C5        -5.3680    3.1890   -7.8320 C.ar  2001  9CA2001     0.0026
      9  C6        -6.6530    2.7220   -7.5720 C.ar  2001  9CA2001     0.0002
     10  C7        -6.8780    1.8570   -6.5040 C.ar  2001  9CA2001     0.0026
     11  C8        -5.8180    1.4550   -5.6960 C.ar  2001  9CA2001     0.0320
     12  C8A       -4.5310    1.9180   -5.9560 C.ar  2001  9CA2001     0.1314
     13  N9        -3.3670    1.6940   -5.3490 N.2   2001  9CA2001    -0.4019
@<TRIPOS>BOND
     1     8     9   ar
     2     8     7   ar
     3     5     4   ar
     4     5     6   ar
     5     9    10   ar
     6     4     3   ar
     7     7     6    2
     8     7    12   ar
     9     6     1   ar
    10    10    11   ar
    11     3     2   ar
    12     1     2   ar
    13     1    13    2
    14    12    11   ar
    15    12    13    2
