@<TRIPOS>MOLECULE
3vmi_9CA_B_1.pdb
 13 15 0 0 0
SMALL
GASTEIGER

@<TRIPOS>ATOM
      1  C9A       -2.3530    2.3120   -5.8930 C.ar  2001  9CA2001     0.1314
      2  C1        -0.9780    2.4020   -5.6960 C.ar  2001  9CA2001     0.0320
      3  C2        -0.2110    3.2410   -6.5000 C.ar  2001  9CA2001     0.0026
      4  C3        -0.8170    3.9890   -7.5050 C.ar  2001  9CA2001     0.0002
      5  C4        -2.1920    3.9000   -7.7060 C.ar  2001  9CA2001     0.0026
      6  C4A       -2.9550    3.0610   -6.9000 C.ar  2001  9CA2001     0.0320
      7  C4B       -4.3130    2.7690   -6.8520 C.ar  2001  9CA2001     0.0320
      8  C5        -5.4030    3.1970   -7.6050 C.ar  2001  9CA2001     0.0026
      9  C6        -6.6740    2.7080   -7.3180 C.ar  2001  9CA2001     0.0002
     10  C7        -6.8520    1.7980   -6.2790 C.ar  2001  9CA2001     0.0026
     11  C8        -5.7590    1.3720   -5.5290 C.ar  2001  9CA2001     0.0320
     12  C8A       -4.4860    1.8570   -5.8160 C.ar  2001  9CA2001     0.1314
     13  N9        -3.2970    1.6100   -5.2690 N.2   2001  9CA2001    -0.4019
@<TRIPOS>BOND
     1     5     4   ar
     2     5     6   ar
     3     8     9   ar
     4     8     7   ar
     5     4     3   ar
     6     9    10   ar
     7     6     7    2
     8     6     1   ar
     9     7    12   ar
    10     3     2   ar
    11    10    11   ar
    12     1     2   ar
    13     1    13    2
    14    12    11   ar
    15    12    13    2
