@<TRIPOS>MOLECULE
3vmj_IPM_A_1.pdb
 12 11 0 0 0
SMALL
GASTEIGER

@<TRIPOS>ATOM
      1  C1       -27.3080    4.2240  -21.6610 C.2   401  IPM401      0.3952
      2  C2       -28.6670    4.7180  -21.2760 C.3   401  IPM401      0.2645
      3  C3       -28.6700    6.2790  -21.2070 C.3   401  IPM401      0.1448
      4  C4       -28.3860    6.8470  -22.6640 C.2   401  IPM401      0.3674
      5  C5       -29.8740    6.9390  -20.5780 C.3   401  IPM401      0.0138
      6  C6       -30.0970    6.3790  -19.1600 C.3   401  IPM401      0.0007
      7  C7       -29.7820    8.4780  -20.4760 C.3   401  IPM401      0.0007
      8  O1       -29.7300    4.3050  -22.1260 O.3   401  IPM401     -0.2103
      9  O2       -26.2260    4.3720  -21.0010 O.co2 401  IPM401     -0.2428
     10  O3       -27.2360    3.5880  -22.7470 O.co2 401  IPM401     -0.2428
     11  O4       -27.1480    6.9240  -22.9400 O.co2 401  IPM401     -0.2456
     12  O5       -29.3860    7.1650  -23.3580 O.co2 401  IPM401     -0.2456
@<TRIPOS>BOND
     1    12     4   ar
     2    11     4   ar
     3    10     1   ar
     4     4     3    1
     5     8     2    1
     6     1     2    1
     7     1     9   ar
     8     2     3    1
     9     3     5    1
    10     5     7    1
    11     5     6    1
