@<TRIPOS>MOLECULE
3vmk_IPM_A_1.pdb
 12 11 0 0 0
SMALL
GASTEIGER

@<TRIPOS>ATOM
      1  C1       -22.6000   -3.5490   39.6110 C.2   401  IPM401      0.3952
      2  C2       -22.9270   -4.5530   38.6090 C.3   401  IPM401      0.2645
      3  C3       -24.4140   -4.5470   38.4470 C.3   401  IPM401      0.1448
      4  C4       -24.8610   -3.1650   37.9220 C.2   401  IPM401      0.3674
      5  C5       -24.9330   -5.7010   37.5500 C.3   401  IPM401      0.0138
      6  C6       -24.4630   -7.0830   38.0380 C.3   401  IPM401      0.0007
      7  C7       -26.4680   -5.6470   37.3760 C.3   401  IPM401      0.0007
      8  O1       -22.2500   -4.2900   37.3580 O.3   401  IPM401     -0.2103
      9  O2       -22.8600   -3.5990   40.8080 O.co2 401  IPM401     -0.2428
     10  O3       -21.9220   -2.5810   39.2020 O.co2 401  IPM401     -0.2428
     11  O4       -25.1150   -2.3090   38.8020 O.co2 401  IPM401     -0.2456
     12  O5       -24.8950   -2.9850   36.7190 O.co2 401  IPM401     -0.2456
@<TRIPOS>BOND
     1    12     4   ar
     2     8     2    1
     3     7     5    1
     4     5     6    1
     5     5     3    1
     6     4     3    1
     7     4    11   ar
     8     3     2    1
     9     2     1    1
    10    10     1   ar
    11     1     9   ar
