@<TRIPOS>MOLECULE
3vml_IPM_A_1.pdb
 12 11 0 0 0
SMALL
GASTEIGER

@<TRIPOS>ATOM
      1  C1       -29.6550  -12.5550    2.8310 C.2   401  IPM401      0.3952
      2  C2       -29.1810  -12.1510    4.1860 C.3   401  IPM401      0.2645
      3  C3       -27.6680  -12.2550    4.2600 C.3   401  IPM401      0.1448
      4  C4       -27.1020  -11.3050    3.1640 C.2   401  IPM401      0.3674
      5  C5       -27.0760  -11.9420    5.6020 C.3   401  IPM401      0.0138
      6  C6       -27.6690  -12.8890    6.5970 C.3   401  IPM401      0.0007
      7  C7       -25.5320  -12.0650    5.6160 C.3   401  IPM401      0.0007
      8  O1       -29.6630  -10.7920    4.4220 O.3   401  IPM401     -0.2103
      9  O2       -29.4960  -13.7080    2.4130 O.co2 401  IPM401     -0.2428
     10  O3       -30.3390  -11.7780    2.1180 O.co2 401  IPM401     -0.2428
     11  O4       -26.9960  -11.7110    1.9900 O.co2 401  IPM401     -0.2456
     12  O5       -26.8800  -10.1080    3.4870 O.co2 401  IPM401     -0.2456
@<TRIPOS>BOND
     1    11     4   ar
     2    10     1   ar
     3     9     1   ar
     4     1     2    1
     5     4    12   ar
     6     4     3    1
     7     2     3    1
     8     2     8    1
     9     3     5    1
    10     5     7    1
    11     5     6    1
