@<TRIPOS>MOLECULE
3vmm_P0D_A_1.pdb
 22 22 0 0 0
SMALL
GASTEIGER

@<TRIPOS>ATOM
      1  O2        -0.4710  -49.9000   -9.4050 O.co2 504  P0D504     -0.2456
      2  C          0.2560  -48.8780   -9.2150 C.2   504  P0D504      0.3652
      3  O1         1.3450  -48.6950   -9.8180 O.co2 504  P0D504     -0.2456
      4  C2'       -0.1680  -47.8250   -8.2260 C.3   504  P0D504      0.1174
      5  C1'       -1.6210  -47.4270   -8.4780 C.3   504  P0D504      0.1003
      6  P1        -1.8010  -46.0610   -9.6610 P.3   504  P0D504      0.2481
      7  O1P       -1.2420  -46.4630  -10.9640 O.2   504  P0D504     -0.2877
      8  C2        -4.1840  -46.7440  -10.7830 C.3   504  P0D504      0.0310
      9  C1        -3.5710  -45.7010   -9.8500 C.3   504  P0D504      0.1692
     10  N1        -3.7840  -44.3690  -10.3950 N.3   504  P0D504     -0.1225
     11  O2P       -0.9940  -44.7390   -9.1490 O.3   504  P0D504     -0.2238
     12  P2        -1.4980  -43.8130   -7.9260 P.3   504  P0D504      0.5374
     13  O4P       -1.9830  -44.7910   -6.8920 O.3   504  P0D504     -0.1143
     14  O3P       -0.3210  -42.9710   -7.4460 O.3   504  P0D504     -0.1143
     15  O5P       -2.5930  -42.9990   -8.5730 O.2   504  P0D504     -0.2221
     16  C3'       -0.0360  -48.3860   -6.8150 C.3   504  P0D504      0.0381
     17  C31        1.2520  -49.1020   -6.4540 C.ar  504  P0D504     -0.0216
     18  C33        2.4830  -48.4540   -6.5450 C.ar  504  P0D504     -0.0043
     19  C35        3.6370  -49.0230   -6.0270 C.ar  504  P0D504     -0.0003
     20  C36        3.5780  -50.2620   -5.4010 C.ar  504  P0D504     -0.0000
     21  C34        2.3580  -50.9210   -5.2960 C.ar  504  P0D504     -0.0003
     22  C32        1.2050  -50.3410   -5.8110 C.ar  504  P0D504     -0.0043
@<TRIPOS>BOND
     1     7     6    2
     2     8     9    1
     3    10     9    1
     4     9     6    1
     5     3     2   ar
     6     6    11    1
     7     6     5    1
     8     1     2   ar
     9     2     4    1
    10    11    12    1
    11    15    12    2
    12     5     4    1
    13     4    16    1
    14    12    14    1
    15    12    13    1
    16    16    17    1
    17    18    17   ar
    18    18    19   ar
    19    17    22   ar
    20    19    20   ar
    21    22    21   ar
    22    20    21   ar
