@<TRIPOS>MOLECULE
3vmm_ADP_A_1.pdb
 27 29 0 0 0
SMALL
GASTEIGER

@<TRIPOS>ATOM
      1  PB        -1.7030  -41.2210   -4.8250 P.3   503  ADP503      0.5373
      2  O1B       -2.6920  -41.7310   -5.8350 O.2   503  ADP503     -0.2221
      3  O2B       -1.9390  -41.7860   -3.4450 O.3   503  ADP503     -0.1143
      4  O3B       -0.2730  -41.2880   -5.3030 O.3   503  ADP503     -0.1143
      5  PA        -3.1220  -38.7280   -5.3380 P.3   503  ADP503      0.2231
      6  O1A       -3.4490  -39.3420   -6.6730 O.2   503  ADP503     -0.5169
      7  O2A       -2.7120  -37.2780   -5.2490 O.3   503  ADP503     -0.4370
      8  O3A       -1.9540  -39.6240   -4.6540 O.3   503  ADP503     -0.2261
      9  O5'       -4.4050  -38.9100   -4.3820 O.3   503  ADP503     -0.3111
     10  C5'       -5.3100  -40.0000   -4.5850 C.3   503  ADP503      0.1813
     11  C4'       -6.7000  -39.4730   -4.9240 C.3   503  ADP503      0.1821
     12  O4'       -7.0810  -38.4400   -4.0130 O.3   503  ADP503     -0.3135
     13  C3'       -6.8120  -38.8090   -6.2900 C.3   503  ADP503      0.2184
     14  O3'       -7.0500  -39.7490   -7.3320 O.3   503  ADP503     -0.2174
     15  C2'       -7.9860  -37.8660   -6.1200 C.3   503  ADP503      0.2570
     16  O2'       -9.2320  -38.5580   -6.2450 O.3   503  ADP503     -0.2130
     17  C1'       -7.8530  -37.4350   -4.6780 C.3   503  ADP503      0.3186
     18  N9        -7.1090  -36.1570   -4.5960 N.pl3 503  ADP503     -0.1439
     19  C8        -5.7890  -36.0350   -4.3210 C.3   503  ADP503      0.3377
     20  N7        -5.4190  -34.7350   -4.3180 N.2   503  ADP503     -0.2095
     21  C5        -6.5130  -33.9960   -4.5900 C.2   503  ADP503      0.2526
     22  C6        -6.8350  -32.5500   -4.7210 C.2   503  ADP503      0.4393
     23  N6        -5.8860  -31.6000   -4.5690 N.pl3 503  ADP503      0.2180
     24  N1        -8.1150  -32.2140   -5.0080 N.2   503  ADP503      0.0021
     25  C2        -9.0790  -33.1380   -5.1670 C.3   503  ADP503      0.5254
     26  N3        -8.8590  -34.4600   -5.0560 N.2   503  ADP503     -0.0055
     27  C4        -7.6270  -34.9410   -4.7740 C.2   503  ADP503      0.3518
@<TRIPOS>BOND
     1    14    13    1
     2     6     5    2
     3    13    15    1
     4    13    11    1
     5    16    15    1
     6    15    17    1
     7     2     1    2
     8     5     7    1
     9     5     8    1
    10     5     9    1
    11     4     1    1
    12    25    26    1
    13    25    24    1
    14    26    27    2
    15    24    22    2
    16    11    10    1
    17    11    12    1
    18     1     8    1
    19     1     3    1
    20    27    18    1
    21    27    21    1
    22    22    21    1
    23    22    23    1
    24    17    18    1
    25    17    12    1
    26    18    19    1
    27    21    20    2
    28    10     9    1
    29    19    20    1
