@<TRIPOS>MOLECULE
3vmo_GLC_A_1.pdb
 11 11 0 0 0
SMALL
GASTEIGER

@<TRIPOS>ATOM
      1  C1         8.3710  -10.9350   -1.4830 C.3   802  GLC802      0.1777
      2  C2         7.5980   -9.6300   -1.7580 C.3   802  GLC802      0.2141
      3  C3         6.9130   -9.1200   -0.4790 C.3   802  GLC802      0.2173
      4  C4         6.1190  -10.2270    0.2240 C.3   802  GLC802      0.2142
      5  C5         6.9880  -11.4590    0.4200 C.3   802  GLC802      0.1810
      6  C6         6.1630  -12.6000    1.0180 C.3   802  GLC802      0.2141
      7  O2         8.4720   -8.6750   -2.3690 O.3   802  GLC802     -0.2176
      8  O3         5.9940   -8.0880   -0.7250 O.3   802  GLC802     -0.2175
      9  O4         5.6270   -9.8210    1.4870 O.3   802  GLC802     -0.2176
     10  O5         7.5710  -11.8910   -0.7970 O.3   802  GLC802     -0.3481
     11  O6         7.0420  -13.6730    1.2730 O.3   802  GLC802     -0.2176
@<TRIPOS>BOND
     1     7     2    1
     2     2     1    1
     3     2     3    1
     4     1    10    1
     5    10     5    1
     6     8     3    1
     7     3     4    1
     8     4     5    1
     9     4     9    1
    10     5     6    1
    11     6    11    1
