@<TRIPOS>MOLECULE
3vmo_BGC_A_1.pdb
 12 12 0 0 0
SMALL
GASTEIGER

@<TRIPOS>ATOM
      1  C2        12.8350   -8.9160    1.9390 C.3   801  BGC801      0.2434
      2  C3        11.7640   -9.5770    2.8070 C.3   801  BGC801      0.2199
      3  C4        10.6460  -10.1170    1.8840 C.3   801  BGC801      0.2144
      4  C5        11.2490  -11.1180    0.8740 C.3   801  BGC801      0.1836
      5  C6        10.2410  -11.7050   -0.1340 C.3   801  BGC801      0.2142
      6  C1        13.3580   -9.9480    0.9290 C.3   801  BGC801      0.3024
      7  O1        14.3070   -9.3220    0.0910 O.3   801  BGC801     -0.1869
      8  O2        13.8800   -8.3980    2.7260 O.3   801  BGC801     -0.2148
      9  O3        11.3170   -8.6730    3.8050 O.3   801  BGC801     -0.2174
     10  O4         9.5850  -10.6680    2.6430 O.3   801  BGC801     -0.2176
     11  O5        12.2870  -10.4700    0.1400 O.3   801  BGC801     -0.3236
     12  O6         9.6270  -10.6290   -0.8420 O.3   801  BGC801     -0.2176
@<TRIPOS>BOND
     1    12     5    1
     2     5     4    1
     3     7     6    1
     4    11     4    1
     5    11     6    1
     6     4     3    1
     7     6     1    1
     8     3    10    1
     9     3     2    1
    10     1     8    1
    11     1     2    1
    12     2     9    1
