@<TRIPOS>MOLECULE
3vmp_E5G_A_1.pdb
 18 18 0 0 0
SMALL
GASTEIGER

@<TRIPOS>ATOM
      1  O6         5.5280  -13.7640    0.1250 O.3   901  E5G901     -0.2176
      2  C6         4.6630  -12.6300   -0.0770 C.3   901  E5G901      0.2142
      3  C5         5.4140  -11.5050   -0.8070 C.3   901  E5G901      0.1835
      4  O5         5.9370  -11.9350   -2.0790 O.3   901  E5G901     -0.3256
      5  C4         4.5240  -10.2830   -1.0270 C.3   901  E5G901      0.2144
      6  O4         4.0490   -9.8810    0.2720 O.3   901  E5G901     -0.2176
      7  C3         5.3500   -9.1930   -1.7130 C.3   901  E5G901      0.2198
      8  O3         4.5810   -8.0590   -2.0850 O.3   901  E5G901     -0.2174
      9  C2         6.1260   -9.6610   -2.9520 C.3   901  E5G901      0.2406
     10  O2         7.0930   -8.6440   -3.3170 O.3   901  E5G901     -0.2149
     11  C1         6.8280  -11.0070   -2.7170 C.3   901  E5G901      0.2695
     12  O1         8.0380  -10.8060   -1.9590 O.3   901  E5G901     -0.3286
     13  C15        8.8100  -12.0010   -1.7850 C.3   901  E5G901      0.1449
     14  C14       10.1640  -11.6360   -1.1890 C.3   901  E5G901      0.0322
     15  C13       10.5790  -10.2200   -1.5690 C.3   901  E5G901      0.0053
     16  C12       11.8440   -9.7970   -0.8220 C.3   901  E5G901      0.0356
     17  C11       13.1410  -10.2850   -1.4760 C.3   901  E5G901      0.1821
     18  O11       14.1780   -9.3270   -1.2160 O.3   901  E5G901     -0.2204
@<TRIPOS>BOND
     1    10     9    1
     2     9    11    1
     3     9     7    1
     4    11     4    1
     5    11    12    1
     6     8     7    1
     7     4     3    1
     8    12    13    1
     9    13    14    1
    10     7     5    1
    11    15    14    1
    12    15    16    1
    13    17    18    1
    14    17    16    1
    15     5     3    1
    16     5     6    1
    17     3     2    1
    18     2     1    1
