@<TRIPOS>MOLECULE
3vmt_LHI_A_1.pdb
 43 44 0 0 0
SMALL
GASTEIGER

@<TRIPOS>ATOM
      1  N2       -28.3770    4.5330   -9.6680 N.am  301  LHI301     -0.2015
      2  N6       -26.3190    2.4640  -14.3890 N.am  301  LHI301     -0.1994
      3  N7       -24.2840    9.8820  -14.6420 N.am  301  LHI301     -0.1992
      4  C8       -24.6200    5.8870  -13.0950 C.3   301  LHI301      0.1763
      5  C9       -25.7240    4.8360  -13.1730 C.3   301  LHI301      0.1701
      6  C10      -25.2630    3.3970  -13.7300 C.3   301  LHI301      0.1811
      7  C11      -23.8010    3.4490  -14.3700 C.3   301  LHI301      0.2632
      8  C12      -23.2620    5.5000  -13.6470 C.3   301  LHI301      0.1802
      9  C13      -22.0670    6.3590  -13.2740 C.3   301  LHI301      0.2141
     10  C14      -28.0960    5.3600  -12.1640 C.3   301  LHI301      0.1926
     11  C15      -29.0690    4.9460  -10.9300 C.2   301  LHI301      0.2686
     12  C16      -24.7900   10.8260  -12.1480 C.3   301  LHI301      0.2094
     13  C17      -25.5920   10.6090  -10.9380 C.3   301  LHI301      0.2136
     14  C18      -25.9060    9.2200  -10.4980 C.3   301  LHI301      0.1834
     15  C19      -24.8280    8.2230  -12.5530 C.3   301  LHI301      0.2586
     16  C20      -24.8990    9.6770  -13.2200 C.3   301  LHI301      0.1842
     17  C21      -27.2830    9.1530   -9.8500 C.3   301  LHI301      0.2142
     18  C22      -29.1280    3.9500   -8.5630 C.3   301  LHI301      0.1386
     19  C39      -28.2920    6.8410  -12.7650 C.3   301  LHI301      0.0421
     20  C97      -27.0370    1.4370  -13.4500 C.2   301  LHI301      0.2420
     21  C98      -28.2110    0.5610  -14.1370 C.3   301  LHI301      0.0964
     22  C99      -22.7890   10.0750  -14.8510 C.2   301  LHI301      0.2420
     23  CA1      -22.2110   10.2170  -16.3080 C.3   301  LHI301      0.0964
     24  OA2      -22.9390    4.1300  -13.4860 O.3   301  LHI301     -0.3261
     25  OA3      -23.7190    4.1140  -15.6390 O.3   301  LHI301     -0.2863
     26  OA4      -30.2130    4.1490  -11.2600 O.2   301  LHI301     -0.2707
     27  OA5      -25.6100    8.0690  -11.3350 O.3   301  LHI301     -0.3262
     28  OA6      -26.7580   11.4010  -10.9400 O.3   301  LHI301     -0.2176
     29  OA7      -24.9100   12.1430  -12.6510 O.3   301  LHI301     -0.2183
     30  OA8      -27.1710    8.8480   -8.5190 O.3   301  LHI301     -0.2176
     31  OA9      -21.5230    5.8190  -12.1170 O.3   301  LHI301     -0.2176
     32  OB2      -25.0450    7.1960  -13.5440 O.3   301  LHI301     -0.3265
     33  OB3      -26.6580    4.8140  -12.0600 O.3   301  LHI301     -0.3450
     34  OB4      -23.0480    2.0730  -16.9550 O.3   301  LHI301     -0.4370
     35  OB5      -27.1600    1.5300  -17.1060 O.3   301  LHI301     -0.1143
     36  OB6      -25.3220    3.1650  -17.3260 O.3   301  LHI301     -0.2260
     37  OC2      -24.9660    0.6910  -17.7540 O.3   301  LHI301     -0.1143
     38  OC3      -27.2300    1.8360  -12.0010 O.2   301  LHI301     -0.2733
     39  OC4      -21.8430    9.7050  -13.8020 O.2   301  LHI301     -0.2733
     40  PC5      -23.7940    3.3700  -17.0140 P.3   301  LHI301      0.2249
     41  PC6      -25.9240    1.8310  -17.8890 P.3   301  LHI301      0.5373
     42  O22      -26.3160    2.0550  -19.3920 O.2   301  LHI301     -0.2221
     43  O23      -23.2000    4.2590  -18.0660 O.2   301  LHI301     -0.5169
@<TRIPOS>BOND
     1    42    41    2
     2    43    40    2
     3    41    37    1
     4    41    36    1
     5    41    35    1
     6    36    40    1
     7    40    34    1
     8    40    25    1
     9    23    22    1
    10    25     7    1
    11    22     3   am
    12    22    39    2
    13     3    16    1
    14     2     6    1
    15     2    20   am
    16     7     6    1
    17     7    24    1
    18    21    20    1
    19     6     5    1
    20     8    24    1
    21     8     9    1
    22     8     4    1
    23    32     4    1
    24    32    15    1
    25    20    38    2
    26     9    31    1
    27    16    15    1
    28    16    12    1
    29     5     4    1
    30     5    33    1
    31    19    10    1
    32    29    12    1
    33    15    27    1
    34    10    33    1
    35    10    11    1
    36    12    13    1
    37    27    14    1
    38    26    11    2
    39    28    13    1
    40    13    14    1
    41    11     1   am
    42    14    17    1
    43    17    30    1
    44     1    18    1
