@<TRIPOS>MOLECULE
3vmw_ADA_A_1.pdb
 12 12 0 0 0
SMALL
GASTEIGER

@<TRIPOS>ATOM
      1  C1        -9.9650   21.2290  -30.7670 C.3   901  ADA901      0.1783
      2  C2        -9.2960   21.3140  -29.4410 C.3   901  ADA901      0.2141
      3  C3        -7.8500   21.0900  -29.5120 C.3   901  ADA901      0.2178
      4  C4        -7.4710   19.9020  -30.2660 C.3   901  ADA901      0.2227
      5  C5        -8.1780   19.8730  -31.5940 C.3   901  ADA901      0.2512
      6  C6        -7.9860   18.6010  -32.2580 C.2   901  ADA901      0.3940
      7  O2        -9.6060   22.5950  -28.9360 O.3   901  ADA901     -0.2176
      8  O3        -7.2900   21.0650  -28.1770 O.3   901  ADA901     -0.2175
      9  O4        -7.7650   18.6540  -29.5490 O.3   901  ADA901     -0.2171
     10  O5        -9.5900   20.0380  -31.4440 O.3   901  ADA901     -0.3403
     11  O6B       -8.9720   17.9340  -32.6510 O.co2 901  ADA901     -0.2429
     12  O6A       -6.8270   18.1810  -32.3920 O.co2 901  ADA901     -0.2429
@<TRIPOS>BOND
     1    11     6   ar
     2    12     6   ar
     3     6     5    1
     4     5    10    1
     5     5     4    1
     6    10     1    1
     7     1     2    1
     8     4     9    1
     9     4     3    1
    10     3     2    1
    11     3     8    1
    12     2     7    1
