@<TRIPOS>MOLECULE
3vn2_TLS_A_1.pdb
 39 44 0 0 0
SMALL
GASTEIGER

@<TRIPOS>ATOM
      1  C1        47.0550   19.5180   26.9820 C.2   501  TLS501      0.0795
      2  N2        47.5010   19.2310   25.7230 N.pl3 501  TLS501     -0.2599
      3  C3        47.1050   18.3040   27.6280 C.2   501  TLS501      0.1416
      4  C4        46.6480   20.7080   27.5530 C.2   501  TLS501      0.0038
      5  C5        47.8020   17.8890   25.6520 C.2   501  TLS501      0.1640
      6  C6        47.6630   20.1930   24.6160 C.3   501  TLS501      0.1242
      7  N7        47.5600   17.3060   26.8080 N.2   501  TLS501     -0.3902
      8  C8        46.7180   18.2300   28.9430 C.2   501  TLS501      0.0055
      9  C9        46.2750   20.6500   28.8750 C.3   501  TLS501      0.1121
     10  C10       48.2980   17.2720   24.3740 C.3   501  TLS501      0.0751
     11  C11       46.6380   21.2680   24.6220 C.ar  501  TLS501     -0.0020
     12  C12       46.3140   19.4210   29.5180 C.2   501  TLS501     -0.0153
     13  C13       46.7370   16.9560   29.6900 C.3   501  TLS501      0.0334
     14  C14       45.8340   21.8920   29.5340 C.2   501  TLS501      0.1712
     15  C15       49.3860   16.2290   24.4080 C.3   501  TLS501      0.0089
     16  C16       45.4090   20.9920   24.0660 C.ar  501  TLS501     -0.0026
     17  C17       46.9190   22.5070   25.1590 C.ar  501  TLS501     -0.0026
     18  N18       45.4810   21.9880   30.8550 N.pl3 501  TLS501     -0.2620
     19  N19       45.6520   23.0890   28.9990 N.2   501  TLS501     -0.3932
     20  C20       50.6600   17.0220   24.3860 C.3   501  TLS501      0.0005
     21  C21       44.4420   21.9590   24.0620 C.ar  501  TLS501     -0.0003
     22  C22       45.9200   23.4510   25.1640 C.ar  501  TLS501     -0.0003
     23  C23       45.0460   23.2380   31.1780 C.2   501  TLS501      0.0793
     24  C24       45.5470   20.9220   31.8160 C.3   501  TLS501      0.1195
     25  C25       45.1730   23.9180   29.9920 C.2   501  TLS501      0.1281
     26  C26       44.6730   23.1990   24.6180 C.ar  501  TLS501      0.0002
     27  C27       44.5790   23.7700   32.3650 C.2   501  TLS501      0.0168
     28  C28       44.7950   25.2480   29.9660 C.3   501  TLS501      0.0863
     29  C29       43.5870   24.1580   24.7220 C.ar  501  TLS501      0.0064
     30  C30       44.2260   25.0960   32.3080 C.2   501  TLS501     -0.0028
     31  C31       44.3360   25.8090   31.1380 C.2   501  TLS501     -0.0186
     32  C32       42.4780   24.1840   23.9030 C.ar  501  TLS501      0.0798
     33  C33       43.6040   25.0640   25.7640 C.ar  501  TLS501      0.0002
     34  C34       41.4630   25.0800   24.1610 C.ar  501  TLS501      0.0066
     35  C35       42.3000   23.2730   22.7540 C.2   501  TLS501      0.3878
     36  C36       42.6040   25.9790   26.0140 C.ar  501  TLS501      0.0000
     37  C37       41.5050   25.9770   25.2010 C.ar  501  TLS501      0.0002
     38  O38       41.1380   22.8040   22.6810 O.co2 501  TLS501     -0.2406
     39  O39       43.2620   23.0310   21.9660 O.co2 501  TLS501     -0.2406
@<TRIPOS>BOND
     1    39    35   ar
     2    38    35   ar
     3    35    32    1
     4    32    34   ar
     5    32    29   ar
     6    21    16   ar
     7    21    26   ar
     8    16    11   ar
     9    34    37   ar
    10    10    15    1
    11    10     5    1
    12    20    15    1
    13     6    11    1
    14     6     2    1
    15    26    29    1
    16    26    22   ar
    17    11    17   ar
    18    29    33   ar
    19    17    22   ar
    20    37    36   ar
    21     5     2    1
    22     5     7    2
    23     2     1    1
    24    33    36   ar
    25     7     3    2
    26     1     4    2
    27     1     3    1
    28     4     9    1
    29     3     8    1
    30     9    12    1
    31     9    14    1
    32     8    12    2
    33     8    13    1
    34    19    14    2
    35    19    25    2
    36    14    18    1
    37    28    25    1
    38    28    31    1
    39    25    23    1
    40    18    23    1
    41    18    24    1
    42    31    30    2
    43    23    27    2
    44    30    27    1
