@<TRIPOS>MOLECULE
3vng_FUU_A_1.pdb
 26 28 0 0 0
SMALL
GASTEIGER

@<TRIPOS>ATOM
      1  CAI        6.7740  -37.4810  -29.2700 C.ar  301  FUU301      0.0456
      2  CAD        7.0140  -37.7980  -30.5420 C.ar  301  FUU301      0.0440
      3  CAF        8.2970  -37.5770  -30.8130 C.ar  301  FUU301      0.1798
      4  OAR        8.8920  -37.1030  -29.6740 O.2   301  FUU301     -0.4456
      5  CAY        7.9080  -37.0560  -28.7290 C.ar  301  FUU301      0.2003
      6  CAZ        8.1480  -36.6300  -27.4230 C.ar  301  FUU301      0.2856
      7  OAS        9.3360  -36.0790  -27.0460 O.2   301  FUU301     -0.4005
      8  NAN        7.3420  -36.6790  -26.3660 N.ar  301  FUU301     -0.1025
      9  NAM        7.9130  -36.2200  -25.3740 N.ar  301  FUU301     -0.0904
     10  CAX        9.1400  -35.8330  -25.7190 C.ar  301  FUU301      0.3367
     11  NAP       10.0270  -35.2390  -24.9240 N.am  301  FUU301     -0.1070
     12  CAU        9.8020  -35.0440  -23.6290 C.2   301  FUU301      0.3476
     13  OAB        8.7730  -35.4510  -23.0790 O.2   301  FUU301     -0.2487
     14  NAO       10.7520  -34.4290  -22.9400 N.am  301  FUU301     -0.1820
     15  CAK       10.6220  -34.1700  -21.4960 C.3   301  FUU301      0.1433
     16  CAV       10.3060  -32.6940  -21.2420 C.ar  301  FUU301      0.0025
     17  CAJ       11.3150  -31.7420  -21.3510 C.ar  301  FUU301      0.0344
     18  CAG        9.0260  -32.3100  -20.8600 C.ar  301  FUU301     -0.0024
     19  CAE        8.7570  -30.9740  -20.5810 C.ar  301  FUU301      0.0028
     20  CAH        9.7660  -30.0220  -20.6860 C.ar  301  FUU301      0.0369
     21  CAW       11.0450  -30.4060  -21.0720 C.ar  301  FUU301      0.1391
     22  OAQ       12.0490  -29.4920  -21.1750 O.3   301  FUU301     -0.4637
     23  CAL       11.5410  -28.1980  -21.5300 C.3   301  FUU301      0.3186
     24  CAT       12.7290  -27.2950  -21.8760 C.2   301  FUU301      0.4084
     25  OAC       13.8460  -27.8350  -22.0240 O.co2 301  FUU301     -0.2415
     26  OAA       12.5150  -26.0690  -21.9920 O.co2 301  FUU301     -0.2415
@<TRIPOS>BOND
     1     3     2   ar
     2     3     4   ar
     3     2     1   ar
     4     4     5   ar
     5     1     5   ar
     6     5     6    1
     7     6     7   ar
     8     6     8   ar
     9     7    10   ar
    10     8     9   ar
    11    10     9   ar
    12    10    11    1
    13    11    12   am
    14    12    13    2
    15    12    14   am
    16    14    15    1
    17    25    24   ar
    18    26    24   ar
    19    24    23    1
    20    23    22    1
    21    15    16    1
    22    17    16   ar
    23    17    21   ar
    24    16    18   ar
    25    22    21    1
    26    21    20   ar
    27    18    19   ar
    28    20    19   ar
