@<TRIPOS>MOLECULE
3vnh_FUU_A_1.pdb
 26 28 0 0 0
SMALL
GASTEIGER

@<TRIPOS>ATOM
      1  CAI      -14.5670  -26.1980    8.0090 C.ar  301  FUU301      0.0456
      2  CAD      -15.1610  -26.1390    9.2000 C.ar  301  FUU301      0.0440
      3  CAF      -14.6080  -27.0400   10.0080 C.ar  301  FUU301      0.1798
      4  OAR      -13.6300  -27.6950    9.3070 O.2   301  FUU301     -0.4456
      5  CAY      -13.6300  -27.1400    8.0590 C.ar  301  FUU301      0.2003
      6  CAZ      -12.7450  -27.5300    7.0600 C.ar  301  FUU301      0.2856
      7  OAS      -12.7360  -26.9400    5.8300 O.2   301  FUU301     -0.4005
      8  NAN      -11.7670  -28.4330    7.1100 N.ar  301  FUU301     -0.1025
      9  NAM      -11.1510  -28.4520    6.0420 N.ar  301  FUU301     -0.0904
     10  CAX      -11.6870  -27.5580    5.2170 C.ar  301  FUU301      0.3367
     11  NAP      -11.2360  -27.2410    4.0060 N.am  301  FUU301     -0.1070
     12  CAU      -10.1970  -27.8670    3.4590 C.2   301  FUU301      0.3476
     13  OAB       -9.6190  -28.7940    4.0230 O.2   301  FUU301     -0.2487
     14  NAO       -9.8300  -27.4460    2.2520 N.am  301  FUU301     -0.1820
     15  CAK       -8.6900  -28.0280    1.5310 C.3   301  FUU301      0.1433
     16  CAV       -7.6240  -26.9450    1.3540 C.ar  301  FUU301      0.0025
     17  CAJ       -7.8920  -25.6460    1.7640 C.ar  301  FUU301      0.0344
     18  CAG       -6.3910  -27.2580    0.7880 C.ar  301  FUU301     -0.0024
     19  CAE       -5.4290  -26.2670    0.6340 C.ar  301  FUU301      0.0028
     20  CAH       -5.6970  -24.9670    1.0460 C.ar  301  FUU301      0.0369
     21  CAW       -6.9270  -24.6550    1.6130 C.ar  301  FUU301      0.1391
     22  OAQ       -7.1890  -23.3930    2.0500 O.3   301  FUU301     -0.4637
     23  CAL       -6.4480  -22.4290    1.2890 C.3   301  FUU301      0.3186
     24  CAT       -5.6400  -21.5650    2.2610 C.2   301  FUU301      0.4084
     25  OAC       -5.4060  -20.3840    1.9360 O.co2 301  FUU301     -0.2415
     26  OAA       -5.2560  -22.0930    3.3290 O.co2 301  FUU301     -0.2415
@<TRIPOS>BOND
     1    19    18   ar
     2    19    20   ar
     3    18    16   ar
     4    20    21   ar
     5    23    22    1
     6    23    24    1
     7    16    15    1
     8    16    17   ar
     9    15    14    1
    10    21    17   ar
    11    21    22    1
    12    25    24   ar
    13    14    12   am
    14    24    26   ar
    15    12    11   am
    16    12    13    2
    17    11    10    1
    18    10     7   ar
    19    10     9   ar
    20     7     6   ar
    21     9     8   ar
    22     6     8   ar
    23     6     5    1
    24     1     5   ar
    25     1     2   ar
    26     5     4   ar
    27     2     3   ar
    28     4     3   ar
