@<TRIPOS>MOLECULE
3vnj_PSJ_A_1.pdb
 12 11 0 0 0
SMALL
GASTEIGER

@<TRIPOS>ATOM
      1  C1        -6.7700  -24.6860  -13.6490 C.3   301  PSJ301      0.2486
      2  O1        -7.0250  -23.2950  -13.8510 O.3   301  PSJ301     -0.2118
      3  C2        -7.8410  -25.3010  -12.7300 C.2   301  PSJ301      0.2165
      4  O2        -8.5540  -24.6350  -12.0020 O.2   301  PSJ301     -0.2905
      5  C3        -8.0380  -26.8170  -12.8650 C.3   301  PSJ301      0.2440
      6  O3        -8.3370  -27.3250  -11.5620 O.3   301  PSJ301     -0.2122
      7  C4        -6.7880  -27.5100  -13.4090 C.3   301  PSJ301      0.2221
      8  O4        -7.1300  -28.7890  -13.9450 O.3   301  PSJ301     -0.2171
      9  C5        -5.7730  -27.7530  -12.2890 C.3   301  PSJ301      0.2179
     10  O5        -5.4410  -26.5180  -11.6480 O.3   301  PSJ301     -0.2175
     11  C6        -4.5520  -28.4010  -12.9510 C.3   301  PSJ301      0.2175
     12  O6        -3.6530  -28.9250  -11.9740 O.3   301  PSJ301     -0.2175
@<TRIPOS>BOND
     1     8     7    1
     2     2     1    1
     3     1     3    1
     4     7     5    1
     5     7     9    1
     6    11     9    1
     7    11    12    1
     8     5     3    1
     9     5     6    1
    10     3     4    2
    11     9    10    1
