@<TRIPOS>MOLECULE
3vnk_FUD_A_1.pdb
 12 11 0 0 0
SMALL
GASTEIGER

@<TRIPOS>ATOM
      1  C1        -6.8710  -24.7800  -13.4760 C.3   301  FUD301      0.2486
      2  C2        -7.8660  -25.1990  -12.3950 C.2   301  FUD301      0.2165
      3  C3        -7.7340  -26.5860  -11.7530 C.3   301  FUD301      0.2440
      4  C4        -6.3380  -27.2070  -11.8350 C.3   301  FUD301      0.2221
      5  C5        -6.0710  -27.7590  -13.2360 C.3   301  FUD301      0.2179
      6  C6        -4.6220  -28.2510  -13.3230 C.3   301  FUD301      0.2175
      7  O1        -7.0190  -23.3750  -13.7110 O.3   301  FUD301     -0.2118
      8  O2        -8.7930  -24.4590  -12.0690 O.2   301  FUD301     -0.2905
      9  O3        -8.6400  -27.4660  -12.4130 O.3   301  FUD301     -0.2122
     10  O4        -5.3320  -26.2680  -11.4520 O.3   301  FUD301     -0.2171
     11  O5        -6.9900  -28.8220  -13.5040 O.3   301  FUD301     -0.2175
     12  O6        -4.2310  -28.9730  -12.1510 O.3   301  FUD301     -0.2175
@<TRIPOS>BOND
     1     7     1    1
     2    11     5    1
     3     1     2    1
     4     6     5    1
     5     6    12    1
     6     5     4    1
     7     9     3    1
     8     2     8    2
     9     2     3    1
    10     4     3    1
    11     4    10    1
