@<TRIPOS>MOLECULE
3vnl_TAG_A_1.pdb
 12 11 0 0 0
SMALL
GASTEIGER

@<TRIPOS>ATOM
      1  C1        -7.5230  -24.6240  -13.7970 C.3   7101  TAG7101     0.2486
      2  O1        -6.9900  -23.2960  -13.7660 O.3   7101  TAG7101    -0.2118
      3  C2        -8.1000  -25.0530  -12.4450 C.2   7101  TAG7101     0.2165
      4  O2        -9.1480  -24.5820  -12.0040 O.2   7101  TAG7101    -0.2905
      5  C3        -7.6690  -26.4330  -11.9570 C.3   7101  TAG7101     0.2440
      6  O3        -8.4430  -27.4550  -12.5840 O.3   7101  TAG7101    -0.2122
      7  C4        -6.1730  -26.6460  -12.1840 C.3   7101  TAG7101     0.2221
      8  O4        -5.5170  -26.0110  -11.0860 O.3   7101  TAG7101    -0.2171
      9  C5        -5.8950  -28.1500  -12.1440 C.3   7101  TAG7101     0.2179
     10  O5        -4.5020  -28.3960  -11.9410 O.3   7101  TAG7101    -0.2175
     11  C6        -6.3420  -28.7590  -13.4740 C.3   7101  TAG7101     0.2175
     12  O6        -6.8850  -30.0550  -13.2140 O.3   7101  TAG7101    -0.2175
@<TRIPOS>BOND
     1     1     2    1
     2     1     3    1
     3    11    12    1
     4    11     9    1
     5     6     5    1
     6     3     4    2
     7     3     5    1
     8     7     9    1
     9     7     5    1
    10     7     8    1
    11     9    10    1
