@<TRIPOS>MOLECULE
3vnm_SDD_A_1.pdb
 12 11 0 0 0
SMALL
GASTEIGER

@<TRIPOS>ATOM
      1  C1        -6.7300  -24.3600  -13.4070 C.3   301  SDD301      0.2486
      2  O1        -7.2490  -23.1150  -13.8780 O.3   301  SDD301     -0.2118
      3  C2        -7.7960  -25.1860  -12.6810 C.2   301  SDD301      0.2165
      4  O2        -8.5590  -24.6950  -11.8500 O.2   301  SDD301     -0.2905
      5  C3        -7.4800  -26.6790  -12.6020 C.3   301  SDD301      0.2440
      6  O3        -8.2410  -27.2140  -11.5140 O.3   301  SDD301     -0.2122
      7  C4        -5.9880  -26.8240  -12.2970 C.3   301  SDD301      0.2221
      8  O4        -5.6500  -25.9450  -11.2170 O.3   301  SDD301     -0.2171
      9  C5        -5.6610  -28.2830  -11.9610 C.3   301  SDD301      0.2179
     10  O5        -4.3410  -28.3720  -11.4200 O.3   301  SDD301     -0.2175
     11  C6        -5.7300  -29.1300  -13.2330 C.3   301  SDD301      0.2175
     12  O6        -7.0530  -29.1080  -13.7730 O.3   301  SDD301     -0.2175
@<TRIPOS>BOND
     1     2     1    1
     2    12    11    1
     3     1     3    1
     4    11     9    1
     5     3     5    1
     6     3     4    2
     7     5     7    1
     8     5     6    1
     9     7     9    1
    10     7     8    1
    11     9    10    1
