@<TRIPOS>MOLECULE
3vno_HEM_A_1.pdb
 43 50 0 0 0
SMALL
GASTEIGER

@<TRIPOS>ATOM
      1  CHA      -40.9520    8.2220   -2.6160 C.2   501  HEM501      0.0000
      2  CHB      -39.3140    8.1880    1.9600 C.2   501  HEM501      0.0000
      3  CHC      -43.8560    8.7500    3.5340 C.2   501  HEM501      0.0000
      4  CHD      -45.5400    8.3990   -0.9660 C.2   501  HEM501      0.0000
      5  C1A      -40.1150    8.1930   -1.5320 C.2   501  HEM501      0.0000
      6  C2A      -38.6750    8.0690   -1.5830 C.2   501  HEM501      0.0000
      7  C3A      -38.2200    8.0790   -0.3030 C.2   501  HEM501      0.0000
      8  C4A      -39.3530    8.1840    0.5820 C.2   501  HEM501      0.0000
      9  CMA      -36.7580    7.9600    0.1760 C.3   501  HEM501      0.0000
     10  CAA      -37.8660    7.9180   -2.8960 C.3   501  HEM501      0.0000
     11  CBA      -37.3190    9.2180   -3.5150 C.3   501  HEM501      0.0000
     12  CGA      -36.5650    8.8800   -4.7960 C.2   501  HEM501      0.0000
     13  O1A      -35.6840    9.7040   -5.2160 O.co2 501  HEM501      0.0000
     14  O2A      -36.8440    7.8010   -5.4310 O.co2 501  HEM501      0.0000
     15  C1B      -40.4200    8.2150    2.7950 C.ar  501  HEM501      0.0000
     16  C2B      -40.4240    8.0040    4.2260 C.ar  501  HEM501      0.0000
     17  C3B      -41.6780    8.1420    4.6700 C.ar  501  HEM501      0.0000
     18  C4B      -42.5170    8.4480    3.5270 C.ar  501  HEM501      0.0000
     19  CMB      -39.1810    7.6900    5.0880 C.3   501  HEM501      0.0000
     20  CAB      -42.1310    7.9990    6.1480 C.2   501  HEM501      0.0000
     21  CBB      -43.2300    7.2980    6.4550 C.2   501  HEM501      0.0000
     22  C1C      -44.6960    8.8460    2.4590 C.2   501  HEM501      0.0000
     23  C2C      -46.1170    9.1400    2.5240 C.2   501  HEM501      0.0000
     24  C3C      -46.6110    9.0580    1.2800 C.2   501  HEM501      0.0000
     25  C4C      -45.5070    8.6810    0.3880 C.2   501  HEM501      0.0000
     26  CMC      -46.9440    9.4960    3.7760 C.3   501  HEM501      0.0000
     27  CAC      -48.1220    9.3030    1.0210 C.2   501  HEM501      0.0000
     28  CBC      -48.5860    9.8460   -0.0860 C.2   501  HEM501      0.0000
     29  C1D      -44.4830    8.2300   -1.8220 C.ar  501  HEM501      0.0000
     30  C2D      -44.5990    7.9830   -3.2410 C.ar  501  HEM501      0.0000
     31  C3D      -43.1680    7.9670   -3.7590 C.ar  501  HEM501      0.0000
     32  C4D      -42.3300    8.1520   -2.5960 C.ar  501  HEM501      0.0000
     33  CMD      -45.8860    7.8140   -4.0710 C.3   501  HEM501      0.0000
     34  CAD      -42.7200    7.7560   -5.2130 C.3   501  HEM501      0.0000
     35  CBD      -42.6100    9.1480   -5.8420 C.3   501  HEM501      0.0000
     36  CGD      -41.9250    9.1260   -7.1990 C.2   501  HEM501      0.0000
     37  O1D      -41.9860   10.1640   -7.9320 O.co2 501  HEM501      0.0000
     38  O2D      -41.3190    8.0760   -7.5660 O.co2 501  HEM501      0.0000
     39  NA       -40.4770    8.2880   -0.2020 N.2   501  HEM501      0.0000
     40  NB       -41.7140    8.5190    2.4130 N.ar  501  HEM501      0.0000
     41  NC       -44.3750    8.6080    1.1400 N.2   501  HEM501      0.0000
     42  ND       -43.1400    8.3390   -1.4860 N.ar  501  HEM501      0.0000
     43 FE        -42.4300    8.5050    0.4580 Fe    501  HEM501      0.0000
@<TRIPOS>BOND
     1    37    36   ar
     2    38    36   ar
     3    36    35    1
     4    35    34    1
     5    14    12   ar
     6    13    12   ar
     7    34    31    1
     8    12    11    1
     9    33    30    1
    10    31    30   ar
    11    31    32   ar
    12    11    10    1
    13    30    29   ar
    14    10     6    1
    15     1    32    2
    16     1     5    1
    17    32    42   ar
    18    29    42   ar
    19    29     4    2
    20     6     5    1
    21     6     7    2
    22     5    39    2
    23    42    43    1
    24     4    25    1
    25     7     9    1
    26     7     8    1
    27    39    43    1
    28    39     8    1
    29    28    27    2
    30    25    41    2
    31    25    24    1
    32    43    41    1
    33    43    40    1
    34     8     2    2
    35    27    24    1
    36    41    22    1
    37    24    23    2
    38     2    15    1
    39    40    15   ar
    40    40    18   ar
    41    22    23    1
    42    22     3    2
    43    23    26    1
    44    15    16   ar
    45    18     3    1
    46    18    17   ar
    47    16    17   ar
    48    16    19    1
    49    17    20    1
    50    20    21    2
