@<TRIPOS>MOLECULE
3vnq_ATP_A_1.pdb
 31 33 0 0 0
SMALL
GASTEIGER

@<TRIPOS>ATOM
      1  PG        46.5690  -23.9480   12.8580 P.3   601  ATP601      0.5373
      2  O1G       46.7520  -24.5030   14.2670 O.3   601  ATP601     -0.1143
      3  O2G       47.8510  -23.4350   12.2530 O.2   601  ATP601     -0.2221
      4  O3G       45.3620  -23.0410   12.7120 O.3   601  ATP601     -0.1143
      5  PB        47.1840  -26.2780   11.2620 P.3   601  ATP601      0.2277
      6  O1B       48.4550  -26.3590   12.0940 O.3   601  ATP601     -0.4368
      7  O2B       46.4250  -27.5530   10.9390 O.2   601  ATP601     -0.5168
      8  O3B       46.1580  -25.2100   11.9060 O.3   601  ATP601     -0.2258
      9  PA        46.8610  -25.8030    8.4550 P.3   601  ATP601      0.2189
     10  O1A       47.3830  -24.7170    7.5370 O.2   601  ATP601     -0.5170
     11  O2A       45.3810  -25.9590    8.6970 O.3   601  ATP601     -0.4371
     12  O3A       47.6070  -25.5680    9.8670 O.3   601  ATP601     -0.2700
     13  O5'       47.4290  -27.2380    7.9540 O.3   601  ATP601     -0.3112
     14  C5'       48.7040  -27.4030    7.3080 C.3   601  ATP601      0.1813
     15  C4'       49.3910  -28.6080    7.9680 C.3   601  ATP601      0.1821
     16  O4'       48.8340  -29.8010    7.4260 O.3   601  ATP601     -0.3135
     17  C3'       50.9020  -28.7550    7.7470 C.3   601  ATP601      0.2184
     18  O3'       51.6890  -28.0140    8.7030 O.3   601  ATP601     -0.2174
     19  C2'       51.1170  -30.2570    7.8530 C.3   601  ATP601      0.2570
     20  O2'       51.3660  -30.6880    9.2090 O.3   601  ATP601     -0.2130
     21  C1'       49.7990  -30.8550    7.3580 C.3   601  ATP601      0.3186
     22  N9        50.1620  -31.1910    5.9710 N.pl3 601  ATP601     -0.1439
     23  C8        49.9920  -30.4150    4.8870 C.3   601  ATP601      0.3377
     24  N7        50.5090  -31.0170    3.7840 N.2   601  ATP601     -0.2095
     25  C5        51.0420  -32.1890    4.1610 C.2   601  ATP601      0.2526
     26  C6        51.7340  -33.3240    3.5110 C.2   601  ATP601      0.4393
     27  N6        51.9940  -33.3400    2.1920 N.pl3 601  ATP601      0.2180
     28  N1        52.1260  -34.3610    4.2900 N.2   601  ATP601      0.0021
     29  C2        51.8890  -34.3860    5.6090 C.3   601  ATP601      0.5254
     30  N3        51.2520  -33.3970    6.2640 N.2   601  ATP601     -0.0055
     31  C4        50.8140  -32.2970    5.6100 C.2   601  ATP601      0.3518
@<TRIPOS>BOND
     1    27    26    1
     2    26    25    1
     3    26    28    2
     4    24    25    2
     5    24    23    1
     6    25    31    1
     7    28    29    1
     8    23    22    1
     9    29    30    1
    10    31    22    1
    11    31    30    2
    12    22    21    1
    13    14    13    1
    14    14    15    1
    15    21    16    1
    16    21    19    1
    17    16    15    1
    18    10     9    2
    19    17    19    1
    20    17    15    1
    21    17    18    1
    22    19    20    1
    23    13     9    1
    24     9    11    1
    25     9    12    1
    26    12     5    1
    27     7     5    2
    28     5     8    1
    29     5     6    1
    30     8     1    1
    31     3     1    2
    32     4     1    1
    33     1     2    1
