@<TRIPOS>MOLECULE
3vnr_AMP_A_1.pdb
 23 25 0 0 0
SMALL
GASTEIGER

@<TRIPOS>ATOM
      1  P         26.6010  -47.7250   -4.8480 P.3   601  AMP601      0.5327
      2  O1P       26.6140  -46.2760   -5.2300 O.2   601  AMP601     -0.2224
      3  O2P       26.8690  -48.0910   -3.3950 O.3   601  AMP601     -0.1145
      4  O3P       25.3000  -48.4190   -5.2210 O.3   601  AMP601     -0.1145
      5  O5'       27.6540  -48.4750   -5.7680 O.3   601  AMP601     -0.2675
      6  C5'       27.8800  -49.8490   -5.5980 C.3   601  AMP601      0.1860
      7  C4'       29.0730  -50.2760   -6.3910 C.3   601  AMP601      0.1823
      8  O4'       30.2820  -49.7160   -5.7990 O.3   601  AMP601     -0.3135
      9  C3'       29.3110  -51.7600   -6.4210 C.3   601  AMP601      0.2184
     10  O3'       28.4910  -52.4110   -7.3780 O.3   601  AMP601     -0.2174
     11  C2'       30.8090  -51.8560   -6.7090 C.3   601  AMP601      0.2570
     12  O2'       31.0660  -51.6620   -8.0910 O.3   601  AMP601     -0.2130
     13  C1'       31.3480  -50.6400   -5.9360 C.3   601  AMP601      0.3186
     14  N9        31.8050  -51.0190   -4.5860 N.pl3 601  AMP601     -0.1439
     15  C8        31.1970  -50.8130   -3.4090 C.3   601  AMP601      0.3377
     16  N7        31.9250  -51.3540   -2.3880 N.2   601  AMP601     -0.2095
     17  C5        33.0380  -51.9010   -2.9400 C.2   601  AMP601      0.2526
     18  C6        34.2510  -52.5820   -2.4490 C.2   601  AMP601      0.4393
     19  N6        34.4480  -52.8560   -1.1370 N.pl3 601  AMP601      0.2180
     20  N1        35.1520  -53.0110   -3.3770 N.2   601  AMP601      0.0021
     21  C2        34.9630  -52.7490   -4.6870 C.3   601  AMP601      0.5254
     22  N3        33.9200  -52.1120   -5.2170 N.2   601  AMP601     -0.0055
     23  C4        32.9370  -51.6730   -4.3780 C.2   601  AMP601      0.3518
@<TRIPOS>BOND
     1    12    11    1
     2    10     9    1
     3    11     9    1
     4    11    13    1
     5     9     7    1
     6     7     8    1
     7     7     6    1
     8    13     8    1
     9    13    14    1
    10     5     6    1
    11     5     1    1
    12     2     1    2
    13     4     1    1
    14    22    21    1
    15    22    23    2
    16     1     3    1
    17    21    20    1
    18    14    23    1
    19    14    15    1
    20    23    17    1
    21    15    16    1
    22    20    18    2
    23    17    18    1
    24    17    16    2
    25    18    19    1
