@<TRIPOS>MOLECULE
3vns_AMP_A_1.pdb
 23 25 0 0 0
SMALL
GASTEIGER

@<TRIPOS>ATOM
      1  P          5.9550   26.3240   47.2740 P.3   601  AMP601      0.5327
      2  O1P        5.2980   26.5380   45.9270 O.2   601  AMP601     -0.2224
      3  O2P        5.4040   25.2370   48.1720 O.3   601  AMP601     -0.1145
      4  O3P        7.4480   26.1310   47.0820 O.3   601  AMP601     -0.1145
      5  O5'        5.9890   27.7030   48.0730 O.3   601  AMP601     -0.2675
      6  C5'        6.0510   27.7210   49.4910 C.3   601  AMP601      0.1860
      7  C4'        6.7590   28.9530   49.9950 C.3   601  AMP601      0.1823
      8  O4'        6.0830   30.1430   49.5110 O.3   601  AMP601     -0.3135
      9  C3'        6.7750   29.1340   51.5030 C.3   601  AMP601      0.2184
     10  O3'        7.7600   28.3400   52.1440 O.3   601  AMP601     -0.2174
     11  C2'        7.0000   30.6350   51.6550 C.3   601  AMP601      0.2570
     12  O2'        8.3730   30.9540   51.4910 O.3   601  AMP601     -0.2130
     13  C1'        6.2270   31.1880   50.4490 C.3   601  AMP601      0.3186
     14  N9         4.8850   31.6640   50.8300 N.pl3 601  AMP601     -0.1439
     15  C8         3.7100   31.0500   50.5830 C.3   601  AMP601      0.3377
     16  N7         2.6740   31.7700   51.0900 N.2   601  AMP601     -0.2095
     17  C5         3.1890   32.8690   51.6760 C.2   601  AMP601      0.2526
     18  C6         2.6620   34.0510   52.4020 C.2   601  AMP601      0.4393
     19  N6         1.3340   34.2350   52.6150 N.pl3 601  AMP601      0.2180
     20  N1         3.5570   34.9580   52.8490 N.2   601  AMP601      0.0021
     21  C2         4.8810   34.8190   52.6460 C.3   601  AMP601      0.5254
     22  N3         5.4280   33.7800   51.9990 N.2   601  AMP601     -0.0055
     23  C4         4.6460   32.7910   51.4970 C.2   601  AMP601      0.3518
@<TRIPOS>BOND
     1     2     1    2
     2     4     1    1
     3     1     5    1
     4     1     3    1
     5     5     6    1
     6     6     7    1
     7     8     7    1
     8     8    13    1
     9     7     9    1
    10    13    14    1
    11    13    11    1
    12    15    14    1
    13    15    16    1
    14    14    23    1
    15    16    17    2
    16    12    11    1
    17    23    17    1
    18    23    22    2
    19     9    11    1
    20     9    10    1
    21    17    18    1
    22    22    21    1
    23    18    19    1
    24    18    20    2
    25    21    20    1
