@<TRIPOS>MOLECULE
3vnt_0JA_A_1.pdb
 38 43 0 0 0
SMALL
GASTEIGER

@<TRIPOS>ATOM
      1  F1        31.0880  -30.6230  -12.4610 F     2001  0JA2001    -0.2028
      2  C2        29.7600  -30.3580  -12.4370 C.ar  2001  0JA2001     0.1555
      3  C3        29.1420  -30.0000  -11.2610 C.ar  2001  0JA2001     0.0341
      4  C4        27.7880  -29.7370  -11.2490 C.ar  2001  0JA2001     0.0400
      5  C5        27.0730  -29.8370  -12.4220 C.ar  2001  0JA2001     0.1496
      6  O6        25.6930  -29.6300  -12.4240 O.3   2001  0JA2001    -0.4273
      7  C7        25.1260  -28.3910  -12.2010 C.2   2001  0JA2001     0.2827
      8  C8        25.8380  -27.2260  -12.3550 C.2   2001  0JA2001     0.0748
      9  C9        25.2100  -26.0180  -12.1210 C.2   2001  0JA2001     0.0413
     10  C10       23.8780  -26.0640  -11.7530 C.2   2001  0JA2001     0.1698
     11  N11       23.0500  -25.0050  -11.4760 N.2   2001  0JA2001    -0.3755
     12  C12       21.8430  -25.4370  -11.1710 C.2   2001  0JA2001     0.2395
     13  N13       20.8000  -24.5850  -10.8450 N.am  2001  0JA2001    -0.1434
     14  C14       19.5900  -25.0440  -10.3930 C.2   2001  0JA2001     0.2476
     15  O15       19.2530  -26.2090  -10.2410 O.2   2001  0JA2001    -0.2729
     16  C16       18.6640  -23.9440  -10.0780 C.3   2001  0JA2001     0.0787
     17  C17       17.1860  -24.1460  -10.2660 C.3   2001  0JA2001     0.0096
     18  C18       17.7490  -24.0250   -8.8860 C.3   2001  0JA2001     0.0096
     19  S19       21.6080  -27.1490  -11.1940 S.3   2001  0JA2001    -0.0038
     20  C20       23.2640  -27.2950  -11.6430 C.2   2001  0JA2001     0.1975
     21  N21       23.8380  -28.4750  -11.8590 N.2   2001  0JA2001    -0.3580
     22  C22       27.6930  -30.2040  -13.6030 C.ar  2001  0JA2001     0.0565
     23  C23       29.0510  -30.4510  -13.6060 C.ar  2001  0JA2001     0.1041
     24  N24       29.7810  -30.8370  -14.7430 N.am  2001  0JA2001    -0.1730
     25  C25       29.4170  -30.4630  -16.0070 C.2   2001  0JA2001     0.2699
     26  O26       28.4320  -29.7900  -16.2820 O.2   2001  0JA2001    -0.2680
     27  C27       30.1950  -31.0370  -17.1270 C.ar  2001  0JA2001     0.0657
     28  C28       30.5090  -32.3740  -17.0630 C.ar  2001  0JA2001     0.0054
     29  C29       31.2010  -32.9490  -18.1070 C.ar  2001  0JA2001    -0.0001
     30  C30       31.5450  -32.1990  -19.2080 C.ar  2001  0JA2001    -0.0025
     31  C31       31.2310  -30.8580  -19.2950 C.ar  2001  0JA2001     0.0011
     32  C32       30.5510  -30.2850  -18.2330 C.ar  2001  0JA2001     0.0590
     33 CL3        30.1650  -28.6030  -18.3180 Cl    2001  0JA2001    -0.0824
     34  C34       31.6170  -30.0800  -20.4950 C.3   2001  0JA2001     0.0988
     35  C35       31.5710  -30.7850  -21.8250 C.3   2001  0JA2001     0.0196
     36  C36       30.4960  -29.8070  -21.4710 C.3   2001  0JA2001     0.0196
     37  C37       32.5800  -29.0410  -20.4090 C.1   2001  0JA2001     0.0752
     38  N38       33.3740  -28.2030  -20.3270 N.1   2001  0JA2001    -0.1956
@<TRIPOS>BOND
     1    35    36    1
     2    35    34    1
     3    36    34    1
     4    34    37    1
     5    34    31    1
     6    37    38    3
     7    31    30   ar
     8    31    32   ar
     9    30    29   ar
    10    33    32    1
    11    32    27   ar
    12    29    28   ar
    13    27    28   ar
    14    27    25    1
    15    26    25    2
    16    25    24   am
    17    24    23    1
    18    23    22   ar
    19    23     2   ar
    20    22     5   ar
    21     1     2    1
    22     2     3   ar
    23     6     5    1
    24     6     7    1
    25     5     4   ar
    26     8     7    1
    27     8     9    2
    28     7    21    2
    29     9    10    1
    30    21    20    2
    31    10    20    1
    32    10    11    2
    33    20    19    1
    34    11    12    2
    35     3     4   ar
    36    19    12    1
    37    12    13    1
    38    13    14   am
    39    14    15    2
    40    14    16    1
    41    17    16    1
    42    17    18    1
    43    16    18    1
