@<TRIPOS>MOLECULE
3vnu_ATP_A_1.pdb
 31 33 0 0 0
SMALL
GASTEIGER

@<TRIPOS>ATOM
      1  PG        17.4290   71.4410   -2.3170 P.3   2501  ATP2501     0.5373
      2  O1G       18.2650   70.5610   -1.4190 O.3   2501  ATP2501    -0.1143
      3  O2G       17.8510   71.4750   -3.7730 O.2   2501  ATP2501    -0.2221
      4  O3G       17.2120   72.8190   -1.7410 O.3   2501  ATP2501    -0.1143
      5  PB        15.6490   69.2470   -1.8950 P.3   2501  ATP2501     0.2277
      6  O1B       14.9000   69.2190   -0.6280 O.3   2501  ATP2501    -0.4368
      7  O2B       14.9630   68.5210   -3.0130 O.2   2501  ATP2501    -0.5168
      8  O3B       15.9460   70.7860   -2.3010 O.3   2501  ATP2501    -0.2258
      9  PA        17.7410   67.4560   -2.3040 P.3   2501  ATP2501     0.2189
     10  O1A       19.0670   67.1380   -1.6910 O.3   2501  ATP2501    -0.4371
     11  O2A       17.6580   67.8840   -3.7490 O.2   2501  ATP2501    -0.5170
     12  O3A       17.0150   68.5630   -1.3920 O.3   2501  ATP2501    -0.2700
     13  O5'       16.9820   66.0860   -2.1020 O.3   2501  ATP2501    -0.3112
     14  C5'       16.4720   65.3540   -3.1850 C.3   2501  ATP2501     0.1813
     15  C4'       15.5020   64.4720   -2.4580 C.3   2501  ATP2501     0.1821
     16  O4'       16.2100   63.7840   -1.4260 O.3   2501  ATP2501    -0.3135
     17  C3'       14.4160   65.2550   -1.7270 C.3   2501  ATP2501     0.2184
     18  O3'       13.2130   65.4590   -2.4660 O.3   2501  ATP2501    -0.2174
     19  C2'       14.0770   64.3740   -0.5480 C.3   2501  ATP2501     0.2570
     20  O2'       12.8750   63.6210   -0.7950 O.3   2501  ATP2501    -0.2130
     21  C1'       15.2550   63.4160   -0.4110 C.3   2501  ATP2501     0.3186
     22  N9        15.7840   63.4320    0.9940 N.pl3 2501  ATP2501    -0.1439
     23  C8        17.0270   63.8030    1.3520 C.3   2501  ATP2501     0.3377
     24  N7        17.1940   63.7060    2.7020 N.2   2501  ATP2501    -0.2095
     25  C5        16.0260   63.2730    3.2390 C.2   2501  ATP2501     0.2526
     26  C6        15.4820   62.9450    4.5980 C.2   2501  ATP2501     0.4393
     27  N6        16.2290   63.0570    5.7200 N.pl3 2501  ATP2501     0.2180
     28  N1        14.1990   62.5140    4.6960 N.2   2501  ATP2501     0.0021
     29  C2        13.4050   62.3790    3.6110 C.3   2501  ATP2501     0.5254
     30  N3        13.8260   62.6500    2.3600 N.2   2501  ATP2501    -0.0055
     31  C4        15.0960   63.0930    2.1060 C.2   2501  ATP2501     0.3518
@<TRIPOS>BOND
     1     3     1    2
     2    11     9    2
     3    14    15    1
     4    14    13    1
     5     7     5    2
     6    18    17    1
     7    15    17    1
     8    15    16    1
     9     1     8    1
    10     1     4    1
    11     1     2    1
    12     9    13    1
    13     9    10    1
    14     9    12    1
    15     8     5    1
    16     5    12    1
    17     5     6    1
    18    17    19    1
    19    16    21    1
    20    20    19    1
    21    19    21    1
    22    21    22    1
    23    22    23    1
    24    22    31    1
    25    23    24    1
    26    31    30    2
    27    31    25    1
    28    30    29    1
    29    24    25    2
    30    25    26    1
    31    29    28    1
    32    26    28    2
    33    26    27    1
