@<TRIPOS>MOLECULE
3vnv_CH1_A_1.pdb
 28 29 0 0 0
SMALL
GASTEIGER

@<TRIPOS>ATOM
      1  N1        53.8950   63.6940   -0.3890 N.am  2501  CH12501    -0.1779
      2  C2        54.1830   63.4240   -1.6960 C.1   2501  CH12501     0.2756
      3  N3        53.2250   63.5780   -2.6630 N.2   2501  CH12501    -0.3024
      4  C4        51.9860   64.0020   -2.3310 C.2   2501  CH12501     0.2346
      5  C5        51.7080   64.2730   -0.9850 C.2   2501  CH12501     0.0687
      6  C6        52.6810   64.1060   -0.0330 C.2   2501  CH12501     0.0836
      7  O2        55.3180   63.0400   -1.9960 O.2   2501  CH12501    -0.1925
      8  N4        50.9180   64.1750   -3.3540 N.pl3 2501  CH12501    -0.0921
      9  C1'       54.9590   63.5260    0.6700 C.3   2501  CH12501     0.2373
     10  C2'       55.9970   64.5020    0.6840 C.3   2501  CH12501     0.2019
     11  O2'       57.2360   63.8480    0.6820 O.3   2501  CH12501    -0.2185
     12  C3'       55.8120   65.3060    1.9020 C.3   2501  CH12501     0.0695
     13  C4'       54.8350   64.6450    2.6810 C.3   2501  CH12501     0.1498
     14  O4'       54.4060   63.5120    1.9670 O.3   2501  CH12501    -0.3347
     15  C5'       53.6660   65.5390    2.9240 C.3   2501  CH12501     0.1786
     16  O5'       53.6510   66.7270    2.2230 O.3   2501  CH12501    -0.3113
     17  PA        52.3240   67.5250    2.3660 P.3   2501  CH12501     0.2189
     18  O1A       51.1740   66.8250    1.7160 O.2   2501  CH12501    -0.5170
     19  O2A       52.0490   67.6000    3.8750 O.3   2501  CH12501    -0.4371
     20  O3A       52.5190   69.0080    1.8770 O.3   2501  CH12501    -0.2700
     21  PB        53.8600   69.8300    1.8000 P.3   2501  CH12501     0.2277
     22  O1B       54.6410   69.4500    0.6170 O.2   2501  CH12501    -0.5168
     23  O2B       54.8240   69.6690    2.9890 O.3   2501  CH12501    -0.4368
     24  O3B       53.3020   71.3480    1.5690 O.3   2501  CH12501    -0.2258
     25  PG        52.1240   72.0670    2.4430 P.3   2501  CH12501     0.5373
     26  O1G       50.8650   72.0540    1.6210 O.2   2501  CH12501    -0.2221
     27  O2G       52.4790   73.5520    2.6610 O.3   2501  CH12501    -0.1143
     28  O3G       51.8160   71.4480    3.8010 O.3   2501  CH12501    -0.1143
@<TRIPOS>BOND
     1     8     4    1
     2     3     4    2
     3     3     2    2
     4     4     5    1
     5     7     2    2
     6     2     1   am
     7     5     6    2
     8     1     6    1
     9     1     9    1
    10    22    21    2
    11     9    10    1
    12     9    14    1
    13    11    10    1
    14    10    12    1
    15    24    21    1
    16    24    25    1
    17    26    25    2
    18    18    17    2
    19    21    20    1
    20    21    23    1
    21    20    17    1
    22    12    13    1
    23    14    13    1
    24    16    17    1
    25    16    15    1
    26    17    19    1
    27    25    27    1
    28    25    28    1
    29    13    15    1
