@<TRIPOS>MOLECULE
3vnw_HEM_A_1.pdb
 43 50 0 0 0
SMALL
GASTEIGER

@<TRIPOS>ATOM
      1  CHA       32.2380   -6.3860    4.6950 C.2   200  HEM200      0.0000
      2  CHB       32.1360  -10.6820    2.4150 C.2   200  HEM200      0.0000
      3  CHC       35.8020  -12.2610    5.1750 C.2   200  HEM200      0.0000
      4  CHD       34.8280   -8.6400    8.2080 C.2   200  HEM200      0.0000
      5  C1A       31.9500   -7.3620    3.7540 C.ar  200  HEM200      0.0000
      6  C2A       31.1470   -7.2250    2.5580 C.ar  200  HEM200      0.0000
      7  C3A       31.1320   -8.4180    1.9260 C.ar  200  HEM200      0.0000
      8  C4A       31.9260   -9.3450    2.6970 C.ar  200  HEM200      0.0000
      9  CMA       30.4170   -8.8150    0.6220 C.3   200  HEM200      0.0000
     10  CAA       30.4490   -5.9140    2.1250 C.3   200  HEM200      0.0000
     11  CBA       29.1520   -5.7390    2.9100 C.3   200  HEM200      0.0000
     12  CGA       28.5330   -4.3890    2.6170 C.2   200  HEM200      0.0000
     13  O1A       27.3870   -4.1270    3.0830 O.co2 200  HEM200      0.0000
     14  O2A       29.1580   -3.5670    1.9080 O.co2 200  HEM200      0.0000
     15  C1B       33.1690  -11.4200    2.9260 C.2   200  HEM200      0.0000
     16  C2B       33.6820  -12.6260    2.3370 C.2   200  HEM200      0.0000
     17  C3B       34.6990  -13.0430    3.0900 C.2   200  HEM200      0.0000
     18  C4B       34.8650  -12.1360    4.1870 C.2   200  HEM200      0.0000
     19  CMB       33.1010  -13.2830    1.0660 C.3   200  HEM200      0.0000
     20  CAB       35.5910  -14.2750    2.8400 C.2   200  HEM200      0.0000
     21  CBB       36.1860  -14.3490    1.6260 C.2   200  HEM200      0.0000
     22  C1C       35.8190  -11.4800    6.2970 C.ar  200  HEM200      0.0000
     23  C2C       36.5640  -11.7330    7.5150 C.ar  200  HEM200      0.0000
     24  C3C       36.3020  -10.7160    8.3600 C.ar  200  HEM200      0.0000
     25  C4C       35.3590   -9.8110    7.7040 C.ar  200  HEM200      0.0000
     26  CMC       37.4770  -12.9630    7.7250 C.3   200  HEM200      0.0000
     27  CAC       36.8860  -10.5280    9.7880 C.2   200  HEM200      0.0000
     28  CBC       38.2180  -10.3530   10.0190 C.2   200  HEM200      0.0000
     29  C1D       34.1120   -7.6640    7.5460 C.2   200  HEM200      0.0000
     30  C2D       33.8040   -6.3510    8.0840 C.2   200  HEM200      0.0000
     31  C3D       33.0050   -5.6480    6.9940 C.2   200  HEM200      0.0000
     32  C4D       32.8910   -6.5960    5.9050 C.2   200  HEM200      0.0000
     33  CMD       34.2010   -5.7870    9.4660 C.3   200  HEM200      0.0000
     34  CAD       32.4330   -4.2190    7.0560 C.3   200  HEM200      0.0000
     35  CBD       33.6280   -3.2690    6.8790 C.3   200  HEM200      0.0000
     36  CGD       33.2470   -1.9000    7.3540 C.2   200  HEM200      0.0000
     37  O1D       33.5260   -0.9090    6.6340 O.co2 200  HEM200      0.0000
     38  O2D       32.6590   -1.8090    8.4630 O.co2 200  HEM200      0.0000
     39  NA        32.3980   -8.6710    3.7980 N.ar  200  HEM200      0.0000
     40  NB        33.9160  -11.1390    4.0580 N.2   200  HEM200      0.0000
     41  NC        35.0980  -10.3080    6.4440 N.ar  200  HEM200      0.0000
     42  ND        33.5510   -7.7610    6.2750 N.2   200  HEM200      0.0000
     43 FE         33.7520   -9.4990    5.1030 Fe    200  HEM200      0.0000
@<TRIPOS>BOND
     1     9     7    1
     2    19    16    1
     3    21    20    2
     4    14    12   ar
     5     7     6   ar
     6     7     8   ar
     7    10     6    1
     8    10    11    1
     9    16    15    1
    10    16    17    2
    11     2     8    2
    12     2    15    1
    13     6     5   ar
    14    12    11    1
    15    12    13   ar
    16     8    39   ar
    17    20    17    1
    18    15    40    2
    19    17    18    1
    20     5    39   ar
    21     5     1    2
    22    39    43    1
    23    40    18    1
    24    40    43    1
    25    18     3    2
    26     1    32    1
    27    43    42    1
    28    43    41    1
    29     3    22    1
    30    32    42    2
    31    32    31    1
    32    42    29    1
    33    22    41   ar
    34    22    23   ar
    35    41    25   ar
    36    37    36   ar
    37    35    34    1
    38    35    36    1
    39    31    34    1
    40    31    30    2
    41    36    38   ar
    42    23    26    1
    43    23    24   ar
    44    29    30    1
    45    29     4    2
    46    25     4    1
    47    25    24   ar
    48    30    33    1
    49    24    27    1
    50    27    28    2
