@<TRIPOS>MOLECULE
3vnz_BDP_A_1.pdb
 13 13 0 0 0
SMALL
GASTEIGER

@<TRIPOS>ATOM
      1  C1        34.8670    2.1150   34.0550 C.3   501  BDP501      0.3028
      2  C2        35.0700    1.0970   32.9190 C.3   501  BDP501      0.2435
      3  C3        35.4730   -0.2690   33.4810 C.3   501  BDP501      0.2204
      4  C4        36.5920   -0.1140   34.5000 C.3   501  BDP501      0.2229
      5  C5        36.2800    0.9820   35.5280 C.3   501  BDP501      0.2530
      6  C6        37.4530    1.2610   36.4280 C.2   501  BDP501      0.3941
      7  O2        33.8610    0.9750   32.2190 O.3   501  BDP501     -0.2148
      8  O3        35.9010   -1.1400   32.4420 O.3   501  BDP501     -0.2174
      9  O4        36.8790   -1.3120   35.1890 O.3   501  BDP501     -0.2171
     10  O5        36.0260    2.1700   34.8300 O.3   501  BDP501     -0.3149
     11  O6A       38.2740    2.1220   36.0330 O.co2 501  BDP501     -0.2429
     12  O1        34.7150    3.3930   33.4980 O.3   501  BDP501     -0.1869
     13  O6B       37.5560    0.6340   37.5070 O.co2 501  BDP501     -0.2429
@<TRIPOS>BOND
     1     7     2    1
     2     8     3    1
     3     2     3    1
     4     2     1    1
     5     3     4    1
     6    12     1    1
     7     1    10    1
     8     4     9    1
     9     4     5    1
    10    10     5    1
    11     5     6    1
    12    11     6   ar
    13     6    13   ar
