@<TRIPOS>MOLECULE
3vo0_GUZ_A_1.pdb
 12 12 0 0 0
SMALL
GASTEIGER

@<TRIPOS>ATOM
      1  C1        33.9680    1.1330   34.1900 C.3   501  GUZ501      0.1807
      2  C2        34.7140    0.4940   33.0220 C.3   501  GUZ501      0.2231
      3  F2        33.7550    0.1610   32.0850 F     501  GUZ501     -0.2317
      4  C3        35.3990   -0.7530   33.5280 C.3   501  GUZ501      0.2199
      5  O3        36.0940   -1.3810   32.4590 O.3   501  GUZ501     -0.2173
      6  C4        36.3570   -0.3200   34.6370 C.3   501  GUZ501      0.2229
      7  O4        36.9200   -1.4410   35.3000 O.3   501  GUZ501     -0.2171
      8  C5        35.6810    0.5810   35.6840 C.3   501  GUZ501      0.2512
      9  C6        36.7220    1.1940   36.6170 C.2   501  GUZ501      0.3940
     10  O6A       37.2550    2.2670   36.2660 O.co2 501  GUZ501     -0.2429
     11  O6B       37.0130    0.6010   37.6860 O.co2 501  GUZ501     -0.2429
     12  O5        34.9440    1.6270   35.0630 O.3   501  GUZ501     -0.3401
@<TRIPOS>BOND
     1     3     2    1
     2     5     4    1
     3     2     4    1
     4     2     1    1
     5     4     6    1
     6     1    12    1
     7     6     7    1
     8     6     8    1
     9    12     8    1
    10     8     9    1
    11    10     9   ar
    12     9    11   ar
