@<TRIPOS>MOLECULE
3vo0_DNF_A_1.pdb
 13 13 0 0 0
SMALL
GASTEIGER

@<TRIPOS>ATOM
      1  C1        42.3040    3.5280   26.9820 C.ar  503  DNF503      0.2181
      2  O1        43.5430    4.0220   27.2900 O.3   503  DNF503     -0.2848
      3  C2        41.4100    3.3600   28.0490 C.ar  503  DNF503      0.1832
      4  N2        41.7670    3.6750   29.3030 N.pl3 503  DNF503      0.0609
      5  O21       40.7810    3.9670   30.1780 O.2   503  DNF503     -0.1260
      6  O22       43.0820    3.6100   29.7090 O.2   503  DNF503     -0.1260
      7  C3        40.1380    2.8600   27.8090 C.ar  503  DNF503      0.0514
      8  C4        39.7330    2.5100   26.5270 C.ar  503  DNF503      0.1447
      9  N4        38.4980    2.0250   26.3880 N.pl3 503  DNF503      0.0577
     10  O41       38.0500    1.5870   25.1710 O.2   503  DNF503     -0.1261
     11  O42       37.7640    1.9360   27.4240 O.2   503  DNF503     -0.1261
     12  C5        40.6160    2.6700   25.4540 C.ar  503  DNF503      0.0275
     13  C6        41.9020    3.1700   25.6850 C.ar  503  DNF503      0.0455
@<TRIPOS>BOND
     1    10     9    2
     2    12    13   ar
     3    12     8   ar
     4    13     1   ar
     5     9     8    1
     6     9    11    2
     7     8     7   ar
     8     1     2    1
     9     1     3   ar
    10     7     3   ar
    11     3     4    1
    12     4     6    2
    13     4     5    2
