@<TRIPOS>MOLECULE
3vo0_GUF_A_1.pdb
 12 12 0 0 0
SMALL
GASTEIGER

@<TRIPOS>ATOM
      1  O6A       47.2710    1.8400   24.9210 O.co2 502  GUF502     -0.2429
      2  C6        46.6500    2.5690   24.1140 C.2   502  GUF502      0.3940
      3  O6B       46.4860    2.3230   22.8980 O.co2 502  GUF502     -0.2429
      4  C5        45.9820    3.8500   24.6500 C.3   502  GUF502      0.2512
      5  O5        45.0580    3.4980   25.7060 O.3   502  GUF502     -0.3401
      6  C4        47.0020    4.8720   25.1830 C.3   502  GUF502      0.2229
      7  O4        47.8270    5.3130   24.1190 O.3   502  GUF502     -0.2171
      8  C3        46.2740    6.1000   25.7690 C.3   502  GUF502      0.2199
      9  O3        47.2310    6.9510   26.4140 O.3   502  GUF502     -0.2173
     10  C2        45.2190    5.6820   26.8050 C.3   502  GUF502      0.2231
     11  F2        44.5260    6.7910   27.2680 F     502  GUF502     -0.2317
     12  C1        44.2850    4.5960   26.2230 C.3   502  GUF502      0.1807
@<TRIPOS>BOND
     1     3     2   ar
     2     2     4    1
     3     2     1   ar
     4     7     6    1
     5     4     6    1
     6     4     5    1
     7     6     8    1
     8     5    12    1
     9     8     9    1
    10     8    10    1
    11    12    10    1
    12    10    11    1
