@<TRIPOS>MOLECULE
3vo3_0KF_A_1.pdb
 32 36 0 0 0
SMALL
GASTEIGER

@<TRIPOS>ATOM
      1  C3        28.7020  -29.2840  -11.4360 C.ar  2001  0KF2001     0.0045
      2  C4        29.3740  -29.6490  -12.5760 C.ar  2001  0KF2001     0.0168
      3  C2        27.3510  -29.0230  -11.4500 C.ar  2001  0KF2001     0.0376
      4  C6        27.3310  -29.4750  -13.8110 C.ar  2001  0KF2001     0.0541
      5  C11       30.6960  -31.3200  -17.2220 C.ar  2001  0KF2001     0.0398
      6  C23       21.7480  -26.2180  -11.3970 C.3   2001  0KF2001     0.1952
      7  C5        28.6850  -29.7320  -13.7650 C.ar  2001  0KF2001     0.0768
      8  C1        26.6800  -29.1200  -12.6480 C.ar  2001  0KF2001     0.1485
      9  C10       30.0310  -30.1130  -17.1560 C.ar  2001  0KF2001     0.1343
     10  C12       31.3820  -31.2990  -18.4600 C.ar  2001  0KF2001     0.0806
     11  C24       21.6840  -24.8830  -11.2920 C.2   2001  0KF2001     0.2064
     12  C21       23.6410  -25.2910  -11.8950 C.2   2001  0KF2001     0.2041
     13  C20       24.9260  -25.2090  -12.2860 C.2   2001  0KF2001     0.0542
     14  C19       25.4950  -26.4950  -12.5680 C.2   2001  0KF2001     0.0634
     15  C18       24.8010  -27.6490  -12.4320 C.2   2001  0KF2001     0.2446
     16  C8        29.1730  -29.5730  -16.1460 C.2   2001  0KF2001     0.2864
     17  C27       19.3520  -24.6680  -10.5510 C.2   2001  0KF2001     0.2470
     18  C30       17.4360  -23.7910   -9.0540 C.3   2001  0KF2001     0.0096
     19  C31       16.8980  -23.9030  -10.4470 C.3   2001  0KF2001     0.0096
     20  C29       18.3590  -23.6310  -10.2280 C.3   2001  0KF2001     0.0786
     21  C16       32.2450  -32.3450  -19.0370 C.3   2001  0KF2001     0.0540
     22  C15       29.9180  -28.1600  -18.7540 C.3   2001  0KF2001     0.1539
     23  N13       31.1690  -30.1660  -19.1310 N.ar  2001  0KF2001    -0.1735
     24  N25       22.8860  -24.2780  -11.6060 N.2   2001  0KF2001    -0.3712
     25  N32       23.6020  -27.6910  -12.0400 N.2   2001  0KF2001    -0.1376
     26  N22       23.0300  -26.4900  -11.7770 N.pl3 2001  0KF2001    -0.1733
     27  N14       30.3600  -29.4710  -18.3210 N.ar  2001  0KF2001    -0.2446
     28  N7        29.3950  -30.1050  -14.9080 N.am  2001  0KF2001    -0.1741
     29  N26       20.5640  -24.1420  -10.9430 N.am  2001  0KF2001    -0.1514
     30  O9        28.3080  -28.7490  -16.3920 O.2   2001  0KF2001    -0.2664
     31  O28       19.0770  -25.8560  -10.4480 O.2   2001  0KF2001    -0.2729
     32  O17       25.3200  -28.8930  -12.7130 O.3   2001  0KF2001    -0.4350
@<TRIPOS>BOND
     1    23    10   ar
     2    23    27   ar
     3    21    10    1
     4    22    27    1
     5    10     5   ar
     6    27     9   ar
     7     5     9   ar
     8     9    16    1
     9    30    16    2
    10    16    28   am
    11    28     7    1
    12     4     7   ar
    13     4     8   ar
    14     7     2   ar
    15    32     8    1
    16    32    15    1
    17     8     3   ar
    18     2     1   ar
    19    14    15    1
    20    14    13    2
    21    15    25    2
    22    13    12    1
    23    25    26    1
    24    12    26    1
    25    12    24    2
    26    26     6    1
    27    24    11    2
    28     3     1   ar
    29     6    11    1
    30    11    29    1
    31    29    17   am
    32    17    31    2
    33    17    20    1
    34    19    20    1
    35    19    18    1
    36    20    18    1
