@<TRIPOS>MOLECULE
3vo8_GDP_A_1.pdb
 28 30 0 0 0
SMALL
GASTEIGER

@<TRIPOS>ATOM
      1  PB        17.6950    0.3450   -4.1820 P.3   502  GDP502      0.5373
      2  O1B       16.4400    1.0380   -4.6560 O.3   502  GDP502     -0.1143
      3  O2B       17.5090   -1.1380   -4.3030 O.3   502  GDP502     -0.1143
      4  O3B       18.9010    0.8390   -4.9220 O.2   502  GDP502     -0.2221
      5  O3A       17.9690    0.6920   -2.6390 O.3   502  GDP502     -0.2261
      6  PA        17.1650    0.0660   -1.3930 P.3   502  GDP502      0.2231
      7  O1A       17.8200   -1.1970   -0.8860 O.3   502  GDP502     -0.4370
      8  O2A       15.7050   -0.1460   -1.7240 O.2   502  GDP502     -0.5169
      9  O5'       17.3880    1.2470   -0.3200 O.3   502  GDP502     -0.3111
     10  C5'       16.7050    2.4950   -0.4120 C.3   502  GDP502      0.1813
     11  C4'       16.2200    2.9220    0.9690 C.3   502  GDP502      0.1799
     12  O4'       15.1970    2.0320    1.3910 O.3   502  GDP502     -0.3326
     13  C3'       17.2960    2.8090    2.0340 C.3   502  GDP502      0.2158
     14  O3'       17.9980    4.0450    2.1090 O.3   502  GDP502     -0.2175
     15  C2'       16.5510    2.4880    3.3220 C.3   502  GDP502      0.2310
     16  O2'       16.0960    3.6830    3.9730 O.3   502  GDP502     -0.2158
     17  C1'       15.2990    1.8020    2.8070 C.3   502  GDP502      0.2293
     18  N9        15.2420    0.3290    2.9620 N.pl3 502  GDP502     -0.2354
     19  C8        15.9720   -0.5960    2.3220 C.3   502  GDP502      0.2246
     20  N7        15.5820   -1.8430    2.6890 N.2   502  GDP502     -0.2322
     21  C5        14.5640   -1.7200    3.5700 C.2   502  GDP502      0.2182
     22  C6        13.6650   -2.6080    4.3490 C.1   502  GDP502      0.2372
     23  O6        13.7600   -3.8460    4.2770 O.2   502  GDP502     -0.2069
     24  N1        12.7480   -2.0390    5.1550 N.2   502  GDP502     -0.2485
     25  C2        12.6090   -0.7040    5.2510 C.1   502  GDP502      0.2531
     26  N2        11.6540   -0.1930    6.0610 N.pl3 502  GDP502     -0.0226
     27  N3        13.3890    0.1630    4.5620 N.2   502  GDP502     -0.3074
     28  C4        14.3520   -0.2790    3.7330 C.2   502  GDP502      0.2300
@<TRIPOS>BOND
     1     4     1    2
     2     2     1    1
     3     3     1    1
     4     1     5    1
     5     5     6    1
     6     8     6    2
     7     6     7    1
     8     6     9    1
     9    10     9    1
    10    10    11    1
    11    11    12    1
    12    11    13    1
    13    12    17    1
    14    13    14    1
    15    13    15    1
    16    19    20    1
    17    19    18    1
    18    20    21    2
    19    17    18    1
    20    17    15    1
    21    18    28    1
    22    15    16    1
    23    21    28    1
    24    21    22    1
    25    28    27    2
    26    23    22    2
    27    22    24    2
    28    27    25    2
    29    24    25    2
    30    25    26    1
