@<TRIPOS>MOLECULE
3voa_GDP_A_1.pdb
 28 30 0 0 0
SMALL
GASTEIGER

@<TRIPOS>ATOM
      1  PB         5.1440   -9.9370   26.7910 P.3   401  GDP401      0.5373
      2  O1B        5.7870  -11.1230   27.4550 O.3   401  GDP401     -0.1143
      3  O2B        3.7410   -9.7300   27.3060 O.3   401  GDP401     -0.1143
      4  O3B        5.9530   -8.6840   27.0200 O.2   401  GDP401     -0.2221
      5  O3A        5.0640  -10.2810   25.2230 O.3   401  GDP401     -0.2261
      6  PA         5.0510   -9.1990   24.0440 P.3   401  GDP401      0.2231
      7  O1A        6.4230   -8.6260   23.7650 O.2   401  GDP401     -0.5169
      8  O2A        4.0270   -8.1200   24.3540 O.3   401  GDP401     -0.4370
      9  O5'        4.6020  -10.1240   22.8320 O.3   401  GDP401     -0.3111
     10  C5'        3.3920  -10.8660   22.9310 C.3   401  GDP401      0.1813
     11  C4'        2.7170  -10.9100   21.5650 C.3   401  GDP401      0.1799
     12  O4'        2.3660   -9.5910   21.1520 O.3   401  GDP401     -0.3326
     13  C3'        3.6260  -11.4360   20.4720 C.3   401  GDP401      0.2158
     14  O3'        3.4590  -12.8580   20.4190 O.3   401  GDP401     -0.2175
     15  C2'        3.1430  -10.7250   19.2110 C.3   401  GDP401      0.2310
     16  O2'        2.0720  -11.4650   18.6150 O.3   401  GDP401     -0.2158
     17  C1'        2.4880   -9.4600   19.7290 C.3   401  GDP401      0.2293
     18  N9         3.2140   -8.1760   19.6320 N.pl3 401  GDP401     -0.2354
     19  C8         4.2940   -7.8110   20.3500 C.3   401  GDP401      0.2246
     20  N7         4.6580   -6.5350   20.0760 N.2   401  GDP401     -0.2322
     21  C5         3.7530   -6.0620   19.1880 C.2   401  GDP401      0.2182
     22  C6         3.5210   -4.7960   18.4790 C.1   401  GDP401      0.2372
     23  O6         4.2800   -3.8290   18.6630 O.2   401  GDP401     -0.2069
     24  N1         2.4770   -4.7230   17.6420 N.2   401  GDP401     -0.2485
     25  C2         1.6370   -5.7610   17.4330 C.1   401  GDP401      0.2531
     26  N2         0.6000   -5.6070   16.5700 N.pl3 401  GDP401     -0.0226
     27  N3         1.7800   -6.9530   18.0470 N.2   401  GDP401     -0.3074
     28  C4         2.8000   -7.1450   18.9160 C.2   401  GDP401      0.2300
@<TRIPOS>BOND
     1    26    25    1
     2    25    24    2
     3    25    27    2
     4    24    22    2
     5    27    28    2
     6    22    23    2
     7    22    21    1
     8    16    15    1
     9    28    21    1
    10    28    18    1
    11    21    20    2
    12    15    17    1
    13    15    13    1
    14    18    17    1
    15    18    19    1
    16    17    12    1
    17    20    19    1
    18    14    13    1
    19    13    11    1
    20    12    11    1
    21    11    10    1
    22     9    10    1
    23     9     6    1
    24     7     6    2
    25     6     8    1
    26     6     5    1
    27     5     1    1
    28     1     4    2
    29     1     3    1
    30     1     2    1
