@<TRIPOS>MOLECULE
3vob_9PC_A_1.pdb
 23 25 0 0 0
SMALL
GASTEIGER

@<TRIPOS>ATOM
      1  C11       -2.3490    6.1160   23.5660 C.2   403  9PC403      0.0616
      2  C12       -2.5800    7.4610   23.7420 C.3   403  9PC403      0.1005
      3  N          5.6290   15.2130   21.1860 N.am  403  9PC403     -0.0836
      4  C13        2.8290   13.5240   21.3990 C.ar  403  9PC403      0.1804
      5  C1         3.2150   14.8900   20.9830 C.ar  403  9PC403      0.1144
      6  C2         2.2070   15.9620   21.2120 C.ar  403  9PC403      0.1470
      7  C3         0.9760   15.6620   21.7970 C.ar  403  9PC403      0.0331
      8  F1         3.6650   12.5000   21.2200 F     403  9PC403     -0.2007
      9  C          4.5710   15.1660   20.3660 C.2   403  9PC403      0.2887
     10  O          4.6770   15.3360   19.1500 O.2   403  9PC403     -0.2665
     11  C5         1.4980   13.3040   22.0160 C.ar  403  9PC403      0.1667
     12  C4         0.6190   14.3720   22.1870 C.ar  403  9PC403      0.0416
     13  F          2.4760   17.2320   20.8710 F     403  9PC403     -0.2039
     14  O1         1.1200   12.0440   22.4020 O.3   403  9PC403     -0.4650
     15  C6        -0.2810   11.7700   22.4430 C.3   403  9PC403      0.2704
     16  C7        -0.6060   10.2990   22.6000 C.2   403  9PC403      0.1835
     17  S          0.4620    9.0970   21.9060 S.3   403  9PC403     -0.0349
     18  C9        -0.5130    7.8520   22.4740 C.2   403  9PC403      0.1385
     19  N2        -0.3260    6.5220   22.3320 N.2   403  9PC403     -0.2344
     20  C10       -1.2280    5.6650   22.8660 C.2   403  9PC403      0.1069
     21 CL         -3.5400    4.9950   24.2810 Cl    403  9PC403     -0.0849
     22  C8        -1.6860    8.3630   23.2110 C.2   403  9PC403      0.1383
     23  N1        -1.6580    9.7280   23.2510 N.2   403  9PC403     -0.3978
@<TRIPOS>BOND
     1    10     9    2
     2     9     5    1
     3     9     3   am
     4    13     6    1
     5     5     6   ar
     6     5     4   ar
     7     6     7   ar
     8     8     4    1
     9     4    11   ar
    10     7    12   ar
    11    17    18    1
    12    17    16    1
    13    11    12   ar
    14    11    14    1
    15    19    18    2
    16    19    20    1
    17    14    15    1
    18    15    16    1
    19    18    22    1
    20    16    23    2
    21    20     1    2
    22    22    23    2
    23    22     2    1
    24     1     2    1
    25     1    21    1
