@<TRIPOS>MOLECULE
3vob_GDP_A_1.pdb
 28 30 0 0 0
SMALL
GASTEIGER

@<TRIPOS>ATOM
      1  PB       -21.1380  -10.5250   14.3830 P.3   402  GDP402      0.5373
      2  O1B      -21.6740  -11.7140   13.6280 O.2   402  GDP402     -0.2221
      3  O2B      -19.6550  -10.4050   14.1250 O.3   402  GDP402     -0.1143
      4  O3B      -21.8560   -9.2490   13.9980 O.3   402  GDP402     -0.1143
      5  O3A      -21.3870  -10.8770   15.9200 O.3   402  GDP402     -0.2261
      6  PA       -21.0070   -9.8820   17.0970 P.3   402  GDP402      0.2231
      7  O1A      -19.8870   -8.9250   16.7340 O.2   402  GDP402     -0.5169
      8  O2A      -22.2170   -9.1000   17.5290 O.3   402  GDP402     -0.4370
      9  O5'      -20.6030  -11.0000   18.1730 O.3   402  GDP402     -0.3111
     10  C5'      -19.3450  -11.6700   18.0970 C.3   402  GDP402      0.1813
     11  C4'      -18.6320  -11.6560   19.4420 C.3   402  GDP402      0.1799
     12  O4'      -18.2910  -10.3140   19.7770 O.3   402  GDP402     -0.3326
     13  C3'      -19.5360  -12.1610   20.5540 C.3   402  GDP402      0.2158
     14  O3'      -19.2850  -13.5500   20.7990 O.3   402  GDP402     -0.2175
     15  C2'      -19.2370  -11.2640   21.7490 C.3   402  GDP402      0.2310
     16  O2'      -18.2360  -11.8270   22.6000 O.3   402  GDP402     -0.2158
     17  C1'      -18.5620  -10.0480   21.1600 C.3   402  GDP402      0.2293
     18  N9       -19.3290   -8.7820   21.2990 N.pl3 402  GDP402     -0.2354
     19  C8       -20.4610   -8.4210   20.6760 C.3   402  GDP402      0.2246
     20  N7       -20.8540   -7.1700   21.0280 N.2   402  GDP402     -0.2322
     21  C5       -19.9370   -6.7000   21.8960 C.2   402  GDP402      0.2182
     22  C6       -19.7100   -5.4450   22.6680 C.1   402  GDP402      0.2372
     23  O6       -20.5070   -4.4820   22.5830 O.2   402  GDP402     -0.2069
     24  N1       -18.6220   -5.3830   23.4540 N.2   402  GDP402     -0.2485
     25  C2       -17.7510   -6.4090   23.5610 C.1   402  GDP402      0.2531
     26  N2       -16.6820   -6.2790   24.3770 N.pl3 402  GDP402     -0.0226
     27  N3       -17.8890   -7.5750   22.8880 N.2   402  GDP402     -0.3074
     28  C4       -18.9370   -7.7690   22.0590 C.2   402  GDP402      0.2300
@<TRIPOS>BOND
     1     2     1    2
     2     4     1    1
     3     3     1    1
     4     1     5    1
     5     5     6    1
     6     7     6    2
     7     6     8    1
     8     6     9    1
     9    10     9    1
    10    10    11    1
    11    11    12    1
    12    11    13    1
    13    12    17    1
    14    13    14    1
    15    13    15    1
    16    19    20    1
    17    19    18    1
    18    20    21    2
    19    17    18    1
    20    17    15    1
    21    18    28    1
    22    15    16    1
    23    21    28    1
    24    21    22    1
    25    28    27    2
    26    23    22    2
    27    22    24    2
    28    27    25    2
    29    24    25    2
    30    25    26    1
