@<TRIPOS>MOLECULE
3vof_BGC_A_1.pdb
 12 12 0 0 0
SMALL
GASTEIGER

@<TRIPOS>ATOM
      1  C2        30.1340    2.1540   17.6730 C.3   1001  BGC1001     0.2434
      2  C3        29.2710    1.0410   18.2650 C.3   1001  BGC1001     0.2199
      3  C4        28.2900    1.6300   19.2780 C.3   1001  BGC1001     0.2144
      4  C5        27.5440    2.8290   18.6840 C.3   1001  BGC1001     0.1836
      5  C6        26.6860    3.4880   19.7420 C.3   1001  BGC1001     0.2142
      6  C1        29.2910    3.3110   17.1390 C.3   1001  BGC1001     0.3024
      7  O1        30.1560    4.3670   16.7120 O.3   1001  BGC1001    -0.1869
      8  O2        30.9150    1.6470   16.5910 O.3   1001  BGC1001    -0.2148
      9  O3        30.1380    0.1000   18.9250 O.3   1001  BGC1001    -0.2174
     10  O4        27.3410    0.6420   19.7210 O.3   1001  BGC1001    -0.2176
     11  O5        28.4480    3.8200   18.1650 O.3   1001  BGC1001    -0.3236
     12  O6        27.5280    3.9950   20.7830 O.3   1001  BGC1001    -0.2176
@<TRIPOS>BOND
     1     8     1    1
     2     7     6    1
     3     6     1    1
     4     6    11    1
     5     1     2    1
     6    11     4    1
     7     2     9    1
     8     2     3    1
     9     4     3    1
    10     4     5    1
    11     3    10    1
    12     5    12    1
