@<TRIPOS>MOLECULE
3vog_EPE_A_1.pdb
 15 15 0 0 0
SMALL
GASTEIGER

@<TRIPOS>ATOM
      1  N1        17.7660   32.7370   19.9080 N.3   501  EPE501     -0.2689
      2  C2        17.9360   33.2970   18.5610 C.3   501  EPE501      0.0897
      3  C3        16.7100   33.0510   17.6790 C.3   501  EPE501      0.0897
      4  N4        15.4550   33.2170   18.3960 N.3   501  EPE501     -0.2681
      5  C5        15.2620   32.7810   19.7810 C.3   501  EPE501      0.0897
      6  C6        16.5170   32.9330   20.6460 C.3   501  EPE501      0.0897
      7  C7        14.3370   33.6870   17.5700 C.3   501  EPE501      0.1081
      8  C8        13.2740   34.4190   18.3830 C.3   501  EPE501      0.1993
      9  O8        13.5970   35.8050   18.3930 O.3   501  EPE501     -0.2189
     10  C9        18.8460   32.0920   20.6730 C.3   501  EPE501      0.0939
     11  C10       20.0400   31.5910   19.8500 C.3   501  EPE501      0.1225
     12  S         21.2870   31.1980   20.9000 S.3   501  EPE501     -0.1946
     13  O1S       21.7730   32.3960   21.6300 O.3   501  EPE501     -0.3074
     14  O2S       20.7560   30.1810   21.8530 O.3   501  EPE501     -0.3074
     15  O3S       22.4050   30.5970   20.1350 O.3   501  EPE501     -0.3074
@<TRIPOS>BOND
     1     7     8    1
     2     7     4    1
     3     3     4    1
     4     3     2    1
     5     8     9    1
     6     4     5    1
     7     2     1    1
     8     5     6    1
     9    11    10    1
    10    11    12    1
    11     1     6    1
    12     1    10    1
    13    15    12    1
    14    12    13    1
    15    12    14    1
