@<TRIPOS>MOLECULE
3voh_CBI_A_1.pdb
 23 24 0 0 0
SMALL
GASTEIGER

@<TRIPOS>ATOM
      1  C1        16.3190    1.8610  -17.8330 C.3   1001  CBI1001     0.2695
      2  C2        16.9180    2.6360  -16.6530 C.3   1001  CBI1001     0.2406
      3  C3        18.0330    3.5560  -17.1560 C.3   1001  CBI1001     0.2198
      4  C4        19.0570    2.7570  -17.9810 C.3   1001  CBI1001     0.2144
      5  C5        18.3340    2.0820  -19.1340 C.3   1001  CBI1001     0.1835
      6  C6        19.2780    1.3550  -20.1080 C.3   1001  CBI1001     0.2142
      7  O2        15.8930    3.3810  -15.9800 O.3   1001  CBI1001    -0.2149
      8  O3        18.6580    4.2170  -16.0430 O.3   1001  CBI1001    -0.2174
      9  O4        20.1310    3.5840  -18.4580 O.3   1001  CBI1001    -0.2176
     10  O5        17.3610    1.1890  -18.5660 O.3   1001  CBI1001    -0.3256
     11  O6        20.0640    0.3310  -19.4750 O.3   1001  CBI1001    -0.2176
     12  C1'       12.0770   -0.8950  -19.1900 C.3   1001  CBI1001     0.3023
     13  C2'       13.4140   -1.0460  -19.9150 C.3   1001  CBI1001     0.2433
     14  C3'       14.5510   -0.7290  -18.9570 C.3   1001  CBI1001     0.2168
     15  C4'       14.3390    0.6560  -18.3620 C.3   1001  CBI1001     0.1804
     16  C5'       12.9430    0.7910  -17.7660 C.3   1001  CBI1001     0.1804
     17  C6'       12.6900    2.2030  -17.2460 C.3   1001  CBI1001     0.2141
     18  O1'       10.9910   -1.2640  -20.0630 O.3   1001  CBI1001    -0.1869
     19  O2'       13.5570   -2.3780  -20.4210 O.3   1001  CBI1001    -0.2148
     20  O3'       15.7980   -0.7570  -19.6460 O.3   1001  CBI1001    -0.2175
     21  O4'       15.3390    0.9160  -17.3800 O.3   1001  CBI1001    -0.3257
     22  O5'       11.9670    0.4590  -18.7550 O.3   1001  CBI1001    -0.3237
     23  O6'       12.7460    3.1300  -18.3330 O.3   1001  CBI1001    -0.2176
@<TRIPOS>BOND
     1    19    13    1
     2     6    11    1
     3     6     5    1
     4    18    12    1
     5    13    12    1
     6    13    14    1
     7    20    14    1
     8    12    22    1
     9     5    10    1
    10     5     4    1
    11    14    15    1
    12    22    16    1
    13    10     1    1
    14     9     4    1
    15    15    16    1
    16    15    21    1
    17    23    17    1
    18     4     3    1
    19     1    21    1
    20     1     2    1
    21    16    17    1
    22     3     2    1
    23     3     8    1
    24     2     7    1
