@<TRIPOS>MOLECULE
3voh_BGC_A_1.pdb
 12 12 0 0 0
SMALL
GASTEIGER

@<TRIPOS>ATOM
      1  C2         2.9570   10.4530  -34.9160 C.3   1003  BGC1003     0.2434
      2  C3         1.7740   11.4200  -35.0050 C.3   1003  BGC1003     0.2199
      3  C4         0.5310   10.6000  -35.3770 C.3   1003  BGC1003     0.2144
      4  C5         0.2780    9.6370  -34.2160 C.3   1003  BGC1003     0.1836
      5  C6        -1.0830    8.9560  -34.3140 C.3   1003  BGC1003     0.2142
      6  C1         2.6490    9.2650  -33.9820 C.3   1003  BGC1003     0.3024
      7  O1         3.6560    8.2650  -34.1720 O.3   1003  BGC1003    -0.1869
      8  O2         4.1350   11.1460  -34.4600 O.3   1003  BGC1003    -0.2148
      9  O3         2.0500   12.4730  -35.9390 O.3   1003  BGC1003    -0.2174
     10  O4        -0.6300   11.3990  -35.6750 O.3   1003  BGC1003    -0.2176
     11  O5         1.3480    8.6790  -34.2010 O.3   1003  BGC1003    -0.3236
     12  O6        -2.0630    9.7670  -33.6630 O.3   1003  BGC1003    -0.2176
@<TRIPOS>BOND
     1     9     2    1
     2    10     3    1
     3     3     2    1
     4     3     4    1
     5     2     1    1
     6     1     8    1
     7     1     6    1
     8     5     4    1
     9     5    12    1
    10     4    11    1
    11    11     6    1
    12     7     6    1
