@<TRIPOS>MOLECULE
3voh_CT3_A_1.pdb
 34 36 0 0 0
SMALL
GASTEIGER

@<TRIPOS>ATOM
      1  C1A       -6.8270  -10.4340  -21.5610 C.3   1002  CT31002     0.3023
      2  C2A       -5.5310  -11.2060  -21.2710 C.3   1002  CT31002     0.2433
      3  C3A       -4.3930  -10.2540  -20.8490 C.3   1002  CT31002     0.2168
      4  C4A       -4.2620   -8.9930  -21.7230 C.3   1002  CT31002     0.1804
      5  C5A       -5.6390   -8.4290  -22.1580 C.3   1002  CT31002     0.1804
      6  C6A       -5.5270   -7.4430  -23.3200 C.3   1002  CT31002     0.2141
      7  O1X       -7.9070  -11.3070  -21.9560 O.3   1002  CT31002    -0.1869
      8  O2A       -5.7610  -12.1960  -20.2520 O.3   1002  CT31002    -0.2148
      9  O3A       -3.1410  -10.9580  -20.8970 O.3   1002  CT31002    -0.2175
     10  O4A       -3.4840   -8.0040  -21.0120 O.3   1002  CT31002    -0.3257
     11  O5A       -6.5650   -9.4500  -22.5800 O.3   1002  CT31002    -0.3237
     12  O6A       -5.7510   -6.1270  -22.8070 O.3   1002  CT31002    -0.2176
     13  C1B       -2.2950   -7.4780  -21.6720 C.3   1002  CT31002     0.2695
     14  C2B       -1.8050   -6.2150  -20.9440 C.3   1002  CT31002     0.2404
     15  C3B       -0.4610   -5.7180  -21.4840 C.3   1002  CT31002     0.2167
     16  C4B        0.5800   -6.8300  -21.4690 C.3   1002  CT31002     0.1804
     17  C5B        0.0460   -8.0650  -22.1730 C.3   1002  CT31002     0.1803
     18  C6B        1.0570   -9.1920  -21.9650 C.3   1002  CT31002     0.2141
     19  O2B       -2.7700   -5.1620  -21.0700 O.3   1002  CT31002    -0.2149
     20  O3B        0.0240   -4.6230  -20.7060 O.3   1002  CT31002    -0.2175
     21  O4B        1.7400   -6.4390  -22.1990 O.3   1002  CT31002    -0.3257
     22  O5B       -1.2460   -8.4570  -21.6950 O.3   1002  CT31002    -0.3257
     23  O6B        0.6970  -10.3210  -22.7500 O.3   1002  CT31002    -0.2176
     24  C1C        2.8670   -5.9200  -21.4810 C.3   1002  CT31002     0.2695
     25  C2C        4.2720   -6.1830  -22.0710 C.3   1002  CT31002     0.2406
     26  C3C        5.3760   -5.6700  -21.1650 C.3   1002  CT31002     0.2198
     27  C4C        5.0270   -4.2970  -20.5900 C.3   1002  CT31002     0.2144
     28  C5C        3.7180   -4.3110  -19.8100 C.3   1002  CT31002     0.1835
     29  C6C        3.3590   -2.9090  -19.3240 C.3   1002  CT31002     0.2142
     30  O2C        4.5130   -7.5640  -22.3540 O.3   1002  CT31002    -0.2149
     31  O3C        6.5940   -5.6100  -21.9230 O.3   1002  CT31002    -0.2174
     32  O4C        6.0770   -3.8930  -19.7030 O.3   1002  CT31002    -0.2176
     33  O5C        2.6230   -4.8130  -20.5810 O.3   1002  CT31002    -0.3256
     34  O6C        2.1110   -2.9390  -18.6210 O.3   1002  CT31002    -0.2176
@<TRIPOS>BOND
     1     6    12    1
     2     6     5    1
     3    23    18    1
     4    11     5    1
     5    11     1    1
     6    30    25    1
     7    21    24    1
     8    21    16    1
     9    17    18    1
    10    17    22    1
    11    17    16    1
    12     5     4    1
    13    25    24    1
    14    25    26    1
    15     7     1    1
    16    31    26    1
    17     4    10    1
    18     4     3    1
    19    22    13    1
    20    13    10    1
    21    13    14    1
    22     1     2    1
    23    15    16    1
    24    15    14    1
    25    15    20    1
    26    24    33    1
    27     2     3    1
    28     2     8    1
    29    26    27    1
    30    19    14    1
    31     9     3    1
    32    27    28    1
    33    27    32    1
    34    33    28    1
    35    28    29    1
    36    29    34    1
