@<TRIPOS>MOLECULE
3voi_RCB_A_1.pdb
 43 46 0 0 0
SMALL
GASTEIGER

@<TRIPOS>ATOM
      1  C1A       18.6230   29.4730   21.4840 C.3   503  RCB503      0.2695
      2  O1A       19.6810   29.1620   22.3830 O.3   503  RCB503     -0.3257
      3  C1B       23.6890   27.9710   22.1390 C.3   503  RCB503      0.2695
      4  O1B       24.8890   27.4830   21.5390 O.3   503  RCB503     -0.3257
      5  C1C       27.6050   24.3980   21.8320 C.3   503  RCB503      0.3218
      6  O1C       28.3770   23.2690   22.2330 O.3   503  RCB503     -0.4505
      7  C1D       29.7450   23.2420   22.2080 C.ar  503  RCB503      0.1415
      8  N1D       33.9320   23.1720   22.1850 N.pl3 503  RCB503      0.0577
      9  C2A       17.2770   29.3150   22.2090 C.3   503  RCB503      0.2406
     10  O2A       16.9940   27.9470   22.5510 O.3   503  RCB503     -0.2149
     11  C2B       23.2920   29.2220   21.3540 C.3   503  RCB503      0.2404
     12  O2B       24.3090   30.2200   21.5030 O.3   503  RCB503     -0.2149
     13  C2C       26.1740   23.9440   21.5970 C.3   503  RCB503      0.2540
     14  O2C       26.1900   22.9500   20.5730 O.3   503  RCB503     -0.2135
     15  C2D       30.4710   24.4240   22.1020 C.ar  503  RCB503      0.0387
     16  O2D       34.5610   22.1230   22.2460 O.2   503  RCB503     -0.1261
     17  C3A       16.1320   29.8690   21.3650 C.3   503  RCB503      0.2198
     18  O3A       14.9530   29.8460   22.1760 O.3   503  RCB503     -0.2174
     19  C3B       21.9650   29.7640   21.8610 C.3   503  RCB503      0.2167
     20  O3B       21.5700   30.8950   21.0800 O.3   503  RCB503     -0.2175
     21  C3C       25.3280   25.1520   21.1880 C.3   503  RCB503      0.2180
     22  O3C       23.9420   24.7980   21.1620 O.3   503  RCB503     -0.2175
     23  C3D       31.8540   24.3860   22.0890 C.ar  503  RCB503      0.0272
     24  O3D       34.5450   24.2290   22.1960 O.2   503  RCB503     -0.1261
     25  C4A       16.4670   31.2970   20.8870 C.3   503  RCB503      0.2144
     26  O4A       15.4430   31.8590   20.0620 O.3   503  RCB503     -0.2176
     27  C4B       20.8830   28.6820   21.7780 C.3   503  RCB503      0.1804
     28  C4C       25.5030   26.3420   22.1450 C.3   503  RCB503      0.1805
     29  C4D       32.5260   23.1680   22.1760 C.ar  503  RCB503      0.1431
     30  C5A       17.8040   31.3100   20.1410 C.3   503  RCB503      0.1835
     31  O5A       18.8050   30.8310   21.0500 O.3   503  RCB503     -0.3256
     32  C5B       21.3570   27.4360   22.5200 C.3   503  RCB503      0.1803
     33  O5B       22.6420   26.9960   22.0640 O.3   503  RCB503     -0.3257
     34  C5C       26.9900   26.6200   22.3950 C.3   503  RCB503      0.1814
     35  O5C       27.6060   25.4080   22.8420 O.3   503  RCB503     -0.3158
     36  C5D       31.8000   21.9760   22.2830 C.ar  503  RCB503      0.0272
     37  C6A       18.1720   32.7200   19.6420 C.3   503  RCB503      0.2142
     38  O6A       19.4450   32.6810   18.9730 O.3   503  RCB503     -0.2176
     39  C6B       20.3670   26.2920   22.3360 C.3   503  RCB503      0.2141
     40  O6B       20.6790   25.3000   23.3130 O.3   503  RCB503     -0.2176
     41  C6C       27.2500   27.7260   23.4200 C.3   503  RCB503      0.2141
     42  O6C       28.6070   28.1810   23.2520 O.3   503  RCB503     -0.2176
     43  C6D       30.4050   22.0140   22.2940 C.ar  503  RCB503      0.0387
@<TRIPOS>BOND
     1    38    37    1
     2    37    30    1
     3    26    25    1
     4    30    25    1
     5    30    31    1
     6    14    13    1
     7    25    17    1
     8    31     1    1
     9    20    19    1
    10    22    21    1
    11    21    13    1
    12    21    28    1
    13    11    12    1
    14    11    19    1
    15    11     3    1
    16    17    18    1
    17    17     9    1
    18     1     9    1
    19     1     2    1
    20     4     3    1
    21     4    28    1
    22    13     5    1
    23    27    19    1
    24    27     2    1
    25    27    32    1
    26     5     6    1
    27     5    35    1
    28    33     3    1
    29    33    32    1
    30    23    15   ar
    31    23    29   ar
    32    15     7   ar
    33    28    34    1
    34    29     8    1
    35    29    36   ar
    36     8    24    2
    37     8    16    2
    38     7     6    1
    39     7    43   ar
    40     9    10    1
    41    36    43   ar
    42    39    32    1
    43    39    40    1
    44    34    35    1
    45    34    41    1
    46    42    41    1
