@<TRIPOS>MOLECULE
3vol_HEM_A_1.pdb
 43 50 0 0 0
SMALL
GASTEIGER

@<TRIPOS>ATOM
      1  CHA       25.3590   25.2000   53.9850 C.2   401  HEM401      0.0000
      2  CHB       23.1110   21.1580   55.5160 C.2   401  HEM401      0.0000
      3  CHC       19.5190   21.5180   52.2310 C.2   401  HEM401      0.0000
      4  CHD       22.1570   25.0680   50.2970 C.2   401  HEM401      0.0000
      5  C1A       25.0170   24.0970   54.7250 C.2   401  HEM401      0.0000
      6  C2A       25.5820   23.6810   55.9940 C.2   401  HEM401      0.0000
      7  C3A       24.9470   22.5630   56.3880 C.2   401  HEM401      0.0000
      8  C4A       23.9630   22.2180   55.3870 C.2   401  HEM401      0.0000
      9  CMA       25.2240   21.7780   57.6750 C.3   401  HEM401      0.0000
     10  CAA       26.7080   24.3300   56.8390 C.3   401  HEM401      0.0000
     11  CBA       27.3500   25.6010   56.2970 C.3   401  HEM401      0.0000
     12  CGA       28.6630   25.7130   57.0480 C.2   401  HEM401      0.0000
     13  O1A       28.6250   25.7570   58.3040 O.co2 401  HEM401      0.0000
     14  O2A       29.7490   25.7350   56.4000 O.co2 401  HEM401      0.0000
     15  C1B       21.9840   20.9840   54.7470 C.ar  401  HEM401      0.0000
     16  C2B       20.8680   20.1290   55.2240 C.ar  401  HEM401      0.0000
     17  C3B       19.8980   20.2420   54.3200 C.ar  401  HEM401      0.0000
     18  C4B       20.3240   21.1840   53.2890 C.ar  401  HEM401      0.0000
     19  CMB       20.8310   19.2640   56.5160 C.3   401  HEM401      0.0000
     20  CAB       18.5710   19.5330   54.3260 C.2   401  HEM401      0.0000
     21  CBB       18.2830   18.6600   55.2870 C.2   401  HEM401      0.0000
     22  C1C       19.9730   22.5140   51.4490 C.2   401  HEM401      0.0000
     23  C2C       19.2610   23.0400   50.3340 C.2   401  HEM401      0.0000
     24  C3C       20.0360   24.0100   49.8170 C.2   401  HEM401      0.0000
     25  C4C       21.2400   24.1230   50.5730 C.2   401  HEM401      0.0000
     26  CMC       17.8620   22.5200   49.8890 C.3   401  HEM401      0.0000
     27  CAC       19.7520   24.8620   48.5970 C.3   401  HEM401      0.0000
     28  CBC       18.6330   24.5600   47.9610 C.3   401  HEM401      0.0000
     29  C1D       23.1920   25.4480   51.0810 C.ar  401  HEM401      0.0000
     30  C2D       24.0970   26.5570   50.7780 C.ar  401  HEM401      0.0000
     31  C3D       25.1170   26.5700   51.8910 C.ar  401  HEM401      0.0000
     32  C4D       24.6890   25.5100   52.7990 C.ar  401  HEM401      0.0000
     33  CMD       24.1230   27.5040   49.5590 C.3   401  HEM401      0.0000
     34  CAD       26.2960   27.5400   52.0520 C.3   401  HEM401      0.0000
     35  CBD       27.6590   26.8360   51.7930 C.3   401  HEM401      0.0000
     36  CGD       27.6520   25.9440   50.5410 C.2   401  HEM401      0.0000
     37  O1D       27.0440   26.3600   49.4940 O.co2 401  HEM401      0.0000
     38  O2D       28.2660   24.8080   50.6020 O.co2 401  HEM401      0.0000
     39  NA        24.0210   23.1880   54.3820 N.2   401  HEM401      0.0000
     40  NB        21.6040   21.6670   53.5780 N.ar  401  HEM401      0.0000
     41  NC        21.1730   23.2240   51.6130 N.2   401  HEM401      0.0000
     42  ND        23.5410   24.8530   52.2640 N.ar  401  HEM401      0.0000
     43 FE         22.5930   23.1980   52.9800 Fe    401  HEM401      0.0000
@<TRIPOS>BOND
     1    28    27    1
     2    27    24    1
     3    37    36   ar
     4    33    30    1
     5    24    23    2
     6    24    25    1
     7    26    23    1
     8     4    25    1
     9     4    29    2
    10    23    22    1
    11    36    38   ar
    12    36    35    1
    13    25    41    2
    14    30    29   ar
    15    30    31   ar
    16    29    42   ar
    17    22    41    1
    18    22     3    2
    19    41    43    1
    20    35    34    1
    21    31    34    1
    22    31    32   ar
    23     3    18    1
    24    42    32   ar
    25    42    43    1
    26    32     1    2
    27    43    40    1
    28    43    39    1
    29    18    40   ar
    30    18    17   ar
    31    40    15   ar
    32     1     5    1
    33    17    20    1
    34    17    16   ar
    35    20    21    2
    36    39     5    2
    37    39     8    1
    38     5     6    1
    39    15    16   ar
    40    15     2    1
    41    16    19    1
    42     8     2    2
    43     8     7    1
    44     6     7    2
    45     6    10    1
    46    11    10    1
    47    11    12    1
    48     7     9    1
    49    14    12   ar
    50    12    13   ar
