@<TRIPOS>MOLECULE
3vom_PLP_A_1.pdb
 16 16 0 0 0
SMALL
GASTEIGER

@<TRIPOS>ATOM
      1  N1        66.3520   36.2890    1.3580 N.ar  401  PLP401     -0.2452
      2  C2        66.6000   35.4590    2.3760 C.ar  401  PLP401      0.0982
      3  C2A       67.9720   34.8600    2.4570 C.3   401  PLP401      0.0555
      4  C3        65.6380   35.1990    3.3660 C.ar  401  PLP401      0.2120
      5  O3        66.0030   34.4030    4.4230 O.3   401  PLP401     -0.2852
      6  C4        64.3620   35.8020    3.2930 C.ar  401  PLP401      0.0822
      7  C4A       63.2800   35.3890    4.2180 C.2   401  PLP401      0.2372
      8  O4A       63.3420   34.5060    5.0440 O.2   401  PLP401     -0.2830
      9  C5        64.1580   36.7000    2.2250 C.ar  401  PLP401      0.0333
     10  C6        65.1630   36.8970    1.3110 C.ar  401  PLP401      0.0969
     11  C5A       62.8540   37.4430    2.1290 C.3   401  PLP401      0.1819
     12  O4P       62.7170   38.2150    3.3480 O.3   401  PLP401     -0.2653
     13  P         61.4430   39.0670    3.6620 P.3   401  PLP401      0.5329
     14  O1P       60.3430   38.1880    4.1780 O.3   401  PLP401     -0.1145
     15  O2P       61.0130   39.7260    2.3260 O.2   401  PLP401     -0.2224
     16  O3P       61.9180   40.1460    4.6170 O.3   401  PLP401     -0.1145
@<TRIPOS>BOND
     1    10     1   ar
     2    10     9   ar
     3     1     2   ar
     4    11     9    1
     5    11    12    1
     6     9     6   ar
     7    15    13    2
     8     2     3    1
     9     2     4   ar
    10     6     4   ar
    11     6     7    1
    12    12    13    1
    13     4     5    1
    14    13    14    1
    15    13    16    1
    16     7     8    2
