@<TRIPOS>MOLECULE
3voo_HEM_A_1.pdb
 43 50 0 0 0
SMALL
GASTEIGER

@<TRIPOS>ATOM
      1  CHA       40.9500   -8.0920   -2.6180 C.2   501  HEM501      0.0000
      2  CHB       39.3340   -8.2620    1.9330 C.2   501  HEM501      0.0000
      3  CHC       43.8550   -8.8470    3.5870 C.2   501  HEM501      0.0000
      4  CHD       45.5430   -8.4780   -0.9650 C.2   501  HEM501      0.0000
      5  C1A       40.0910   -8.1190   -1.5450 C.2   501  HEM501      0.0000
      6  C2A       38.6510   -7.9990   -1.5870 C.2   501  HEM501      0.0000
      7  C3A       38.2080   -8.0850   -0.3200 C.2   501  HEM501      0.0000
      8  C4A       39.3470   -8.2080    0.5620 C.2   501  HEM501      0.0000
      9  CMA       36.7450   -8.0240    0.1720 C.3   501  HEM501      0.0000
     10  CAA       37.8110   -7.8340   -2.8720 C.3   501  HEM501      0.0000
     11  CBA       37.3270   -9.1730   -3.4490 C.3   501  HEM501      0.0000
     12  CGA       36.5580   -8.8480   -4.7140 C.2   501  HEM501      0.0000
     13  O1A       35.7170   -9.6840   -5.1450 O.co2 501  HEM501      0.0000
     14  O2A       36.7930   -7.7660   -5.3130 O.co2 501  HEM501      0.0000
     15  C1B       40.4180   -8.3050    2.7870 C.ar  501  HEM501      0.0000
     16  C2B       40.3980   -8.1330    4.2290 C.ar  501  HEM501      0.0000
     17  C3B       41.6430   -8.2950    4.6880 C.ar  501  HEM501      0.0000
     18  C4B       42.5090   -8.5740    3.5580 C.ar  501  HEM501      0.0000
     19  CMB       39.1400   -7.8560    5.0840 C.3   501  HEM501      0.0000
     20  CAB       42.0940   -8.2050    6.1630 C.2   501  HEM501      0.0000
     21  CBB       43.1490   -7.4400    6.4410 C.2   501  HEM501      0.0000
     22  C1C       44.6930   -8.9110    2.4970 C.2   501  HEM501      0.0000
     23  C2C       46.1160   -9.1710    2.5420 C.2   501  HEM501      0.0000
     24  C3C       46.5820   -9.0830    1.2950 C.2   501  HEM501      0.0000
     25  C4C       45.4870   -8.7550    0.3910 C.2   501  HEM501      0.0000
     26  CMC       46.9760   -9.5080    3.7830 C.3   501  HEM501      0.0000
     27  CAC       48.0770   -9.3130    1.0030 C.2   501  HEM501      0.0000
     28  CBC       48.4770   -9.6990   -0.2000 C.2   501  HEM501      0.0000
     29  C1D       44.5070   -8.2470   -1.8490 C.ar  501  HEM501      0.0000
     30  C2D       44.6150   -7.9850   -3.2740 C.ar  501  HEM501      0.0000
     31  C3D       43.1640   -7.8820   -3.7650 C.ar  501  HEM501      0.0000
     32  C4D       42.3310   -8.0740   -2.6020 C.ar  501  HEM501      0.0000
     33  CMD       45.8790   -7.8200   -4.1380 C.3   501  HEM501      0.0000
     34  CAD       42.6590   -7.6380   -5.1940 C.3   501  HEM501      0.0000
     35  CBD       42.5840   -9.0210   -5.8420 C.3   501  HEM501      0.0000
     36  CGD       41.8890   -9.0490   -7.1880 C.2   501  HEM501      0.0000
     37  O1D       41.9610  -10.1290   -7.8440 O.co2 501  HEM501      0.0000
     38  O2D       41.2380   -8.0410   -7.5850 O.co2 501  HEM501      0.0000
     39  NA        40.4730   -8.2390   -0.2220 N.2   501  HEM501      0.0000
     40  NB        41.7230   -8.5680    2.4230 N.ar  501  HEM501      0.0000
     41  NC        44.3550   -8.6800    1.1740 N.2   501  HEM501      0.0000
     42  ND        43.1590   -8.2950   -1.5110 N.ar  501  HEM501      0.0000
     43 FE         42.4230   -8.4550    0.4700 Fe    501  HEM501      0.0000
@<TRIPOS>BOND
     1    37    36   ar
     2    38    36   ar
     3    36    35    1
     4    35    34    1
     5    14    12   ar
     6    34    31    1
     7    13    12   ar
     8    12    11    1
     9    33    30    1
    10    31    30   ar
    11    31    32   ar
    12    11    10    1
    13    30    29   ar
    14    10     6    1
    15     1    32    2
    16     1     5    1
    17    32    42   ar
    18    29    42   ar
    19    29     4    2
    20     6     5    1
    21     6     7    2
    22     5    39    2
    23    42    43    1
    24     4    25    1
    25     7     9    1
    26     7     8    1
    27    39    43    1
    28    39     8    1
    29    28    27    2
    30    25    41    2
    31    25    24    1
    32    43    41    1
    33    43    40    1
    34     8     2    2
    35    27    24    1
    36    41    22    1
    37    24    23    2
    38     2    15    1
    39    40    15   ar
    40    40    18   ar
    41    22    23    1
    42    22     3    2
    43    23    26    1
    44    15    16   ar
    45    18     3    1
    46    18    17   ar
    47    16    17   ar
    48    16    19    1
    49    17    20    1
    50    20    21    2
