@<TRIPOS>MOLECULE
3voz_04A_A_1.pdb
 18 19 0 0 0
SMALL
GASTEIGER

@<TRIPOS>ATOM
      1  OAB        1.5630  -10.0220   -0.4510 O.2   601  04A601     -0.2726
      2  CAD       -2.9230   -7.2310   -0.5400 C.ar  601  04A601     -0.0000
      3  CAG       -2.8340   -8.6300   -0.1950 C.ar  601  04A601     -0.0003
      4  CAH       -1.9750   -6.6350   -1.4720 C.ar  601  04A601     -0.0003
      5  CAK       -1.8170   -9.4630   -0.7570 C.ar  601  04A601     -0.0038
      6  CAL       -0.9070   -7.5160   -2.0620 C.ar  601  04A601     -0.0038
      7  CAN        7.6520   -8.9740    0.5870 C.2   601  04A601      0.0229
      8  CAP        7.3990  -10.4570    0.2070 C.3   601  04A601      0.0881
      9  CAR        0.2190   -9.8940   -2.2540 C.3   601  04A601      0.1135
     10  NAT        5.1090  -10.3020    0.5010 N.ar  601  04A601     -0.1436
     11  NAV        3.9260  -10.2050    0.0090 N.ar  601  04A601     -0.1239
     12  NAX        2.8150  -10.0730   -2.3510 N.am  601  04A601     -0.1526
     13  SAY        7.8500   -7.8500    0.0000 S.2   601  04A601     -0.0547
     14  SBA        5.4590  -10.2710   -1.9700 S.2   601  04A601     -0.0327
     15  CBC        1.6020  -10.0010   -1.6710 C.2   601  04A601      0.2518
     16  CBE       -0.8330   -8.9020   -1.7090 C.ar  601  04A601     -0.0130
     17  CBG        6.0760  -10.3500   -0.4670 C.ar  601  04A601      0.1173
     18  CBI        3.8450  -10.1680   -1.3920 C.ar  601  04A601      0.2077
@<TRIPOS>BOND
     1    12    15   am
     2    12    18    1
     3     9    16    1
     4     9    15    1
     5     6    16   ar
     6     6     4   ar
     7    14    18   ar
     8    14    17   ar
     9    16     5   ar
    10    15     1    2
    11     4     2   ar
    12    18    11   ar
    13     5     3   ar
    14     2     3   ar
    15    17     8    1
    16    17    10   ar
    17    13     7    2
    18    11    10   ar
    19     8     7    1
