@<TRIPOS>MOLECULE
3vp0_GLN_A_1.pdb
 10 9 0 0 0
SMALL
GASTEIGER

@<TRIPOS>ATOM
      1  N         21.0850   -8.8160  -13.4010 N.3   601  GLN601     -0.1208
      2  CA        20.3160   -7.8840  -12.5240 C.3   601  GLN601      0.1948
      3  C         19.0560   -8.5590  -11.9850 C.2   601  GLN601      0.3819
      4  O         18.5120   -8.0670  -10.9710 O.co2 601  GLN601     -0.2441
      5  CB        19.9410   -6.6000  -13.2910 C.3   601  GLN601      0.0403
      6  CG        19.0580   -6.8000  -14.5240 C.3   601  GLN601      0.0906
      7  CD        18.6810   -5.4820  -15.1830 C.2   601  GLN601      0.2608
      8  OE1       18.1090   -4.5990  -14.5440 O.2   601  GLN601     -0.2717
      9  NE2       18.9960   -5.3440  -16.4670 N.am  601  GLN601     -0.0878
     10  OXT       18.6330   -9.5790  -12.5770 O.co2 601  GLN601     -0.2441
@<TRIPOS>BOND
     1     9     7   am
     2     7     8    2
     3     7     6    1
     4     6     5    1
     5     1     2    1
     6     5     2    1
     7    10     3   ar
     8     2     3    1
     9     3     4   ar
