@<TRIPOS>MOLECULE
3vp1_GLU_A_1.pdb
 10 9 0 0 0
SMALL
GASTEIGER

@<TRIPOS>ATOM
      1  N         21.1080   -9.0100  -13.2330 N.3   602  GLU602     -0.1208
      2  CA        20.2610   -7.8470  -12.8230 C.3   602  GLU602      0.1949
      3  C         19.1120   -8.3630  -11.9370 C.2   602  GLU602      0.3819
      4  O         18.5220   -7.5500  -11.1770 O.co2 602  GLU602     -0.2441
      5  CB        19.7100   -7.1330  -14.0680 C.3   602  GLU602      0.0424
      6  CG        19.0280   -5.8090  -13.7720 C.3   602  GLU602      0.1161
      7  CD        18.5000   -5.1140  -15.0290 C.2   602  GLU602      0.3649
      8  OE1       17.6150   -4.2340  -14.8790 O.co2 602  GLU602     -0.2457
      9  OE2       18.9680   -5.4350  -16.1500 O.co2 602  GLU602     -0.2457
     10  OXT       18.8190   -9.5840  -12.0100 O.co2 602  GLU602     -0.2441
@<TRIPOS>BOND
     1     9     7   ar
     2     7     8   ar
     3     7     6    1
     4     5     6    1
     5     5     2    1
     6     1     2    1
     7     2     3    1
     8    10     3   ar
     9     3     4   ar
