@<TRIPOS>MOLECULE
3vp5_HEM_A_1.pdb
 43 50 0 0 0
SMALL
GASTEIGER

@<TRIPOS>ATOM
      1  CHA        9.9100   12.2660   23.5390 C.2   201  HEM201      0.0000
      2  CHB        9.6530    7.5010   24.3200 C.2   201  HEM201      0.0000
      3  CHC        7.8680    8.1570   28.7680 C.2   201  HEM201      0.0000
      4  CHD        8.2570   12.9150   28.0660 C.2   201  HEM201      0.0000
      5  C1A        9.9860   10.8960   23.3940 C.ar  201  HEM201      0.0000
      6  C2A       10.5030   10.2540   22.2190 C.ar  201  HEM201      0.0000
      7  C3A       10.4260    8.9190   22.4200 C.ar  201  HEM201      0.0000
      8  C4A        9.8720    8.7100   23.7380 C.ar  201  HEM201      0.0000
      9  CMA       10.8820    7.8190   21.4380 C.3   201  HEM201      0.0000
     10  CAA       11.0320   10.9870   20.9690 C.3   201  HEM201      0.0000
     11  CBA        9.9480   10.9240   19.8940 C.3   201  HEM201      0.0000
     12  CGA       10.5730   10.8990   18.5220 C.2   201  HEM201      0.0000
     13  O1A       11.6020   11.6100   18.3370 O.co2 201  HEM201      0.0000
     14  O2A       10.0350   10.1790   17.6280 O.co2 201  HEM201      0.0000
     15  C1B        9.1820    7.2750   25.5690 C.2   201  HEM201      0.0000
     16  C2B        9.0340    5.9530   26.1780 C.2   201  HEM201      0.0000
     17  C3B        8.5350    6.1330   27.4170 C.2   201  HEM201      0.0000
     18  C4B        8.3590    7.5760   27.6130 C.2   201  HEM201      0.0000
     19  CMB        9.4500    4.6720   25.4100 C.3   201  HEM201      0.0000
     20  CAB        8.1900    5.1280   28.5510 C.2   201  HEM201      0.0000
     21  CBB        8.2070    3.8090   28.3470 C.2   201  HEM201      0.0000
     22  C1C        7.8520    9.5110   29.0020 C.ar  201  HEM201      0.0000
     23  C2C        7.4230   10.1830   30.2030 C.ar  201  HEM201      0.0000
     24  C3C        7.5550   11.5200   30.0010 C.ar  201  HEM201      0.0000
     25  C4C        8.0350   11.6950   28.6430 C.ar  201  HEM201      0.0000
     26  CMC        6.9640    9.4330   31.4770 C.3   201  HEM201      0.0000
     27  CAC        7.2490   12.7560   30.9130 C.2   201  HEM201      0.0000
     28  CBC        6.4790   12.7060   32.0030 C.2   201  HEM201      0.0000
     29  C1D        8.7250   13.1780   26.8150 C.2   201  HEM201      0.0000
     30  C2D        8.9330   14.5200   26.2910 C.2   201  HEM201      0.0000
     31  C3D        9.4500   14.3520   24.8550 C.2   201  HEM201      0.0000
     32  C4D        9.5120   12.9150   24.6730 C.2   201  HEM201      0.0000
     33  CMD        8.6380   15.8120   27.0710 C.3   201  HEM201      0.0000
     34  CAD        9.8430   15.4900   23.8560 C.3   201  HEM201      0.0000
     35  CBD        9.1360   15.4010   22.5140 C.3   201  HEM201      0.0000
     36  CGD        7.7290   14.8810   22.6760 C.2   201  HEM201      0.0000
     37  O1D        6.9380   15.4970   23.4460 O.co2 201  HEM201      0.0000
     38  O2D        7.3970   13.8550   22.0170 O.co2 201  HEM201      0.0000
     39  NA         9.6060    9.9410   24.3180 N.ar  201  HEM201      0.0000
     40  NB         8.7480    8.1930   26.4490 N.2   201  HEM201      0.0000
     41  NC         8.2180   10.4430   28.0420 N.ar  201  HEM201      0.0000
     42  ND         9.0790   12.2740   25.8260 N.2   201  HEM201      0.0000
     43 FE          8.8920   10.2330   26.2650 Fe    201  HEM201      0.0000
@<TRIPOS>BOND
     1    14    12   ar
     2    13    12   ar
     3    12    11    1
     4    11    10    1
     5    10     6    1
     6     9     7    1
     7    38    36   ar
     8     6     7   ar
     9     6     5   ar
    10     7     8   ar
    11    35    36    1
    12    35    34    1
    13    36    37   ar
    14     5     1    2
    15     5    39   ar
    16     1    32    1
    17     8    39   ar
    18     8     2    2
    19    34    31    1
    20    39    43    1
    21     2    15    1
    22    32    31    1
    23    32    42    2
    24    31    30    2
    25    19    16    1
    26    15    16    1
    27    15    40    2
    28    42    43    1
    29    42    29    1
    30    16    17    2
    31    43    40    1
    32    43    41    1
    33    30    29    1
    34    30    33    1
    35    40    18    1
    36    29     4    2
    37    17    18    1
    38    17    20    1
    39    18     3    2
    40    41    25   ar
    41    41    22   ar
    42     4    25    1
    43    21    20    2
    44    25    24   ar
    45     3    22    1
    46    22    23   ar
    47    24    23   ar
    48    24    27    1
    49    23    26    1
    50    27    28    2
