@<TRIPOS>MOLECULE
3vp6_HLD_A_1.pdb
 13 13 0 0 0
SMALL
GASTEIGER

@<TRIPOS>ATOM
      1  OAC      -11.8680    0.5190   24.5300 O.2   1001  HLD1001    -0.2863
      2  CAM      -12.0720    1.7130   24.8380 C.ar  1001  HLD1001     0.2023
      3  CAF      -13.2950    2.2990   24.5010 C.ar  1001  HLD1001     0.0865
      4  CAK      -13.5130    3.6390   24.8140 C.ar  1001  HLD1001     0.2280
      5  CAI      -14.8190    4.3350   24.5910 C.2   1001  HLD1001     0.4217
      6  OAD      -15.7030    3.8230   23.8930 O.co2 1001  HLD1001    -0.2371
      7  OAA      -15.0100    5.4200   25.1700 O.co2 1001  HLD1001    -0.2371
      8  CAG      -11.0780    2.4580   25.4890 C.ar  1001  HLD1001     0.0865
      9  CAL      -11.3360    3.8000   25.8080 C.ar  1001  HLD1001     0.2280
     10  OAH      -12.5430    4.3480   25.4640 O.2   1001  HLD1001    -0.4399
     11  CAJ      -10.3880    4.6860   26.5630 C.2   1001  HLD1001     0.4217
     12  OAE       -9.3670    4.2140   27.1040 O.co2 1001  HLD1001    -0.2371
     13  OAB      -10.6840    5.8990   26.6640 O.co2 1001  HLD1001    -0.2371
@<TRIPOS>BOND
     1     6     5   ar
     2     3     4   ar
     3     3     2   ar
     4     1     2    2
     5     5     4    1
     6     5     7   ar
     7     4    10   ar
     8     2     8   ar
     9    10     9   ar
    10     8     9   ar
    11     9    11    1
    12    11    13   ar
    13    11    12   ar
