@<TRIPOS>MOLECULE
3vpb_GLU_A_1.pdb
 10 9 0 0 0
SMALL
GASTEIGER

@<TRIPOS>ATOM
      1  N         36.9170   15.6490   20.2910 N.3   501  GLU501     -0.1208
      2  CA        38.0190   16.5540   20.7310 C.3   501  GLU501      0.1949
      3  C         38.4040   17.5200   19.6230 C.2   501  GLU501      0.3819
      4  O         38.2900   17.2220   18.4060 O.co2 501  GLU501     -0.2441
      5  CB        39.2520   15.7310   21.1640 C.3   501  GLU501      0.0424
      6  CG        40.3110   16.5770   21.8810 C.3   501  GLU501      0.1161
      7  CD        41.4870   15.7550   22.4030 C.2   501  GLU501      0.3649
      8  OE1       41.9670   16.0670   23.5300 O.co2 501  GLU501     -0.2457
      9  OE2       41.9250   14.8220   21.6840 O.co2 501  GLU501     -0.2457
     10  OXT       38.8700   18.6160   19.9460 O.co2 501  GLU501     -0.2441
@<TRIPOS>BOND
     1     4     3   ar
     2     3    10   ar
     3     3     2    1
     4     1     2    1
     5     2     5    1
     6     5     6    1
     7     9     7   ar
     8     6     7    1
     9     7     8   ar
