@<TRIPOS>MOLECULE
3vpb_ADP_A_1.pdb
 27 29 0 0 0
SMALL
GASTEIGER

@<TRIPOS>ATOM
      1  PB        31.1280   20.3890   19.3710 P.3   500  ADP500      0.5373
      2  O1B       30.3750   19.4770   20.2750 O.3   500  ADP500     -0.1143
      3  O2B       32.6240   20.4660   19.6470 O.3   500  ADP500     -0.1143
      4  O3B       30.8470   20.2580   17.8950 O.2   500  ADP500     -0.2221
      5  PA        31.1940   23.1310   20.3250 P.3   500  ADP500      0.2231
      6  O1A       30.0590   23.9480   20.8910 O.2   500  ADP500     -0.5169
      7  O2A       32.2810   22.6510   21.2330 O.3   500  ADP500     -0.4370
      8  O3A       30.4960   21.8520   19.6250 O.3   500  ADP500     -0.2261
      9  O5'       31.7740   23.9720   19.0490 O.3   500  ADP500     -0.3111
     10  C5'       32.9870   23.6140   18.3840 C.3   500  ADP500      0.1813
     11  C4'       33.9650   24.7740   18.3710 C.3   500  ADP500      0.1821
     12  O4'       33.3060   25.8970   17.8170 O.3   500  ADP500     -0.3135
     13  C3'       34.3960   25.2510   19.7470 C.3   500  ADP500      0.2184
     14  O3'       35.5740   24.5670   20.1810 O.3   500  ADP500     -0.2174
     15  C2'       34.6330   26.7370   19.5600 C.3   500  ADP500      0.2570
     16  O2'       35.9100   26.9710   18.9650 O.3   500  ADP500     -0.2130
     17  C1'       33.6100   27.0920   18.5290 C.3   500  ADP500      0.3186
     18  N9        32.4020   27.6210   19.2100 N.pl3 500  ADP500     -0.1439
     19  C8        31.2410   26.9520   19.5220 C.3   500  ADP500      0.3377
     20  N7        30.3730   27.8100   20.1210 N.2   500  ADP500     -0.2095
     21  C5        30.9720   29.0180   20.1800 C.2   500  ADP500      0.2526
     22  C6        30.6280   30.3580   20.7270 C.2   500  ADP500      0.4393
     23  N6        29.4240   30.5640   21.2700 N.pl3 500  ADP500      0.2180
     24  N1        31.5320   31.3600   20.6110 N.2   500  ADP500      0.0021
     25  C2        32.7390   31.1510   20.0370 C.3   500  ADP500      0.5254
     26  N3        33.1370   29.9540   19.5550 N.2   500  ADP500     -0.0055
     27  C4        32.3010   28.8790   19.5970 C.2   500  ADP500      0.3518
@<TRIPOS>BOND
     1    12    11    1
     2    12    17    1
     3     4     1    2
     4    11    10    1
     5    11    13    1
     6    10     9    1
     7    17    18    1
     8    17    15    1
     9    16    15    1
    10     9     5    1
    11    18    19    1
    12    18    27    1
    13     1     8    1
    14     1     3    1
    15     1     2    1
    16    19    20    1
    17    26    27    2
    18    26    25    1
    19    15    13    1
    20    27    21    1
    21     8     5    1
    22    13    14    1
    23    25    24    1
    24    20    21    2
    25    21    22    1
    26     5     6    2
    27     5     7    1
    28    24    22    2
    29    22    23    1
