@<TRIPOS>MOLECULE
3vpc_ADP_A_1.pdb
 27 29 0 0 0
SMALL
GASTEIGER

@<TRIPOS>ATOM
      1  PB        -4.4730    1.5260    7.5680 P.3   500  ADP500      0.5373
      2  O1B       -3.4050    1.9740    6.5750 O.2   500  ADP500     -0.2221
      3  O2B       -4.9770    0.1010    7.3480 O.3   500  ADP500     -0.1143
      4  O3B       -4.0220    1.7160    8.9950 O.3   500  ADP500     -0.1143
      5  PA        -6.8580    2.4390    6.1740 P.3   500  ADP500      0.2231
      6  O1A       -7.1730    3.7570    5.4830 O.3   500  ADP500     -0.4370
      7  O2A       -6.5570    1.1930    5.3240 O.2   500  ADP500     -0.5169
      8  O3A       -5.7400    2.5430    7.3240 O.3   500  ADP500     -0.2261
      9  O5'       -8.2430    2.0720    6.8750 O.3   500  ADP500     -0.3111
     10  C5'       -8.4500    0.9310    7.6820 C.3   500  ADP500      0.1813
     11  C4'       -9.9080    0.5440    7.4770 C.3   500  ADP500      0.1821
     12  O4'      -10.8060    1.6090    7.7880 O.3   500  ADP500     -0.3135
     13  C3'      -10.1790    0.2450    6.0150 C.3   500  ADP500      0.2184
     14  O3'       -9.9730   -1.1390    5.8370 O.3   500  ADP500     -0.2174
     15  C2'      -11.6270    0.5580    5.8190 C.3   500  ADP500      0.2570
     16  O2'      -12.3980   -0.5340    6.3560 O.3   500  ADP500     -0.2130
     17  C1'      -11.8330    1.6940    6.7990 C.3   500  ADP500      0.3186
     18  N9       -11.7980    3.0400    6.1870 N.pl3 500  ADP500     -0.1439
     19  C8       -10.7020    3.8220    6.0260 C.3   500  ADP500      0.3377
     20  N7       -11.0470    5.0060    5.4730 N.2   500  ADP500     -0.2095
     21  C5       -12.3800    4.9890    5.2740 C.2   500  ADP500      0.2526
     22  C6       -13.3890    5.9330    4.7350 C.2   500  ADP500      0.4393
     23  N6       -13.0080    7.1490    4.2820 N.pl3 500  ADP500      0.2180
     24  N1       -14.6910    5.5450    4.7120 N.2   500  ADP500      0.0021
     25  C2       -15.0620    4.3230    5.1740 C.3   500  ADP500      0.5254
     26  N3       -14.2040    3.4160    5.6860 N.2   500  ADP500     -0.0055
     27  C4       -12.8720    3.6950    5.7690 C.2   500  ADP500      0.3518
@<TRIPOS>BOND
     1    23    22    1
     2    24    22    2
     3    24    25    1
     4    22    21    1
     5    25    26    1
     6    21    20    2
     7    21    27    1
     8     7     5    2
     9    20    19    1
    10     6     5    1
    11    26    27    2
    12    27    18    1
    13    15    13    1
    14    15    16    1
    15    15    17    1
    16    14    13    1
    17    13    11    1
    18    19    18    1
    19     5     9    1
    20     5     8    1
    21    18    17    1
    22     2     1    2
    23    17    12    1
    24     9    10    1
    25     8     1    1
    26     3     1    1
    27    11    10    1
    28    11    12    1
    29     1     4    1
