@<TRIPOS>MOLECULE
3vpd_ANP_A_1.pdb
 31 33 0 0 0
SMALL
GASTEIGER

@<TRIPOS>ATOM
      1  PG       -39.0130   54.7330   -6.1740 P.3   301  ANP301      0.4884
      2  O1G      -37.9160   55.3830   -6.9900 O.2   301  ANP301     -0.2331
      3  O2G      -38.5900   54.4080   -4.7670 O.3   301  ANP301     -0.1240
      4  O3G      -40.3280   55.4720   -6.2180 O.3   301  ANP301     -0.1240
      5  PB       -39.6860   51.7140   -6.0620 P.3   301  ANP301      0.4669
      6  O1B      -41.1860   51.4790   -6.0910 O.2   301  ANP301     -0.2351
      7  O2B      -39.0230   51.8220   -4.6970 O.3   301  ANP301     -0.1253
      8  N3B      -39.3670   53.1990   -6.9580 N.3   301  ANP301     -0.0163
      9  PA       -37.4180   50.2300   -7.0700 P.3   301  ANP301      0.2220
     10  O1A      -37.1460   48.8490   -7.6430 O.2   301  ANP301     -0.5170
     11  O2A      -36.7550   50.5650   -5.7360 O.3   301  ANP301     -0.4370
     12  O3A      -39.0210   50.4490   -6.8530 O.3   301  ANP301     -0.2360
     13  O5'      -37.0850   51.3300   -8.2380 O.3   301  ANP301     -0.3111
     14  C5'      -36.5650   52.6320   -7.9210 C.3   301  ANP301      0.1813
     15  C4'      -36.0270   53.4470   -9.1060 C.3   301  ANP301      0.1821
     16  O4'      -34.8850   52.8590   -9.7560 O.3   301  ANP301     -0.3135
     17  C3'      -37.0750   53.6670  -10.1820 C.3   301  ANP301      0.2184
     18  O3'      -37.0650   55.0620  -10.5070 O.3   301  ANP301     -0.2174
     19  C2'      -36.6030   52.8490  -11.3730 C.3   301  ANP301      0.2570
     20  O2'      -36.8500   53.4980  -12.6200 O.3   301  ANP301     -0.2130
     21  C1'      -35.1120   52.6200  -11.1590 C.3   301  ANP301      0.3186
     22  N9       -34.8270   51.1930  -11.4960 N.pl3 301  ANP301     -0.1439
     23  C8       -35.0900   50.1490  -10.6860 C.3   301  ANP301      0.3377
     24  N7       -34.7300   48.9780  -11.2600 N.2   301  ANP301     -0.2095
     25  C5       -34.2330   49.2560  -12.4650 C.2   301  ANP301      0.2526
     26  C6       -33.6850   48.4690  -13.5810 C.2   301  ANP301      0.4393
     27  N6       -33.5850   47.1090  -13.4980 N.pl3 301  ANP301      0.2180
     28  N1       -33.2710   49.1580  -14.6790 N.2   301  ANP301      0.0021
     29  C2       -33.3600   50.5020  -14.7690 C.3   301  ANP301      0.5254
     30  N3       -33.8520   51.2700  -13.7830 N.2   301  ANP301     -0.0055
     31  C4       -34.3000   50.7220  -12.6280 C.2   301  ANP301      0.3518
@<TRIPOS>BOND
     1    29    28    1
     2    29    30    1
     3    28    26    2
     4    30    31    2
     5    26    27    1
     6    26    25    1
     7    31    25    1
     8    31    22    1
     9    20    19    1
    10    25    24    2
    11    22    21    1
    12    22    23    1
    13    19    21    1
    14    19    17    1
    15    24    23    1
    16    21    16    1
    17    18    17    1
    18    17    15    1
    19    16    15    1
    20    15    14    1
    21    13    14    1
    22    13     9    1
    23    10     9    2
    24     9    12    1
    25     9    11    1
    26     2     1    2
    27     8     1    1
    28     8     5    1
    29    12     5    1
    30     4     1    1
    31     1     3    1
    32     6     5    2
    33     5     7    1
