@<TRIPOS>MOLECULE
3vph_FBP_A_1.pdb
 20 20 0 0 0
SMALL
GASTEIGER

@<TRIPOS>ATOM
      1  P1       -18.7910   16.7570  108.8500 P.3   402  FBP402      0.5328
      2  O1P      -18.8310   18.0030  109.6420 O.3   402  FBP402     -0.1145
      3  O2P      -19.3810   16.9860  107.5110 O.2   402  FBP402     -0.2224
      4  O3P      -17.2890   16.2340  108.6510 O.3   402  FBP402     -0.1145
      5  O1       -19.6090   15.6000  109.6080 O.3   402  FBP402     -0.2648
      6  C1       -20.9680   15.9810  109.8830 C.3   402  FBP402      0.2152
      7  C2       -21.5520   14.7620  110.5850 C.3   402  FBP402      0.2780
      8  O2       -21.4810   13.6570  109.6790 O.3   402  FBP402     -0.1897
      9  C3       -23.0270   14.9290  111.0490 C.3   402  FBP402      0.2408
     10  O3       -23.9860   14.5490  110.0600 O.3   402  FBP402     -0.2149
     11  C4       -23.0240   14.0470  112.3380 C.3   402  FBP402      0.2167
     12  O4       -24.1120   14.3570  113.2100 O.3   402  FBP402     -0.2175
     13  C5       -21.6190   14.3930  112.9000 C.3   402  FBP402      0.1808
     14  O5       -20.7880   14.4660  111.7400 O.3   402  FBP402     -0.3255
     15  C6       -21.0070   13.3220  113.7890 C.3   402  FBP402      0.1859
     16  O6       -19.7270   13.8540  114.1610 O.3   402  FBP402     -0.2675
     17  P2       -18.8990   12.8180  115.0780 P.3   402  FBP402      0.5327
     18  O4P      -18.6580   11.5610  114.3190 O.2   402  FBP402     -0.2224
     19  O5P      -17.4900   13.4830  115.4530 O.3   402  FBP402     -0.1145
     20  O6P      -19.7140   12.4960  116.4240 O.3   402  FBP402     -0.1145
@<TRIPOS>BOND
     1     3     1    2
     2     4     1    1
     3     1     5    1
     4     1     2    1
     5     5     6    1
     6     8     7    1
     7     6     7    1
     8    10     9    1
     9     7     9    1
    10     7    14    1
    11     9    11    1
    12    14    13    1
    13    11    13    1
    14    11    12    1
    15    13    15    1
    16    15    16    1
    17    16    17    1
    18    18    17    2
    19    17    19    1
    20    17    20    1
