@<TRIPOS>MOLECULE
3vph_NAD_A_1.pdb
 44 48 0 0 0
SMALL
GASTEIGER

@<TRIPOS>ATOM
      1  PA       -32.5700   17.2560   81.6750 P.3   403  NAD403      0.2189
      2  O1A      -31.6520   17.3770   80.5470 O.2   403  NAD403     -0.5170
      3  O2A      -32.9630   15.9900   82.3450 O.3   403  NAD403     -0.4371
      4  O5B      -32.7210   18.6110   82.5430 O.3   403  NAD403     -0.3112
      5  C5B      -32.5310   19.8600   81.8890 C.3   403  NAD403      0.1813
      6  C4B      -33.8010   20.6310   81.8750 C.3   403  NAD403      0.1821
      7  O4B      -33.5220   22.0900   81.9140 O.3   403  NAD403     -0.3135
      8  C3B      -34.5840   20.3660   80.6200 C.3   403  NAD403      0.2184
      9  O3B      -35.8960   19.7810   80.9570 O.3   403  NAD403     -0.2174
     10  C2B      -34.7070   21.7560   79.9510 C.3   403  NAD403      0.2570
     11  O2B      -35.9260   21.9330   79.2550 O.3   403  NAD403     -0.2130
     12  C1B      -34.5500   22.7010   81.0910 C.3   403  NAD403      0.3186
     13  N9A      -34.1640   24.1150   80.6430 N.pl3 403  NAD403     -0.1439
     14  C8A      -33.2100   24.4850   79.7010 C.3   403  NAD403      0.3377
     15  N7A      -33.2060   25.8560   79.6220 N.2   403  NAD403     -0.2095
     16  C5A      -34.1220   26.2530   80.4870 C.2   403  NAD403      0.2526
     17  C6A      -34.4140   27.6080   80.6930 C.2   403  NAD403      0.4393
     18  N6A      -33.7860   28.5860   80.0280 N.pl3 403  NAD403      0.2180
     19  N1A      -35.3800   27.9050   81.6150 N.2   403  NAD403      0.0021
     20  C2A      -36.0300   26.8860   82.2980 C.3   403  NAD403      0.5254
     21  N3A      -35.6960   25.5650   82.0460 N.2   403  NAD403     -0.0055
     22  C4A      -34.7200   25.2610   81.1170 C.2   403  NAD403      0.3518
     23  O3       -31.1970   17.0230   82.5160 O.3   403  NAD403     -0.2703
     24  PN       -30.7440   16.6960   84.0150 P.3   403  NAD403      0.2189
     25  O1N      -30.3760   15.2880   84.0380 O.2   403  NAD403     -0.5170
     26  O2N      -31.8410   17.1450   84.9550 O.3   403  NAD403     -0.4371
     27  O5D      -29.4050   17.5190   84.2840 O.3   403  NAD403     -0.3112
     28  C5D      -29.4010   18.9690   84.3440 C.3   403  NAD403      0.1813
     29  C4D      -28.0070   19.5010   84.6170 C.3   403  NAD403      0.1799
     30  O4D      -27.5300   19.1430   85.9760 O.3   403  NAD403     -0.3327
     31  C3D      -26.9780   18.9640   83.6710 C.3   403  NAD403      0.2158
     32  O3D      -26.0160   20.0180   83.3090 O.3   403  NAD403     -0.2175
     33  C2D      -26.3050   17.8710   84.4340 C.3   403  NAD403      0.2309
     34  O2D      -25.0060   17.5510   83.8440 O.3   403  NAD403     -0.2158
     35  C1D      -26.2640   18.4670   85.7970 C.3   403  NAD403      0.2263
     36  N1N      -25.9890   17.5020   86.8940 N.pl3 403  NAD403     -0.2787
     37  C2N      -25.1830   17.9630   87.9470 C.3   403  NAD403      0.1244
     38  C3N      -24.8640   17.1510   89.0210 C.2   403  NAD403      0.0544
     39  C7N      -23.9860   17.7040   90.1330 C.2   403  NAD403      0.2818
     40  O7N      -23.4330   16.9520   90.9440 O.2   403  NAD403     -0.2670
     41  N7N      -23.8780   19.0390   90.1600 N.am  403  NAD403     -0.0839
     42  C4N      -25.3610   15.8180   89.0660 C.2   403  NAD403      0.0033
     43  C5N      -26.1800   15.3180   88.0140 C.2   403  NAD403      0.0157
     44  C6N      -26.4960   16.1700   86.9180 C.2   403  NAD403      0.0633
@<TRIPOS>BOND
     1    11    10    1
     2    15    14    1
     3    15    16    2
     4    14    13    1
     5    10     8    1
     6    10    12    1
     7    18    17    1
     8    16    17    1
     9    16    22    1
    10     2     1    2
    11     8     9    1
    12     8     6    1
    13    13    12    1
    14    13    22    1
    15    17    19    2
    16    12     7    1
    17    22    21    2
    18    19    20    1
    19     1     3    1
    20     1    23    1
    21     1     4    1
    22     6     5    1
    23     6     7    1
    24     5     4    1
    25    21    20    1
    26    23    24    1
    27    32    31    1
    28    31    33    1
    29    31    29    1
    30    34    33    1
    31    24    25    2
    32    24    27    1
    33    24    26    1
    34    27    28    1
    35    28    29    1
    36    33    35    1
    37    29    30    1
    38    35    30    1
    39    35    36    1
    40    36    44    1
    41    36    37    1
    42    44    43    2
    43    37    38    1
    44    43    42    1
    45    38    42    2
    46    38    39    1
    47    39    41   am
    48    39    40    2
