@<TRIPOS>MOLECULE
3vpk_E4B_A_1.pdb
 12 12 0 0 0
SMALL
GASTEIGER

@<TRIPOS>ATOM
      1  C1        33.2950    1.4440   26.0580 C.3   302  E4B302      0.0513
      2  C6        31.8600    1.0150   26.4280 C.3   302  E4B302      0.2089
      3  O1        30.9330    2.1160   26.4420 O.3   302  E4B302     -0.4454
      4  C7        30.8390    2.6930   27.6800 C.2   302  E4B302      0.3412
      5  O2        31.7850    3.2320   28.2610 O.2   302  E4B302     -0.2449
      6  C9        29.5730    2.7010   28.2670 C.ar  302  E4B302      0.0759
      7  C4        29.2200    1.7240   29.2030 C.ar  302  E4B302      0.0097
      8  C2        27.9590    1.7590   29.7970 C.ar  302  E4B302      0.0422
      9  C8        27.0600    2.7730   29.4590 C.ar  302  E4B302      0.1958
     10  O3        25.8290    2.8080   30.0300 O.3   302  E4B302     -0.2866
     11  C3        27.4110    3.7550   28.5310 C.ar  302  E4B302      0.0422
     12  C5        28.6720    3.7180   27.9380 C.ar  302  E4B302      0.0097
@<TRIPOS>BOND
     1     1     2    1
     2     2     3    1
     3     3     4    1
     4     4     5    2
     5     4     6    1
     6    12     6   ar
     7    12    11   ar
     8     6     7   ar
     9    11     9   ar
    10     7     8   ar
    11     9     8   ar
    12     9    10    1
