@<TRIPOS>MOLECULE
3vpk_GHS_A_1.pdb
 11 10 0 0 0
SMALL
GASTEIGER

@<TRIPOS>ATOM
      1  C10       18.8570   -0.1550   30.2010 C.2   300  GHS300      0.2074
      2  O11       17.6940    0.1440   30.4620 O.2   300  GHS300     -0.2883
      3  C9        20.0140    0.8170   30.2950 C.3   300  GHS300      0.0722
      4  C8        19.6740    2.0800   29.5170 C.3   300  GHS300      0.0083
      5  C7        20.1810    1.9210   28.1140 C.3   300  GHS300      0.0042
      6  C6        19.0120    1.7150   27.2120 C.3   300  GHS300      0.0469
      7  C5        19.4380    1.9300   25.7840 C.3   300  GHS300      0.2204
      8  N4        19.7580    3.3400   25.5460 N.pl3 300  GHS300     -0.0865
      9  C3        19.4980    3.9660   24.3980 C.cat 300  GHS300      0.5346
     10  N2        18.8960    3.3070   23.4130 N.pl3 300  GHS300      0.1354
     11  N1        19.8300    5.2410   24.2300 N.pl3 300  GHS300      0.1354
@<TRIPOS>BOND
     1    10     9    1
     2    11     9    1
     3     9     8    2
     4     8     7    1
     5     7     6    1
     6     6     5    1
     7     5     4    1
     8     4     3    1
     9     1     3    1
    10     1     2    2
