@<TRIPOS>MOLECULE
3vpl_DNX_A_1.pdb
 13 13 0 0 0
SMALL
GASTEIGER

@<TRIPOS>ATOM
      1  C1       -13.6200   -9.3460   -5.8810 C.ar  1004  DNX1004     0.1974
      2  C2       -13.7780   -8.3710   -4.9200 C.ar  1004  DNX1004     0.0657
      3  C3       -15.0340   -7.7420   -4.9290 C.ar  1004  DNX1004     0.1432
      4  N3       -15.2080   -6.5480   -4.2380 N.pl3 1004  DNX1004    -0.0547
      5  C4       -16.1070   -8.0730   -5.8550 C.ar  1004  DNX1004     0.1633
      6  N4       -17.4030   -7.4320   -5.7790 N.pl3 1004  DNX1004     0.0593
      7  C5       -15.9060   -9.0550   -6.7020 C.ar  1004  DNX1004     0.0290
      8  C6       -14.6760   -9.6530   -6.6190 C.ar  1004  DNX1004     0.0438
      9  O1       -12.5120  -10.1030   -6.0640 O.3   1004  DNX1004    -0.2865
     10  O31      -14.3230   -5.9050   -4.0140 O.3   1004  DNX1004    -0.0542
     11  O32      -16.1340   -5.6790   -4.5800 O.3   1004  DNX1004    -0.0542
     12  O41      -17.9920   -7.2100   -6.7550 O.2   1004  DNX1004    -0.1261
     13  O42      -17.8370   -7.2450   -4.5910 O.2   1004  DNX1004    -0.1261
@<TRIPOS>BOND
     1    12     6    2
     2     7     8   ar
     3     7     5   ar
     4     8     1   ar
     5     9     1    1
     6     1     2   ar
     7     5     6    1
     8     5     3   ar
     9     6    13    2
    10     3     2   ar
    11     3     4    1
    12    11     4    1
    13     4    10    1
