@<TRIPOS>MOLECULE
3vpq_GSH_A_1.pdb
 35 34 0 0 0
SMALL
GASTEIGER

@<TRIPOS>ATOM
      1  N1        20.4100  -19.1860   20.8320 N.3   301  GSH301     -0.3183
      2  CA1       19.7430  -20.5070   20.7840 C.3   301  GSH301      0.1081
      3  C1        20.2820  -21.3790   19.6820 C.2   301  GSH301      0.3724
      4  O11       20.2900  -22.6530   19.7490 O.co2 301  GSH301     -0.2446
      5  O12       20.6600  -20.8590   18.6130 O.co2 301  GSH301     -0.2446
      6  CB1       18.2730  -20.2510   20.4320 C.3   301  GSH301     -0.0190
      7  CG1       17.4730  -21.5000   20.5670 C.3   301  GSH301      0.0259
      8  CD1       15.9900  -21.3060   20.3870 C.2   301  GSH301      0.2137
      9  OE1       15.4600  -20.1960   20.2290 O.2   301  GSH301     -0.2758
     10  N2        15.2080  -22.4850   20.4050 N.am  301  GSH301     -0.3033
     11  CA2       13.7510  -22.3660   20.2410 C.3   301  GSH301      0.1081
     12  C2        13.1040  -23.1210   21.4020 C.2   301  GSH301      0.2346
     13  O2        13.6490  -24.0860   21.9840 O.2   301  GSH301     -0.2737
     14  CB2       13.4050  -22.9600   18.9150 C.3   301  GSH301      0.0177
     15  SG2       14.1930  -22.3420   17.4330 S.3   301  GSH301     -0.1759
     16  N3        11.8200  -22.6720   21.8250 N.am  301  GSH301     -0.3031
     17  CA3       11.2140  -23.4380   22.8890 C.3   301  GSH301      0.1133
     18  C3        11.0940  -22.8380   24.2090 C.2   301  GSH301      0.3727
     19  O31       10.4150  -23.4380   25.0750 O.co2 301  GSH301     -0.2446
     20  O32       11.6970  -21.7670   24.4340 O.co2 301  GSH301     -0.2446
     21 HN11       20.2320  -18.7790   21.6420 H     301  GSH301      0.1190
     22 HN12       21.3080  -19.2960   20.7390 H     301  GSH301      0.1190
     23  HA1       19.8080  -20.9410   21.6350 H     301  GSH301      0.0575
     24 HB12       17.9150  -19.5730   21.0300 H     301  GSH301      0.0290
     25 HB13       18.2170  -19.9400   19.5300 H     301  GSH301      0.0290
     26 HG12       17.7890  -22.1270   19.8830 H     301  GSH301      0.0359
     27 HG13       17.6570  -21.9030   21.4320 H     301  GSH301      0.0359
     28  HN2       15.6010  -23.3050   20.5240 H     301  GSH301      0.1495
     29  HA2       13.5050  -21.4150   20.2390 H     301  GSH301      0.0603
     30 HB22       12.4390  -22.8570   18.7940 H     301  GSH301      0.0397
     31 HB23       13.5950  -23.9120   18.9670 H     301  GSH301      0.0397
     32  HSG       13.9020  -23.0420   16.5030 H     301  GSH301      0.1017
     33  HN3       11.3840  -21.9700   21.4130 H     301  GSH301      0.1493
     34 HA31       10.3350  -23.7230   22.5910 H     301  GSH301      0.0579
     35 HA32       11.7660  -24.2470   23.0090 H     301  GSH301      0.0579
@<TRIPOS>BOND
     1    32    15    1
     2    15    14    1
     3     5     3   ar
     4    30    14    1
     5    14    31    1
     6    14    11    1
     7    25     6    1
     8     3     4   ar
     9     3     2    1
    10    26     7    1
    11     9     8    2
    12    29    11    1
    13    11    10    1
    14    11    12    1
    15     8    10   am
    16     8     7    1
    17    10    28    1
    18     6     7    1
    19     6     2    1
    20     6    24    1
    21     7    27    1
    22    22     1    1
    23     2     1    1
    24     2    23    1
    25     1    21    1
    26    12    16   am
    27    12    13    2
    28    33    16    1
    29    16    17    1
    30    34    17    1
    31    17    35    1
    32    17    18    1
    33    18    20   ar
    34    18    19   ar
