@<TRIPOS>MOLECULE
3vps_NAD_A_1.pdb
 44 48 0 0 0
SMALL
GASTEIGER

@<TRIPOS>ATOM
      1  PA       -26.8330   -1.8410   -0.6160 P.3   401  NAD401      0.2189
      2  O1A      -26.8760   -0.9650    0.6060 O.3   401  NAD401     -0.4371
      3  O2A      -27.0830   -1.0390   -1.8120 O.2   401  NAD401     -0.5170
      4  O5B      -27.7850   -3.1180   -0.5090 O.3   401  NAD401     -0.3112
      5  C5B      -27.9820   -3.8640    0.6730 C.3   401  NAD401      0.1813
      6  C4B      -29.5010   -3.9540    0.8550 C.3   401  NAD401      0.1821
      7  O4B      -29.7380   -4.7210    2.0280 O.3   401  NAD401     -0.3135
      8  C3B      -30.2330   -2.6380    1.0240 C.3   401  NAD401      0.2184
      9  O3B      -31.2470   -2.3840    0.0440 O.3   401  NAD401     -0.2174
     10  C2B      -30.7780   -2.6630    2.4740 C.3   401  NAD401      0.2570
     11  O2B      -32.0340   -2.0340    2.6490 O.3   401  NAD401     -0.2130
     12  C1B      -30.8750   -4.1300    2.7160 C.3   401  NAD401      0.3186
     13  N9A      -30.5890   -4.6420    4.0380 N.pl3 401  NAD401     -0.1439
     14  C8A      -29.4770   -4.4230    4.8160 C.3   401  NAD401      0.3377
     15  N7A      -29.5910   -5.2000    5.9260 N.2   401  NAD401     -0.2095
     16  C5A      -30.7270   -5.9510    5.8040 C.2   401  NAD401      0.2526
     17  C6A      -31.3400   -6.9210    6.6330 C.2   401  NAD401      0.4393
     18  N6A      -30.6880   -7.4740    7.6790 N.pl3 401  NAD401      0.2180
     19  N1A      -32.5400   -7.4490    6.2100 N.2   401  NAD401      0.0021
     20  C2A      -33.1520   -7.0490    5.0300 C.3   401  NAD401      0.5254
     21  N3A      -32.5600   -6.0910    4.2360 N.2   401  NAD401     -0.0055
     22  C4A      -31.3650   -5.5880    4.6280 C.2   401  NAD401      0.3518
     23  O3       -25.3400   -2.4400   -0.5940 O.3   401  NAD401     -0.2703
     24  PN       -24.5730   -3.0750   -1.8250 P.3   401  NAD401      0.2189
     25  O1N      -23.5200   -2.0900   -2.2350 O.3   401  NAD401     -0.4371
     26  O2N      -25.5520   -3.5640   -2.7680 O.2   401  NAD401     -0.5170
     27  O5D      -23.8780   -4.2670   -1.0690 O.3   401  NAD401     -0.3112
     28  C5D      -24.4250   -5.6180   -1.1060 C.3   401  NAD401      0.1813
     29  C4D      -23.4860   -6.6100   -0.4040 C.3   401  NAD401      0.1799
     30  O4D      -22.1740   -6.5230   -0.9420 O.3   401  NAD401     -0.3327
     31  C3D      -23.2780   -6.4570    1.1240 C.3   401  NAD401      0.2158
     32  O3D      -23.0900   -7.8200    1.6500 O.3   401  NAD401     -0.2175
     33  C2D      -22.0230   -5.6260    1.1810 C.3   401  NAD401      0.2309
     34  O2D      -21.3780   -5.7260    2.4020 O.3   401  NAD401     -0.2158
     35  C1D      -21.1990   -6.2980    0.0760 C.3   401  NAD401      0.2263
     36  N1N      -20.1270   -5.4870   -0.5220 N.pl3 401  NAD401     -0.2787
     37  C2N      -20.4420   -4.4560   -1.3770 C.3   401  NAD401      0.1244
     38  C3N      -19.4050   -3.7200   -1.9310 C.2   401  NAD401      0.0544
     39  C7N      -19.6240   -2.5050   -2.7380 C.2   401  NAD401      0.2818
     40  O7N      -18.6680   -1.6320   -3.2390 O.2   401  NAD401     -0.2670
     41  N7N      -20.7920   -2.1310   -2.9580 N.am  401  NAD401     -0.0839
     42  C4N      -18.0880   -4.0680   -1.6650 C.2   401  NAD401      0.0033
     43  C5N      -17.7750   -5.0850   -0.7920 C.2   401  NAD401      0.0157
     44  C6N      -18.8110   -5.7770   -0.1720 C.2   401  NAD401      0.0633
@<TRIPOS>BOND
     1    40    39    2
     2    41    39   am
     3    26    24    2
     4    39    38    1
     5    25    24    1
     6    38    42    2
     7    38    37    1
     8    24    27    1
     9    24    23    1
    10     3     1    2
    11    42    43    1
    12    37    36    1
    13    28    27    1
    14    28    29    1
    15    30    29    1
    16    30    35    1
    17    43    44    2
    18     1    23    1
    19     1     4    1
    20     1     2    1
    21    36    44    1
    22    36    35    1
    23     4     5    1
    24    29    31    1
    25     9     8    1
    26    35    33    1
    27     5     6    1
    28     6     8    1
    29     6     7    1
    30     8    10    1
    31    31    33    1
    32    31    32    1
    33    33    34    1
    34     7    12    1
    35    10    11    1
    36    10    12    1
    37    12    13    1
    38    13    22    1
    39    13    14    1
    40    21    22    2
    41    21    20    1
    42    22    16    1
    43    14    15    1
    44    20    19    1
    45    16    15    2
    46    16    17    1
    47    19    17    2
    48    17    18    1
