@<TRIPOS>MOLECULE
3vps_UD1_A_1.pdb
 39 41 0 0 0
SMALL
GASTEIGER

@<TRIPOS>ATOM
      1  C1'      -16.5780   -0.1000    0.1050 C.3   400  UD1400      0.2633
      2  C2'      -17.9750   -0.5700    0.5350 C.3   400  UD1400      0.1845
      3  C3'      -17.9190   -1.6250    1.6470 C.3   400  UD1400      0.2094
      4  C4'      -16.9770   -2.7450    1.2110 C.3   400  UD1400      0.2136
      5  C5'      -15.6530   -2.2090    0.6390 C.3   400  UD1400      0.1834
      6  C6'      -14.7220   -3.2790    0.0880 C.3   400  UD1400      0.2142
      7  C7'      -19.6090    1.2450    0.3920 C.2   400  UD1400      0.2420
      8  C8'      -20.1290    2.4650    1.0870 C.3   400  UD1400      0.0964
      9  N2'      -18.6600    0.5860    1.0890 N.am  400  UD1400     -0.1992
     10  O1'      -15.8740    0.4240    1.2700 O.3   400  UD1400     -0.2864
     11  O3'      -19.2620   -2.0780    2.0250 O.3   400  UD1400     -0.2183
     12  O4'      -16.7280   -3.6050    2.3200 O.3   400  UD1400     -0.2176
     13  O5'      -15.8190   -1.2050   -0.3920 O.3   400  UD1400     -0.3260
     14  O6'      -13.4360   -2.6020    0.1150 O.3   400  UD1400     -0.2176
     15  O7'      -19.9880    0.8590   -0.7300 O.2   400  UD1400     -0.2733
     16  N1       -13.4950    8.6460   -0.1580 N.am  400  UD1400     -0.1766
     17  C2       -13.1460    9.9690   -0.5930 C.1   400  UD1400      0.2845
     18  N3       -14.1380   10.8300   -0.9240 N.2   400  UD1400     -0.2452
     19  C4       -15.4220   10.4160   -0.8830 C.1   400  UD1400      0.2182
     20  C5       -15.7890    9.1230   -0.5050 C.2   400  UD1400      0.1242
     21  C6       -14.7890    8.2330   -0.1470 C.2   400  UD1400      0.0929
     22  O2       -11.9370   10.3460   -0.6600 O.2   400  UD1400     -0.1918
     23  O4       -16.3250   11.2010   -1.1950 O.2   400  UD1400     -0.2085
     24  C1B      -12.4220    7.6690    0.1570 C.3   400  UD1400      0.2401
     25  C2B      -12.5140    6.8500    1.4330 C.3   400  UD1400      0.2319
     26  O2'      -11.8080    7.4880    2.4930 O.3   400  UD1400     -0.2157
     27  C3B      -11.8320    5.5220    1.0730 C.3   400  UD1400      0.2158
     28  C4B      -12.0110    5.4070   -0.4340 C.3   400  UD1400      0.1799
     29  O4B      -12.4070    6.7150   -0.9050 O.3   400  UD1400     -0.3320
     30  O3B      -10.4320    5.5940    1.3720 O.3   400  UD1400     -0.2175
     31  C5B      -13.1310    4.4330   -0.7810 C.3   400  UD1400      0.1813
     32  O5B      -14.2020    4.6490    0.1290 O.3   400  UD1400     -0.3112
     33  PA       -15.6920    4.0510   -0.1050 P.3   400  UD1400      0.2189
     34  O1A      -16.0640    4.4040   -1.5140 O.2   400  UD1400     -0.5170
     35  O2A      -16.5680    4.4980    1.0150 O.3   400  UD1400     -0.4371
     36  O3A      -15.5650    2.4590    0.0260 O.3   400  UD1400     -0.2703
     37  PB       -14.8090    1.5910    1.1790 P.3   400  UD1400      0.2208
     38  O1B      -13.5180    1.1670    0.5330 O.2   400  UD1400     -0.5170
     39  O2B      -14.7960    2.2480    2.5410 O.3   400  UD1400     -0.4371
@<TRIPOS>BOND
     1    34    33    2
     2    23    19    2
     3    18    19    2
     4    18    17    2
     5    29    28    1
     6    29    24    1
     7    19    20    1
     8    31    28    1
     9    31    32    1
    10    15     7    2
    11    22    17    2
    12    17    16   am
    13    20    21    2
    14    28    27    1
    15    13     1    1
    16    13     5    1
    17    16    21    1
    18    16    24    1
    19    33    36    1
    20    33    32    1
    21    33    35    1
    22    36    37    1
    23     6    14    1
    24     6     5    1
    25     1     2    1
    26     1    10    1
    27    24    25    1
    28     7     8    1
    29     7     9   am
    30    38    37    2
    31     2     9    1
    32     2     3    1
    33     5     4    1
    34    27    30    1
    35    27    25    1
    36    37    10    1
    37    37    39    1
    38     4     3    1
    39     4    12    1
    40    25    26    1
    41     3    11    1
