@<TRIPOS>MOLECULE
3vq1_LP5_C_1.pdb
 48 48 0 0 0
SMALL
GASTEIGER

@<TRIPOS>ATOM
      1  O48        2.4620   24.5900    3.2200 O.3   301  LP5301     -0.1145
      2  P45        3.8690   24.8910    3.5640 P.3   301  LP5301      0.5345
      3  O46        4.5330   23.8380    4.6110 O.3   301  LP5301     -0.1145
      4  O47        4.8640   24.9520    2.2830 O.2   301  LP5301     -0.2223
      5  O1         4.0200   26.3230    4.2300 O.3   301  LP5301     -0.2424
      6  C1         4.3900   26.5130    5.5930 C.3   301  LP5301      0.2686
      7  C2         3.1990   27.0300    6.3850 C.3   301  LP5301      0.1942
      8  N2         2.2140   25.9440    6.5580 N.am  301  LP5301     -0.1981
      9  C7         1.2560   25.8970    7.5050 C.2   301  LP5301      0.2442
     10  C8         0.4260   24.6150    7.4700 C.3   301  LP5301      0.1196
     11  C16       -0.5550   24.5420    8.6370 C.3   301  LP5301      0.1611
     12  O44       -0.6340   23.1800    9.0800 O.3   301  LP5301     -0.2226
     13  C17       -1.9190   25.0650    8.1510 C.3   301  LP5301      0.0334
     14  C18       -3.0910   24.4590    8.9400 C.3   301  LP5301      0.0026
     15  C19       -3.2780   25.2070   10.2630 C.3   301  LP5301      0.0001
     16  C20       -4.3370   26.2910   10.0990 C.3   301  LP5301      0.0000
     17  C21       -5.0520   26.4650   11.4320 C.3   301  LP5301      0.0000
     18  C22       -6.5180   26.7860   11.1630 C.3   301  LP5301      0.0000
     19  C23       -7.0380   27.7390   12.2440 C.3   301  LP5301      0.0000
     20  C24       -6.9100   29.1910   11.7650 C.3   301  LP5301      0.0000
     21  C25       -7.9430   30.0740   12.4670 C.3   301  LP5301      0.0000
     22  C26       -7.2880   31.3910   12.8850 C.3   301  LP5301      0.0000
     23  C27       -7.1100   31.4050   14.4070 C.3   301  LP5301      0.0000
     24  O7         1.0120   26.7870    8.3180 O.2   301  LP5301     -0.2733
     25  C3         2.6060   28.2290    5.6530 C.3   301  LP5301      0.2262
     26  C4         3.6770   29.2980    5.4170 C.3   301  LP5301      0.2231
     27  C5         4.9280   28.6750    4.7880 C.3   301  LP5301      0.1845
     28  O5         5.3810   27.5320    5.5600 O.3   301  LP5301     -0.3258
     29  C6         6.0440   29.7060    4.7540 C.3   301  LP5301      0.2142
     30  O6         6.8560   29.5540    5.9220 O.3   301  LP5301     -0.2176
     31  O4         3.1640   30.2890    4.5310 O.3   301  LP5301     -0.2165
     32  O3         1.6020   28.7710    6.4680 O.3   301  LP5301     -0.4475
     33  C28        0.4870   29.1430    5.7980 C.2   301  LP5301      0.3196
     34  O42        0.1730   28.7940    4.6560 O.2   301  LP5301     -0.2500
     35  C29       -0.3830   30.0800    6.6030 C.3   301  LP5301      0.1423
     36  C30       -1.3800   29.2370    7.3520 C.3   301  LP5301      0.1631
     37  O43       -2.6120   29.3590    6.6400 O.3   301  LP5301     -0.2225
     38  C31       -1.4620   29.7610    8.7890 C.3   301  LP5301      0.0335
     39  C32       -2.8150   30.3990    9.0900 C.3   301  LP5301      0.0026
     40  C33       -2.6170   31.8670    9.4620 C.3   301  LP5301      0.0001
     41  C34       -3.1950   32.0760   10.8590 C.3   301  LP5301      0.0000
     42  C35       -2.8130   33.4640   11.3750 C.3   301  LP5301      0.0000
     43  C36       -4.0510   34.1290   11.9820 C.3   301  LP5301      0.0000
     44  C37       -3.6440   35.4410   12.6530 C.3   301  LP5301      0.0000
     45  C38       -4.7490   35.9030   13.6050 C.3   301  LP5301      0.0000
     46  C39       -4.2850   35.7260   15.0550 C.3   301  LP5301      0.0000
     47  C40       -5.4510   35.2380   15.9220 C.3   301  LP5301      0.0000
     48  C41       -4.9520   34.1200   16.8470 C.3   301  LP5301      0.0000
@<TRIPOS>BOND
     1     4     2    2
     2     1     2    1
     3     2     5    1
     4     2     3    1
     5     5     6    1
     6    31    26    1
     7    34    33    2
     8    29    27    1
     9    29    30    1
    10    27    26    1
    11    27    28    1
    12    26    25    1
    13    28     6    1
    14     6     7    1
    15    25     7    1
    16    25    32    1
    17    33    32    1
    18    33    35    1
    19     7     8    1
    20     8     9   am
    21    35    36    1
    22    37    36    1
    23    36    38    1
    24    10     9    1
    25    10    11    1
    26     9    24    2
    27    13    11    1
    28    13    14    1
    29    11    12    1
    30    38    39    1
    31    14    15    1
    32    39    40    1
    33    40    41    1
    34    16    15    1
    35    16    17    1
    36    41    42    1
    37    18    17    1
    38    18    19    1
    39    42    43    1
    40    20    19    1
    41    20    21    1
    42    43    44    1
    43    21    22    1
    44    44    45    1
    45    22    23    1
    46    45    46    1
    47    46    47    1
    48    47    48    1
