@<TRIPOS>MOLECULE
3vq1_LP4_C_1.pdb
 45 45 0 0 0
SMALL
GASTEIGER

@<TRIPOS>ATOM
      1  O48       12.2340   31.2670    7.9500 O.2   300  LP4300     -0.2224
      2  P45       11.7090   32.4620    8.6530 P.3   300  LP4300      0.5327
      3  O46       11.3260   32.3560   10.0790 O.3   300  LP4300     -0.1145
      4  O47       12.7970   33.6440    8.4780 O.3   300  LP4300     -0.1145
      5  O4        10.4060   32.9500    7.8730 O.3   300  LP4300     -0.2664
      6  C4         9.4820   31.9260    7.5430 C.3   300  LP4300      0.1973
      7  C5         9.2280   31.8250    6.0330 C.3   300  LP4300      0.1793
      8  O5         8.3940   30.6660    5.8410 O.3   300  LP4300     -0.3490
      9  C6        10.5320   31.7520    5.2050 C.3   300  LP4300      0.2141
     10  O6        11.2030   30.4880    5.3580 O.3   300  LP4300     -0.2176
     11  C3         8.1720   32.1220    8.3030 C.3   300  LP4300      0.2209
     12  O3         8.5210   32.1280    9.6870 O.3   300  LP4300     -0.4477
     13  C28        7.6200   32.6700   10.5390 C.2   300  LP4300      0.3196
     14  O42        6.6610   33.3620   10.2020 O.2   300  LP4300     -0.2500
     15  C29        7.8840   32.3270   12.0010 C.3   300  LP4300      0.1423
     16  C30        8.2450   33.5990   12.7630 C.3   300  LP4300      0.1631
     17  O43        9.0290   33.2700   13.9130 O.3   300  LP4300     -0.2225
     18  C31        6.9710   34.2980   13.2220 C.3   300  LP4300      0.0335
     19  C32        5.9510   33.2930   13.7620 C.3   300  LP4300      0.0026
     20  C33        5.9520   33.3060   15.2930 C.3   300  LP4300      0.0001
     21  C34        5.7940   34.7370   15.8120 C.3   300  LP4300      0.0000
     22  C35        4.4070   34.9140   16.4290 C.3   300  LP4300      0.0000
     23  C36        4.4470   36.0520   17.4590 C.3   300  LP4300      0.0000
     24  C37        4.4480   35.4840   18.8840 C.3   300  LP4300      0.0000
     25  C38        3.6780   36.4340   19.8120 C.3   300  LP4300      0.0000
     26  C39        3.7520   35.9160   21.2540 C.3   300  LP4300      0.0000
     27  C40        4.5900   36.8700   22.1210 C.3   300  LP4300      0.0000
     28  C41        4.5840   36.4050   23.5810 C.3   300  LP4300      0.0000
     29  C2         7.2150   30.9590    7.9660 C.3   300  LP4300      0.1671
     30  C1         7.0870   30.8730    6.4630 C.3   300  LP4300      0.1676
     31  N2         5.8680   31.1720    8.5250 N.am  300  LP4300     -0.2007
     32  C7         5.0810   30.1730    8.9840 C.2   300  LP4300      0.2441
     33  O7         5.4040   28.9850    8.9800 O.2   300  LP4300     -0.2733
     34  C8         3.6890   30.5940    9.5110 C.3   300  LP4300      0.1196
     35  C16        3.7860   31.5850   10.6830 C.3   300  LP4300      0.1611
     36  O44        4.7310   31.0840   11.6370 O.3   300  LP4300     -0.2226
     37  C17        2.4080   31.7650   11.3490 C.3   300  LP4300      0.0334
     38  C18        2.4210   32.9640   12.3160 C.3   300  LP4300      0.0026
     39  C19        0.9850   33.4450   12.6060 C.3   300  LP4300      0.0001
     40  C20        0.9720   34.9360   12.9810 C.3   300  LP4300      0.0000
     41  C21        0.5170   35.1180   14.4360 C.3   300  LP4300      0.0000
     42  C22       -0.5310   36.2470   14.5060 C.3   300  LP4300      0.0000
     43  C23       -0.6780   36.8080   15.9380 C.3   300  LP4300      0.0000
     44  C24       -1.2470   38.2380   15.8740 C.3   300  LP4300      0.0000
     45  C25       -2.1460   38.5380   17.0760 C.3   300  LP4300      0.0000
@<TRIPOS>BOND
     1     9    10    1
     2     9     7    1
     3     8     7    1
     4     8    30    1
     5     7     6    1
     6    30    29    1
     7     6     5    1
     8     6    11    1
     9     5     2    1
    10     1     2    2
    11    29    11    1
    12    29    31    1
    13    11    12    1
    14     4     2    1
    15    31    32   am
    16     2     3    1
    17    33    32    2
    18    32    34    1
    19    34    35    1
    20    12    13    1
    21    14    13    2
    22    13    15    1
    23    35    37    1
    24    35    36    1
    25    37    38    1
    26    15    16    1
    27    38    39    1
    28    39    40    1
    29    16    18    1
    30    16    17    1
    31    40    41    1
    32    18    19    1
    33    19    20    1
    34    41    42    1
    35    42    43    1
    36    20    21    1
    37    21    22    1
    38    44    43    1
    39    44    45    1
    40    22    23    1
    41    23    24    1
    42    24    25    1
    43    25    26    1
    44    26    27    1
    45    27    28    1
