@<TRIPOS>MOLECULE
3vq2_LP4_C_1.pdb
 45 45 0 0 0
SMALL
GASTEIGER

@<TRIPOS>ATOM
      1  O48      -33.5330  -18.6540   14.4290 O.2   300  LP4300     -0.2224
      2  P45      -33.1110  -18.5760   15.8470 P.3   300  LP4300      0.5327
      3  O46      -33.6770  -17.4940   16.6730 O.3   300  LP4300     -0.1145
      4  O47      -33.3490  -19.9870   16.5810 O.3   300  LP4300     -0.1145
      5  O4       -31.5100  -18.6380   15.8930 O.3   300  LP4300     -0.2664
      6  C4       -30.6600  -17.5110   15.7490 C.3   300  LP4300      0.1973
      7  C5       -29.5910  -17.8260   14.6900 C.3   300  LP4300      0.1793
      8  O5       -28.6530  -16.7310   14.6470 O.3   300  LP4300     -0.3490
      9  C6       -30.2590  -18.0250   13.3130 C.3   300  LP4300      0.2141
     10  O6       -29.3940  -18.6840   12.3640 O.3   300  LP4300     -0.2176
     11  C3       -30.0280  -17.2830   17.1190 C.3   300  LP4300      0.2209
     12  O3       -31.0700  -16.7880   17.9500 O.3   300  LP4300     -0.4477
     13  C28      -31.3180  -17.3700   19.1450 C.2   300  LP4300      0.3196
     14  O42      -30.5430  -18.1250   19.7250 O.2   300  LP4300     -0.2500
     15  C29      -32.7090  -17.0060   19.7100 C.3   300  LP4300      0.1423
     16  C30      -32.7020  -16.5450   21.1780 C.3   300  LP4300      0.1631
     17  O43      -31.6610  -15.5700   21.3590 O.3   300  LP4300     -0.2225
     18  C31      -32.6100  -17.7400   22.1470 C.3   300  LP4300      0.0335
     19  C32      -32.7830  -17.2870   23.6030 C.3   300  LP4300      0.0026
     20  C33      -33.3020  -18.4220   24.5040 C.3   300  LP4300      0.0001
     21  C34      -33.8100  -17.8110   25.8220 C.3   300  LP4300      0.0000
     22  C35      -34.8620  -18.7130   26.4670 C.3   300  LP4300      0.0000
     23  C36      -35.1390  -18.2990   27.9200 C.3   300  LP4300      0.0000
     24  C37      -36.5510  -17.7120   27.9770 C.3   300  LP4300      0.0000
     25  C38      -37.1530  -17.7810   29.3840 C.3   300  LP4300      0.0000
     26  C39      -38.6750  -17.8680   29.2110 C.3   300  LP4300      0.0000
     27  C40      -39.3840  -17.1700   30.3590 C.3   300  LP4300      0.0000
     28  C41      -40.8240  -16.9330   29.9150 C.3   300  LP4300      0.0000
     29  C2       -28.8650  -16.2640   17.0580 C.3   300  LP4300      0.1671
     30  C1       -27.9340  -16.5710   15.8990 C.3   300  LP4300      0.1676
     31  N2       -28.0600  -16.3380   18.2850 N.am  300  LP4300     -0.2007
     32  C7       -27.7640  -15.2770   19.0540 C.2   300  LP4300      0.2441
     33  O7       -28.1060  -14.1250   18.8090 O.2   300  LP4300     -0.2733
     34  C8       -26.8740  -15.5880   20.2610 C.3   300  LP4300      0.1196
     35  C16      -27.6140  -15.4710   21.5870 C.3   300  LP4300      0.1611
     36  O44      -27.0320  -14.3760   22.3010 O.3   300  LP4300     -0.2226
     37  C17      -27.4210  -16.7700   22.3810 C.3   300  LP4300      0.0334
     38  C18      -28.7490  -17.3080   22.9290 C.3   300  LP4300      0.0026
     39  C19      -28.6100  -17.5760   24.4380 C.3   300  LP4300      0.0001
     40  C20      -29.3590  -18.8500   24.8520 C.3   300  LP4300      0.0000
     41  C21      -29.5830  -18.8360   26.3780 C.3   300  LP4300      0.0000
     42  C22      -29.5610  -20.2600   26.9410 C.3   300  LP4300      0.0000
     43  C23      -29.9120  -20.2510   28.4480 C.3   300  LP4300      0.0000
     44  C24      -29.8320  -21.6840   29.0090 C.3   300  LP4300      0.0000
     45  C25      -30.6680  -21.8470   30.2880 C.3   300  LP4300      0.0000
@<TRIPOS>BOND
     1    10     9    1
     2     9     7    1
     3     1     2    2
     4     8     7    1
     5     8    30    1
     6     7     6    1
     7     6     5    1
     8     6    11    1
     9     2     5    1
    10     2     4    1
    11     2     3    1
    12    30    29    1
    13    29    11    1
    14    29    31    1
    15    11    12    1
    16    12    13    1
    17    31    32   am
    18    33    32    2
    19    32    34    1
    20    13    15    1
    21    13    14    2
    22    15    16    1
    23    34    35    1
    24    16    17    1
    25    16    18    1
    26    35    36    1
    27    35    37    1
    28    18    19    1
    29    37    38    1
    30    38    39    1
    31    19    20    1
    32    39    40    1
    33    20    21    1
    34    40    41    1
    35    21    22    1
    36    41    42    1
    37    22    23    1
    38    42    43    1
    39    23    24    1
    40    24    25    1
    41    43    44    1
    42    44    45    1
    43    26    25    1
    44    26    27    1
    45    28    27    1
