@<TRIPOS>MOLECULE
3vq2_LP5_C_1.pdb
 48 48 0 0 0
SMALL
GASTEIGER

@<TRIPOS>ATOM
      1  O48      -21.9000  -10.8690   14.6120 O.3   301  LP5301     -0.1145
      2  P45      -22.7140  -12.0100   14.1700 P.3   301  LP5301      0.5345
      3  O46      -24.1110  -11.4970   13.5320 O.3   301  LP5301     -0.1145
      4  O47      -22.0950  -12.9390   13.0280 O.2   301  LP5301     -0.2223
      5  O1       -22.9900  -13.1130   15.3460 O.3   301  LP5301     -0.2424
      6  C1       -24.2890  -13.2100   15.9750 C.3   301  LP5301      0.2686
      7  C2       -24.1550  -13.5300   17.4350 C.3   301  LP5301      0.1942
      8  N2       -23.3900  -12.4490   18.0210 N.am  301  LP5301     -0.1981
      9  C7       -23.6010  -11.9930   19.2460 C.2   301  LP5301      0.2442
     10  C8       -22.6900  -10.8120   19.5670 C.3   301  LP5301      0.1196
     11  C16      -22.8020  -10.3620   21.0070 C.3   301  LP5301      0.1611
     12  O44      -23.1620   -8.9770   21.0240 O.3   301  LP5301     -0.2226
     13  C17      -21.4090  -10.5390   21.5790 C.3   301  LP5301      0.0334
     14  C18      -21.3180   -9.8970   22.9500 C.3   301  LP5301      0.0026
     15  C19      -22.0190  -10.7980   23.9410 C.3   301  LP5301      0.0001
     16  C20      -20.9710  -11.5510   24.7440 C.3   301  LP5301      0.0000
     17  C21      -21.0350  -11.0480   26.1750 C.3   301  LP5301      0.0000
     18  C22      -21.9220  -11.9620   27.0220 C.3   301  LP5301      0.0000
     19  C23      -21.0700  -12.9230   27.8650 C.3   301  LP5301      0.0000
     20  C24      -20.2090  -12.1480   28.8630 C.3   301  LP5301      0.0000
     21  C25      -19.0180  -13.0060   29.2960 C.3   301  LP5301      0.0000
     22  C26      -17.7480  -12.5440   28.5770 C.3   301  LP5301      0.0000
     23  C27      -16.8350  -11.8080   29.5620 C.3   301  LP5301      0.0000
     24  O7       -24.4240  -12.4570   20.0390 O.2   301  LP5301     -0.2733
     25  C3       -23.4820  -14.8770   17.6270 C.3   301  LP5301      0.2262
     26  C4       -24.2820  -15.9360   16.8430 C.3   301  LP5301      0.2231
     27  C5       -24.5930  -15.4860   15.4070 C.3   301  LP5301      0.1845
     28  O5       -25.1250  -14.1810   15.3730 O.3   301  LP5301     -0.3258
     29  C6       -25.7130  -16.3190   14.8090 C.3   301  LP5301      0.2142
     30  O6       -26.9680  -15.7310   15.2180 O.3   301  LP5301     -0.2176
     31  O4       -23.5380  -17.1420   16.7880 O.3   301  LP5301     -0.2165
     32  O3       -23.6240  -15.2380   18.9860 O.3   301  LP5301     -0.4475
     33  C28      -22.6360  -15.0570   19.9150 C.2   301  LP5301      0.3196
     34  O42      -21.4720  -14.7220   19.6920 O.2   301  LP5301     -0.2500
     35  C29      -23.1210  -15.3440   21.3360 C.3   301  LP5301      0.1423
     36  C30      -22.0240  -15.0860   22.3560 C.3   301  LP5301      0.1631
     37  O43      -20.8960  -15.8960   22.0280 O.3   301  LP5301     -0.2225
     38  C31      -22.5620  -15.4060   23.7610 C.3   301  LP5301      0.0335
     39  C32      -22.5010  -16.9110   24.0420 C.3   301  LP5301      0.0026
     40  C33      -23.7920  -17.3800   24.6950 C.3   301  LP5301      0.0001
     41  C34      -23.5430  -17.6420   26.1800 C.3   301  LP5301      0.0000
     42  C35      -24.7670  -18.3380   26.7730 C.3   301  LP5301      0.0000
     43  C36      -24.4230  -18.9300   28.1390 C.3   301  LP5301      0.0000
     44  C37      -25.5500  -19.8680   28.5700 C.3   301  LP5301      0.0000
     45  C38      -25.6640  -19.8520   30.0900 C.3   301  LP5301      0.0000
     46  C39      -26.9570  -19.1480   30.5010 C.3   301  LP5301      0.0000
     47  C40      -26.6570  -18.1420   31.6100 C.3   301  LP5301      0.0000
     48  C41      -27.9660  -17.6940   32.2640 C.3   301  LP5301      0.0000
@<TRIPOS>BOND
     1     4     2    2
     2     3     2    1
     3     2     1    1
     4     2     5    1
     5    29    30    1
     6    29    27    1
     7     5     6    1
     8    28    27    1
     9    28     6    1
    10    27    26    1
    11     6     7    1
    12    31    26    1
    13    26    25    1
    14     7    25    1
    15     7     8    1
    16    25    32    1
    17     8     9   am
    18    32    33    1
    19     9    10    1
    20     9    24    2
    21    10    11    1
    22    34    33    2
    23    33    35    1
    24    11    12    1
    25    11    13    1
    26    35    36    1
    27    13    14    1
    28    37    36    1
    29    36    38    1
    30    14    15    1
    31    38    39    1
    32    15    16    1
    33    39    40    1
    34    40    41    1
    35    16    17    1
    36    17    18    1
    37    41    42    1
    38    42    43    1
    39    18    19    1
    40    19    20    1
    41    43    44    1
    42    44    45    1
    43    22    21    1
    44    22    23    1
    45    20    21    1
    46    45    46    1
    47    46    47    1
    48    47    48    1
