@<TRIPOS>MOLECULE
3vq4_0NX_A_1.pdb
 13 14 0 0 0
SMALL
GASTEIGER

@<TRIPOS>ATOM
      1  O13       12.1090   30.5060   21.7720 O.3   304  0NX304     -0.2133
      2  C12       13.1910   29.5180   21.8350 C.3   304  0NX304      0.2308
      3  C9        14.5950   29.8090   21.2950 C.ar  304  0NX304      0.1338
      4  C8        14.9390   29.8500   19.9520 C.ar  304  0NX304      0.0608
      5  N10       15.7290   30.0110   22.0280 N.ar  304  0NX304     -0.0787
      6  O11       16.7640   30.2330   21.0520 O.2   304  0NX304     -0.3536
      7  C7        16.2880   30.1300   19.7950 C.ar  304  0NX304      0.1766
      8  C3        17.0270   30.2960   18.5290 C.ar  304  0NX304      0.0372
      9  C2        18.2820   30.9520   18.5140 C.ar  304  0NX304      0.0031
     10  C4        16.4220   29.8470   17.3560 C.ar  304  0NX304      0.0031
     11  C5        17.0960   30.0250   16.1280 C.ar  304  0NX304      0.0001
     12  C6        18.3640   30.6500   16.1060 C.ar  304  0NX304      0.0000
     13  C1        18.9450   31.1220   17.3080 C.ar  304  0NX304      0.0001
@<TRIPOS>BOND
     1    12    11   ar
     2    12    13   ar
     3    11    10   ar
     4    13     9   ar
     5    10     8   ar
     6     9     8   ar
     7     8     7    1
     8     7     4   ar
     9     7     6   ar
    10     4     3   ar
    11     6     5   ar
    12     3     2    1
    13     3     5   ar
    14     1     2    1
