@<TRIPOS>MOLECULE
3vq5_MMJ_A_1.pdb
 15 16 0 0 0
SMALL
GASTEIGER

@<TRIPOS>ATOM
      1  C15        1.1970   19.9870    9.3130 C.3   1007  MMJ1007     0.0625
      2  C10        0.4610   19.5740    8.0440 C.2   1007  MMJ1007     0.0991
      3  C9         0.1000   20.5130    6.9270 C.3   1007  MMJ1007     0.1195
      4  C12        0.2280   22.0180    6.6360 C.3   1007  MMJ1007     0.1067
      5  N13        1.3250   22.4640    5.7510 N.3   1007  MMJ1007    -0.2152
      6  C14        1.2560   22.4320    4.2680 C.3   1007  MMJ1007     0.1075
      7  S8        -0.7020   19.5510    5.7110 S.3   1007  MMJ1007    -0.0750
      8  N11        0.1130   18.2520    7.7680 N.2   1007  MMJ1007    -0.4034
      9  C7        -0.5100   18.0560    6.5470 C.2   1007  MMJ1007     0.1565
     10  C2        -1.0770   16.8380    5.8980 C.ar  1007  MMJ1007     0.0356
     11  C3        -0.7030   15.5940    6.4420 C.ar  1007  MMJ1007     0.0031
     12  C4        -1.1980   14.3940    5.9280 C.ar  1007  MMJ1007     0.0001
     13  C5        -2.0990   14.4180    4.8630 C.ar  1007  MMJ1007     0.0000
     14  C6        -2.4440   15.6750    4.3220 C.ar  1007  MMJ1007     0.0001
     15  C1        -1.9500   16.8980    4.7890 C.ar  1007  MMJ1007     0.0031
@<TRIPOS>BOND
     1     6     5    1
     2    14    15   ar
     3    14    13   ar
     4    15    10   ar
     5    13    12   ar
     6     7     9    1
     7     7     3    1
     8     5     4    1
     9    10    11   ar
    10    10     9    1
    11    12    11   ar
    12     9     8    2
    13     4     3    1
    14     3     2    1
    15     8     2    2
    16     2     1    1
