@<TRIPOS>MOLECULE
3vq6_BCK_A_1.pdb
 14 15 0 0 0
SMALL
GASTEIGER

@<TRIPOS>ATOM
      1  O13       31.5760    7.4610   18.1350 O.3   303  BCK303     -0.2151
      2  C12       32.6080    6.8550   17.3410 C.3   303  BCK303      0.2117
      3  C3        33.8390    6.9830   18.2240 C.ar  303  BCK303      0.0487
      4  C4        34.9780    7.7270   17.9060 C.ar  303  BCK303      0.1198
      5  N5        35.8500    7.6230   18.9580 N.ar  303  BCK303     -0.1679
      6  N1        35.2890    6.7720   19.9310 N.ar  303  BCK303     -0.2490
      7  C14       36.0980    6.5480   21.1840 C.3   303  BCK303      0.1537
      8  C2        34.0590    6.3620   19.5700 C.ar  303  BCK303      0.0779
      9  C6        33.1080    5.5100   20.3970 C.ar  303  BCK303      0.0171
     10  C11       32.7950    5.9070   21.7200 C.ar  303  BCK303      0.0015
     11  C10       31.8720    5.1460   22.4740 C.ar  303  BCK303      0.0000
     12  C9        31.2710    3.9970   21.9310 C.ar  303  BCK303      0.0000
     13  C8        31.6070    3.6150   20.6240 C.ar  303  BCK303      0.0000
     14  C7        32.5140    4.3600   19.8720 C.ar  303  BCK303      0.0015
@<TRIPOS>BOND
     1     2     1    1
     2     2     3    1
     3     4     3   ar
     4     4     5   ar
     5     3     8   ar
     6     5     6   ar
     7     8     6   ar
     8     8     9    1
     9    14     9   ar
    10    14    13   ar
    11     6     7    1
    12     9    10   ar
    13    13    12   ar
    14    10    11   ar
    15    12    11   ar
