@<TRIPOS>MOLECULE
3vq7_SNU_A_1.pdb
 12 13 0 0 0
SMALL
GASTEIGER

@<TRIPOS>ATOM
      1  CAF       14.4580    0.9020   18.9600 C.ar  1004  SNU1004     0.0189
      2  CAD       15.3030    1.3170   19.9830 C.ar  1004  SNU1004     0.0195
      3  CAJ       14.9560    1.1710   21.3030 C.ar  1004  SNU1004     0.0892
      4  NAA       15.8220    1.5830   22.2560 N.pl3 1004  SNU1004    -0.1281
      5  CAE       13.7260    0.5860   21.6070 C.ar  1004  SNU1004     0.0195
      6  CAG       12.8870    0.1680   20.5620 C.ar  1004  SNU1004     0.0189
      7  CAK       13.2100    0.3120   19.1870 C.ar  1004  SNU1004     0.0642
      8  NAL       12.4330   -0.0700   18.1450 N.ar  1004  SNU1004    -0.3036
      9  CAH       11.6830   -1.1560   18.1240 C.ar  1004  SNU1004     0.0802
     10  CAB       11.0840   -1.2020   16.8790 C.ar  1004  SNU1004     0.0205
     11  CAC       11.5430   -0.1190   16.1570 C.ar  1004  SNU1004     0.0205
     12  CAI       12.4100    0.5820   16.9810 C.ar  1004  SNU1004     0.0802
@<TRIPOS>BOND
     1    11    10   ar
     2    11    12   ar
     3    10     9   ar
     4    12     8   ar
     5     9     8   ar
     6     8     7    1
     7     1     7   ar
     8     1     2   ar
     9     7     6   ar
    10     2     3   ar
    11     6     5   ar
    12     3     5   ar
    13     3     4    1
