@<TRIPOS>MOLECULE
3vq8_BCU_A_1.pdb
 12 13 0 0 0
SMALL
GASTEIGER

@<TRIPOS>ATOM
      1  O12       -6.5110    0.2830   16.8130 O.3   1006  BCU1006    -0.2203
      2  C11       -7.4240    0.9910   15.9350 C.3   1006  BCU1006     0.1861
      3  C2        -6.8470    0.5870   14.5960 C.3   1006  BCU1006     0.0811
      4  C3        -6.8510    1.7380   13.6100 C.3   1006  BCU1006     0.2082
      5  O4        -8.2150    2.0380   13.2080 O.3   1006  BCU1006    -0.4757
      6  C5        -9.1710    1.0710   13.0090 C.ar  1006  BCU1006     0.1345
      7  C10      -10.3440    1.3660   12.3210 C.ar  1006  BCU1006     0.0366
      8  C9       -11.3100    0.3870   12.1420 C.ar  1006  BCU1006     0.0031
      9  C8       -11.1130   -0.9100   12.6370 C.ar  1006  BCU1006    -0.0001
     10  C7        -9.9580   -1.2840   13.3260 C.ar  1006  BCU1006    -0.0013
     11  C6        -8.9660   -0.3060   13.5380 C.ar  1006  BCU1006     0.0120
     12  C1        -7.6630   -0.6510   14.2300 C.3   1006  BCU1006     0.0358
@<TRIPOS>BOND
     1     8     7   ar
     2     8     9   ar
     3     7     6   ar
     4     9    10   ar
     5     6     5    1
     6     6    11   ar
     7     5     4    1
     8    10    11   ar
     9    11    12    1
    10     4     3    1
    11    12     3    1
    12     3     2    1
    13     2     1    1
