@<TRIPOS>MOLECULE
3vq9_FBB_A_1.pdb
 11 12 0 0 0
SMALL
GASTEIGER

@<TRIPOS>ATOM
      1  F10        9.5610   17.9450   32.5350 F     301  FBB301     -0.2045
      2  C5         9.2450   18.8380   33.4930 C.2   301  FBB301      0.1369
      3  C6        10.2150   19.2070   34.4210 C.2   301  FBB301      0.0110
      4  C1         9.9620   20.1170   35.4360 C.3   301  FBB301      0.0879
      5  C4         7.9580   19.3690   33.5330 C.2   301  FBB301      0.0381
      6  C3         7.6760   20.2800   34.5300 C.2   301  FBB301      0.0611
      7  S9         6.1940   21.0290   34.7580 S.3   301  FBB301     -0.0347
      8  C8         6.8680   21.8650   36.1190 C.2   301  FBB301      0.2498
      9  N11        6.1460   22.7330   36.8570 N.pl3 301  FBB301     -0.0864
     10  N7         8.1680   21.5840   36.4090 N.2   301  FBB301     -0.3810
     11  C2         8.7020   20.6820   35.5310 C.2   301  FBB301      0.1218
@<TRIPOS>BOND
     1     1     2    1
     2     2     5    1
     3     2     3    2
     4     5     6    2
     5     3     4    1
     6     6     7    1
     7     6    11    1
     8     7     8    1
     9     4    11    1
    10    11    10    2
    11     8    10    2
    12     8     9    1
