@<TRIPOS>MOLECULE
3vqa_MWP_B_1.pdb
 12 13 0 0 0
SMALL
GASTEIGER

@<TRIPOS>ATOM
      1  O11       18.1730   32.0460   17.5180 O.2   303  MWP303     -0.1642
      2  S9        18.1330   30.6130   17.7120 S.O2  303  MWP303      0.0287
      3  O10       19.4870   30.2830   17.9550 O.2   303  MWP303     -0.1642
      4  C8        17.2910   29.8730   16.4770 C.2   303  MWP303      0.1277
      5  C7        16.1160   29.2920   17.0160 C.2   303  MWP303      0.0214
      6  C2        16.0520   29.4910   18.4760 C.ar  303  MWP303      0.0189
      7  C3        17.2040   30.2320   18.9460 C.ar  303  MWP303      0.1117
      8  C4        17.3670   30.5370   20.2940 C.ar  303  MWP303      0.0368
      9  C5        16.4490   30.1250   21.2540 C.ar  303  MWP303      0.0904
     10  N12       16.7020   30.4720   22.5510 N.pl3 303  MWP303     -0.1280
     11  C6        15.3260   29.3920   20.8560 C.ar  303  MWP303      0.0181
     12  C1        15.1450   29.0780   19.4830 C.ar  303  MWP303      0.0027
@<TRIPOS>BOND
     1     4     5    2
     2     4     2    1
     3     5     6    1
     4     1     2    2
     5     2     3    2
     6     2     7    1
     7     6     7   ar
     8     6    12   ar
     9     7     8   ar
    10    12    11   ar
    11     8     9   ar
    12    11     9   ar
    13     9    10    1
