@<TRIPOS>MOLECULE
3vqb_FBG_A_1.pdb
 14 15 0 0 0
SMALL
GASTEIGER

@<TRIPOS>ATOM
      1  F14        7.8830   24.6710   12.3380 F     304  FBG304     -0.2042
      2  C5         8.2310   23.8610   11.3540 C.ar  304  FBG304      0.1403
      3  C6         7.2430   23.0490   10.7890 C.ar  304  FBG304      0.0393
      4  C1         7.6010   22.1490    9.7740 C.ar  304  FBG304      0.1157
      5  C11        6.6620   21.2250    9.0570 C.2   304  FBG304      0.3908
      6  O13        5.7170   21.8610    8.5650 O.co2 304  FBG304     -0.2404
      7  O12        6.8340   19.9580    8.9640 O.co2 304  FBG304     -0.2404
      8  C4         9.5910   23.8750   10.9670 C.ar  304  FBG304      0.0308
      9  C3         9.9820   23.0170    9.9400 C.ar  304  FBG304      0.0439
     10  C7        11.3820   22.9240    9.3850 C.3   304  FBG304      0.1756
     11  O8        11.4890   22.0660    8.2040 O.3   304  FBG304     -0.3108
     12  C9        10.3180   21.8520    7.4400 C.3   304  FBG304      0.3612
     13  O10        9.3490   21.3140    8.3170 O.3   304  FBG304     -0.4480
     14  C2         8.9790   22.1370    9.3180 C.ar  304  FBG304      0.1463
@<TRIPOS>BOND
     1    12    11    1
     2    12    13    1
     3    11    10    1
     4    13    14    1
     5     6     5   ar
     6     7     5   ar
     7     5     4    1
     8    14     4   ar
     9    14     9   ar
    10    10     9    1
    11     4     3   ar
    12     9     8   ar
    13     3     2   ar
    14     8     2   ar
    15     2     1    1
