@<TRIPOS>MOLECULE
3vqc_MPK_A_1.pdb
 14 15 0 0 0
SMALL
GASTEIGER

@<TRIPOS>ATOM
      1  C1         3.1350   41.8200   28.6990 C.3   304  MPK304      0.0751
      2  C2         4.2750   40.9520   29.1520 C.ar  304  MPK304      0.1532
      3  C3         4.3000   39.5710   29.3240 C.ar  304  MPK304      0.0643
      4  C4         3.1430   38.6460   29.0780 C.3   304  MPK304      0.2130
      5  O5         3.1000   37.4230   29.7790 O.3   304  MPK304     -0.2150
      6  C6         5.6430   39.1700   29.7700 C.ar  304  MPK304      0.1210
      7  N7         6.3590   40.3180   29.8650 N.ar  304  MPK304     -0.0776
      8  O8         5.5010   41.3770   29.4790 O.2   304  MPK304     -0.3580
      9  C9         6.1510   37.7580   30.1010 C.ar  304  MPK304      0.0207
     10  C10        5.8300   36.6200   29.2560 C.ar  304  MPK304      0.0016
     11  C11        6.2790   35.3660   29.5610 C.ar  304  MPK304      0.0000
     12  C12        7.0510   35.1740   30.6740 C.ar  304  MPK304      0.0000
     13  C13        7.3800   36.2740   31.5100 C.ar  304  MPK304      0.0000
     14  C14        6.9170   37.5420   31.2030 C.ar  304  MPK304      0.0016
@<TRIPOS>BOND
     1     1     2    1
     2     4     3    1
     3     4     5    1
     4     2     3   ar
     5     2     8   ar
     6    10    11   ar
     7    10     9   ar
     8     3     6   ar
     9     8     7   ar
    10    11    12   ar
    11     6     7   ar
    12     6     9    1
    13     9    14   ar
    14    12    13   ar
    15    14    13   ar
