@<TRIPOS>MOLECULE
3vqd_MOK_A_1.pdb
 15 16 0 0 0
SMALL
GASTEIGER

@<TRIPOS>ATOM
      1  C1         2.9340   20.4780    9.4640 C.3   304  MOK304      0.0754
      2  C2         4.2000   21.1580    9.8950 C.ar  304  MOK304      0.1558
      3  C3         5.5030   20.6990    9.5300 C.ar  304  MOK304      0.0677
      4  C4         5.7510   19.4980    8.6980 C.2   304  MOK304      0.0771
      5  O5         6.5310   18.5920    9.1260 O.co2 304  MOK304     -0.5445
      6  O6         5.1300   19.4040    7.6100 O.co2 304  MOK304     -0.5445
      7  C7         6.4200   21.6170   10.1970 C.ar  304  MOK304      0.1236
      8  N8         5.6510   22.5260   10.8230 N.ar  304  MOK304     -0.0773
      9  O9         4.3690   22.2270   10.6410 O.2   304  MOK304     -0.3577
     10  C10        7.8920   21.6600   10.1010 C.ar  304  MOK304      0.0210
     11  C11        8.4920   21.1000    8.9670 C.ar  304  MOK304      0.0016
     12  C12        9.8750   21.1580    8.7830 C.ar  304  MOK304      0.0000
     13  C13       10.5960   21.8370    9.7590 C.ar  304  MOK304      0.0000
     14  C14        9.9950   22.4200   10.8860 C.ar  304  MOK304      0.0000
     15  C15        8.6240   22.3730   11.0600 C.ar  304  MOK304      0.0016
@<TRIPOS>UNITY_ATOM_ATTR
5 1
charge -1
@<TRIPOS>BOND
     1     6     4   ar
     2     4     5   ar
     3     4     3    1
     4    12    11   ar
     5    12    13   ar
     6    11    10   ar
     7     1     2    1
     8     3     2   ar
     9     3     7   ar
    10    13    14   ar
    11     2     9   ar
    12    10     7    1
    13    10    15   ar
    14     7     8   ar
    15     9     8   ar
    16    14    15   ar
