@<TRIPOS>MOLECULE
3vqe_FMQ_A_1.pdb
 15 16 0 0 0
SMALL
GASTEIGER

@<TRIPOS>ATOM
      1  F12       -2.0590   19.0660    4.4740 F     1006  FMQ1006    -0.2042
      2  C9        -1.3410   18.3730    5.3720 C.ar  1006  FMQ1006     0.1402
      3  C8        -0.6880   19.0400    6.3830 C.ar  1006  FMQ1006     0.0312
      4  C7         0.0560   18.3200    7.3090 C.ar  1006  FMQ1006     0.0214
      5  C10       -1.2440   16.9890    5.2820 C.ar  1006  FMQ1006     0.0312
      6  C11       -0.4910   16.2840    6.2050 C.ar  1006  FMQ1006     0.0214
      7  C6         0.1790   16.9260    7.2440 C.ar  1006  FMQ1006     0.0826
      8  N3         0.9110   16.2670    8.1350 N.ar  1006  FMQ1006    -0.2339
      9  C2         0.5620   16.1030    9.4070 C.ar  1006  FMQ1006     0.0609
     10  C13       -0.7050   16.5410   10.1050 C.3   1006  FMQ1006     0.0519
     11  N4         2.1500   15.7540    7.7890 N.ar  1006  FMQ1006    -0.1641
     12  C5         2.6380   15.1820    8.9260 C.ar  1006  FMQ1006     0.1199
     13  C1         1.7240   15.3480    9.9640 C.ar  1006  FMQ1006     0.0451
     14  C14        1.8870   14.8580   11.3810 C.3   1006  FMQ1006     0.2114
     15  O15        2.3600   15.9460   12.1930 O.3   1006  FMQ1006    -0.2151
@<TRIPOS>BOND
     1     1     2    1
     2     5     2   ar
     3     5     6   ar
     4     2     3   ar
     5     6     7   ar
     6     3     4   ar
     7     7     4   ar
     8     7     8    1
     9    11     8   ar
    10    11    12   ar
    11     8     9   ar
    12    12    13   ar
    13     9    13   ar
    14     9    10    1
    15    13    14    1
    16    14    15    1
