@<TRIPOS>MOLECULE
3vqh_IQB_A_1.pdb
 27 29 0 0 0
SMALL
GASTEIGER

@<TRIPOS>ATOM
      1  C1        -7.0620    9.9490   -3.0380 C.ar  401  IQB401      0.1236
      2  C2        -7.2650   10.0170   -1.6590 C.ar  401  IQB401      0.0200
      3  C3        -6.1870    9.9860   -0.7770 C.ar  401  IQB401      0.0014
      4  C4        -4.8830    9.8960   -1.2680 C.ar  401  IQB401      0.0016
      5  C5        -4.6660    9.8390   -2.6520 C.ar  401  IQB401      0.0205
      6  C6        -3.3680    9.7470   -3.1630 C.ar  401  IQB401      0.0989
      7  N7        -3.1480    9.6910   -4.4750 N.ar  401  IQB401     -0.2423
      8  C8        -4.1530    9.7200   -5.3400 C.ar  401  IQB401      0.0989
      9  C9        -5.4780    9.8060   -4.9020 C.ar  401  IQB401      0.0220
     10  C10       -5.7500    9.8660   -3.5310 C.ar  401  IQB401      0.0217
     11  S         -8.4890    9.9930   -4.1080 S.O2  401  IQB401      0.0769
     12  O1        -8.2180   10.8510   -5.2860 O.2   401  IQB401     -0.1516
     13  O2        -9.6110   10.6030   -3.3390 O.2   401  IQB401     -0.1516
     14  N1'       -8.9110    8.4930   -4.6080 N.3   401  IQB401     -0.0763
     15  C2'       -9.1830    7.5200   -3.5110 C.3   401  IQB401      0.1342
     16  C3'      -10.6680    7.5000   -3.0950 C.3   401  IQB401      0.1099
     17  N4'      -11.5640    7.6010   -4.2570 N.3   401  IQB401     -0.2117
     18  C5'      -11.9320    9.0140   -4.4740 C.3   401  IQB401      0.1148
     19  C6'      -12.6050    9.5440   -3.3690 C.2   401  IQB401     -0.0074
     20  C7'      -12.3610   10.8670   -2.9990 C.2   401  IQB401     -0.0031
     21  C1'      -12.9890   11.4870   -1.9120 C.ar  401  IQB401     -0.0002
     22  C2B      -13.9060   10.7960   -1.1260 C.ar  401  IQB401      0.0005
     23  C3B      -14.5130   11.4300   -0.0450 C.ar  401  IQB401      0.0067
     24  C4'      -14.2100   12.7570    0.2590 C.ar  401  IQB401      0.0346
     25 BR4'      -15.0760   13.6160    1.7250 Br    401  IQB401     -0.0490
     26  C5B      -13.2910   13.4490   -0.5310 C.ar  401  IQB401      0.0067
     27  C6B      -12.6930   12.8100   -1.6130 C.ar  401  IQB401      0.0005
@<TRIPOS>BOND
     1     8     9   ar
     2     8     7   ar
     3    12    11    2
     4     9    10   ar
     5    14    11    1
     6    14    15    1
     7     7     6   ar
     8    18    17    1
     9    18    19    1
    10    17    16    1
    11    11    13    2
    12    11     1    1
    13    10     1   ar
    14    10     5   ar
    15    15    16    1
    16    19    20    2
    17     6     5   ar
    18     1     2   ar
    19    20    21    1
    20     5     4   ar
    21    21    27   ar
    22    21    22   ar
    23     2     3   ar
    24    27    26   ar
    25     4     3   ar
    26    22    23   ar
    27    26    24   ar
    28    23    24   ar
    29    24    25    1
