@<TRIPOS>MOLECULE
3vqm_III_O_1.pdb
 42 41 0 0 0
SMALL
GASTEIGER

@<TRIPOS>ATOM
      1  N        -12.3410  -69.5350   11.6080 N.3   119  VAL119     -0.1231
      2  CA       -12.2380  -69.6020   10.1540 C.3   119  VAL119      0.1692
      3  C        -12.7090  -70.9550    9.6270 C.2   119  VAL119      0.2592
      4  O        -12.2880  -72.0030   10.1180 O.2   119  VAL119     -0.2718
      5  CB       -10.7940  -69.3340    9.6770 C.3   119  VAL119      0.0266
      6  CG1      -10.6670  -69.5760    8.1790 C.3   119  VAL119      0.0020
      7  CG2      -10.3740  -67.9160   10.0320 C.3   119  VAL119      0.0020
      8  N        -13.5890  -70.9190    8.6310 N.am  120  ILE120     -0.1966
      9  CA       -14.0990  -72.1280    7.9940 C.3   120  ILE120      0.1727
     10  C        -12.9660  -72.9350    7.3700 C.2   120  ILE120      0.2616
     11  O        -12.1440  -72.3960    6.6340 O.2   120  ILE120     -0.2715
     12  CB       -15.1330  -71.7860    6.9020 C.3   120  ILE120      0.0290
     13  CG1      -16.3120  -71.0210    7.5060 C.3   120  ILE120      0.0022
     14  CG2      -15.6150  -73.0480    6.2030 C.3   120  ILE120      0.0023
     15  CD1      -17.2340  -70.4160    6.4740 C.3   120  ILE120      0.0001
     16  N        -12.9230  -74.2280    7.6770 N.am  121  LYS121     -0.1963
     17  CA       -11.9140  -75.1170    7.1150 C.3   121  LYS121      0.1728
     18  C        -12.1770  -75.3710    5.6340 C.2   121  LYS121      0.2616
     19  O        -13.1380  -76.0530    5.2770 O.2   121  LYS121     -0.2715
     20  CB       -11.8930  -76.4440    7.8770 C.3   121  LYS121      0.0311
     21  CG       -11.0360  -77.5290    7.2350 C.3   121  LYS121      0.0038
     22  CD        -9.5510  -77.2750    7.4340 C.3   121  LYS121      0.0206
     23  CE        -9.1440  -77.4730    8.8850 C.3   121  LYS121      0.1093
     24  NZ        -7.6690  -77.3820    9.0640 N.3   121  LYS121     -0.1314
     25  N        -11.3310  -74.8110    4.7740 N.am  122  ILE122     -0.1963
     26  CA       -11.4350  -75.0670    3.3420 C.3   122  ILE122      0.1727
     27  C        -10.7430  -76.3820    2.9930 C.2   122  ILE122      0.2617
     28  O         -9.5180  -76.4880    3.0530 O.2   122  ILE122     -0.2715
     29  CB       -10.8490  -73.9180    2.4910 C.3   122  ILE122      0.0290
     30  CG1      -11.7270  -72.6680    2.5890 C.3   122  ILE122      0.0022
     31  CG2      -10.7350  -74.3400    1.0350 C.3   122  ILE122      0.0023
     32  CD1      -11.3050  -71.6970    3.6650 C.3   122  ILE122      0.0001
     33  N        -11.5420  -77.3830    2.6390 N.am  123  GLU123     -0.1941
     34  CA       -11.0270  -78.7150    2.3490 C.3   123  GLU123      0.1984
     35  C        -10.2090  -78.7220    1.0640 C.2   123  GLU123      0.3842
     36  O        -10.5960  -78.1170    0.0630 O.co2 123  GLU123     -0.2437
     37  CB       -12.1770  -79.7210    2.2470 C.3   123  GLU123      0.0451
     38  CG       -11.7310  -81.1610    2.0460 C.3   123  GLU123      0.1164
     39  CD       -11.0000  -81.7220    3.2530 C.2   123  GLU123      0.3649
     40  OE1      -11.3030  -81.2940    4.3880 O.co2 123  GLU123     -0.2457
     41  OE2      -10.1230  -82.5910    3.0660 O.co2 123  GLU123     -0.2457
     42  OXT       -9.1420  -79.3340    0.9980 O.co2 123  GLU123     -0.2437
@<TRIPOS>BOND
     1    36    35   ar
     2    42    35   ar
     3    31    29    1
     4    35    34    1
     5    38    37    1
     6    38    39    1
     7    37    34    1
     8    34    33    1
     9    29    30    1
    10    29    26    1
    11    30    32    1
    12    33    27   am
    13    27    28    2
    14    27    26    1
    15    41    39   ar
    16    39    40   ar
    17    26    25    1
    18    25    18   am
    19    19    18    2
    20    18    17    1
    21    14    12    1
    22    15    13    1
    23    11    10    2
    24    12    13    1
    25    12     9    1
    26    17    16    1
    27    17    20    1
    28    21    22    1
    29    21    20    1
    30    10    16   am
    31    10     9    1
    32    22    23    1
    33     9     8    1
    34     6     5    1
    35     8     3   am
    36    23    24    1
    37     3     4    2
    38     3     2    1
    39     5     7    1
    40     5     2    1
    41     2     1    1
