@<TRIPOS>MOLECULE
3vqp_DBJ_A_1.pdb
 12 13 0 0 0
SMALL
GASTEIGER

@<TRIPOS>ATOM
      1  O1        19.1600    6.1230   11.8840 O.3   306  DBJ306     -0.2151
      2  C2        19.2390    7.2620   11.1700 C.3   306  DBJ306      0.2117
      3  C3        20.6050    7.7920   10.9260 C.ar  306  DBJ306      0.0476
      4  C4        20.6350    8.7180    9.8570 C.ar  306  DBJ306      0.1708
      5  O5        19.4350    9.0300    9.1970 O.3   306  DBJ306     -0.4686
      6  C5        19.4690    9.5890    7.9190 C.3   306  DBJ306      0.2526
      7  C7        20.7680   10.1620    7.5380 C.3   306  DBJ306      0.2526
      8  O8        21.7980   10.2480    8.4790 O.3   306  DBJ306     -0.4684
      9  C9        21.8410    9.3120    9.5170 C.ar  306  DBJ306      0.1721
     10  C10       23.0450    8.9500   10.2120 C.ar  306  DBJ306      0.0400
     11  C11       23.0510    8.0150   11.2720 C.ar  306  DBJ306      0.0031
     12  C12       21.7980    7.4150   11.6300 C.ar  306  DBJ306      0.0015
@<TRIPOS>BOND
     1     7     6    1
     2     7     8    1
     3     6     5    1
     4     8     9    1
     5     5     4    1
     6     9     4   ar
     7     9    10   ar
     8     4     3   ar
     9    10    11   ar
    10     3     2    1
    11     3    12   ar
    12     2     1    1
    13    11    12   ar
