@<TRIPOS>MOLECULE
3vqq_BTE_A_1.pdb
 10 11 0 0 0
SMALL
GASTEIGER

@<TRIPOS>ATOM
      1  N10       16.0610   28.7190   15.7350 N.pl3 305  BTE305     -0.1264
      2  C1        16.2920   29.3060   16.9810 C.ar  305  BTE305      0.1088
      3  C6        15.5390   29.1910   18.1820 C.ar  305  BTE305      0.0197
      4  C5        15.8520   29.7750   19.4400 C.ar  305  BTE305      0.0031
      5  C4        16.9900   30.5600   19.5760 C.ar  305  BTE305      0.0214
      6  C3        17.8230   30.7180   18.4400 C.ar  305  BTE305      0.1102
      7  N9        18.9390   31.4410   18.3050 N.ar  305  BTE305     -0.1901
      8  S8        19.6150   31.2400   16.7530 S.2   305  BTE305      0.1166
      9  N7        18.3700   30.3320   16.0680 N.ar  305  BTE305     -0.1887
     10  C2        17.5070   30.0860   17.0810 C.ar  305  BTE305      0.1255
@<TRIPOS>BOND
     1     1     2    1
     2     9     8   ar
     3     9    10   ar
     4     8     7   ar
     5     2    10   ar
     6     2     3   ar
     7    10     6   ar
     8     3     4   ar
     9     7     6   ar
    10     6     5   ar
    11     4     5   ar
