@<TRIPOS>MOLECULE
3vqs_JT1_A_1.pdb
 47 52 0 0 0
SMALL
GASTEIGER

@<TRIPOS>ATOM
      1  N1        50.1140   33.1550   47.6920 N.pl3 1000  JT11000    -0.2743
      2  N2        48.9010   33.7970   45.2790 N.3   1000  JT11000    -0.1446
      3  S3        47.6100   34.3230   44.4820 S.O2  1000  JT11000     0.0638
      4  C4        46.3200   34.4030   45.5890 C.ar  1000  JT11000     0.1222
      5  O5        47.2850   33.3730   43.4900 O.2   1000  JT11000    -0.1528
      6  O6        47.8290   35.7480   44.0780 O.2   1000  JT11000    -0.1528
      7  C7        46.1700   35.5600   46.3970 C.ar  1000  JT11000     0.0199
      8  C8        45.0210   35.6420   47.2540 C.ar  1000  JT11000     0.0052
      9  C9        44.0990   34.5890   47.2040 C.ar  1000  JT11000     0.0715
     10  C10       44.2040   33.4670   46.3670 C.ar  1000  JT11000     0.0052
     11  C11       45.3190   33.4170   45.5370 C.ar  1000  JT11000     0.0199
     12  C12       48.9280   32.3510   45.5680 C.3   1000  JT11000     0.1768
     13  C13       49.1700   32.2380   47.1130 C.3   1000  JT11000     0.1207
     14  C14       50.0460   34.5890   47.2850 C.3   1000  JT11000     0.1128
     15  C15       49.9270   34.7070   45.7580 C.3   1000  JT11000     0.1178
     16  C16       50.0860   31.6240   44.8390 C.2   1000  JT11000     0.2596
     17  O17       50.5080   30.4720   45.2220 O.2   1000  JT11000    -0.2718
     18  N18       50.7020   32.3070   43.8020 N.am  1000  JT11000    -0.1993
     19  C19       51.6350   31.5290   42.9850 C.3   1000  JT11000     0.1416
     20  C20       51.0580   30.6640   41.8820 C.ar  1000  JT11000     0.0019
     21  C21       51.1630   29.2630   42.0110 C.ar  1000  JT11000     0.0007
     22  C22       50.5900   28.4290   41.0370 C.ar  1000  JT11000     0.0393
     23  C23       50.0400   29.0300   39.9000 C.ar  1000  JT11000     0.1740
     24  C24       49.9180   30.4340   39.7930 C.ar  1000  JT11000     0.1738
     25  C25       50.4130   31.2430   40.7810 C.ar  1000  JT11000     0.0302
     26  C26       51.2920   32.6870   48.2700 C.2   1000  JT11000     0.2277
     27  S27       51.5330   30.9430   48.5830 S.3   1000  JT11000    -0.0254
     28  N28       52.2270   33.5210   48.6760 N.2   1000  JT11000    -0.3165
     29  C29       53.2450   32.7630   49.2690 C.1   1000  JT11000     0.1574
     30  C30       53.0140   31.3560   49.2590 C.2   1000  JT11000     0.1391
     31  C31       54.0430   30.5940   49.8120 C.2   1000  JT11000     0.1289
     32  N32       55.1360   31.1820   50.3350 N.2   1000  JT11000    -0.1840
     33  C33       55.3010   32.5150   50.2620 C.1   1000  JT11000     0.0747
     34  N34       54.3990   33.3790   49.7470 N.2   1000  JT11000    -0.2902
     35  O35       49.5410   28.3230   38.8630 O.3   1000  JT11000    -0.4021
     36  C36       48.2320   27.8390   38.9190 C.3   1000  JT11000     0.5753
     37  C40       42.8280   34.6650   48.0320 C.3   1000  JT11000     0.4186
     38  C44       56.5480   33.1860   50.7840 C.3   1000  JT11000     0.0983
     39  C45       57.1480   32.7440   52.1230 C.3   1000  JT11000     0.0170
     40  C46       57.8560   32.4670   50.8150 C.3   1000  JT11000     0.0170
     41  F37       47.9620   27.2670   37.7530 F     1000  JT11000    -0.1328
     42  F38       47.3950   28.8290   39.1160 F     1000  JT11000    -0.1328
     43  F39       48.0280   26.9650   39.8900 F     1000  JT11000    -0.1328
     44  F41       42.4240   33.5180   48.6110 F     1000  JT11000    -0.1659
     45  F42       41.7450   35.0640   47.2610 F     1000  JT11000    -0.1659
     46  F43       42.7310   35.5370   49.0310 F     1000  JT11000    -0.1659
     47  F47       49.3790   30.8980   38.6750 F     1000  JT11000    -0.2010
@<TRIPOS>BOND
     1    41    36    1
     2    47    24    1
     3    35    36    1
     4    35    23    1
     5    36    42    1
     6    36    43    1
     7    24    23   ar
     8    24    25   ar
     9    23    22   ar
    10    25    20   ar
    11    22    21   ar
    12    20    21   ar
    13    20    19    1
    14    19    18    1
    15     5     3    2
    16    18    16   am
    17     6     3    2
    18     3     2    1
    19     3     4    1
    20    16    17    2
    21    16    12    1
    22     2    12    1
    23     2    15    1
    24    11     4   ar
    25    11    10   ar
    26    12    13    1
    27     4     7   ar
    28    15    14    1
    29    10     9   ar
    30     7     8   ar
    31    13     1    1
    32     9     8   ar
    33     9    37    1
    34    45    37    1
    35    14     1    1
    36     1    26    1
    37    37    44    1
    38    37    46    1
    39    26    27    1
    40    26    28    2
    41    27    30    1
    42    28    29    2
    43    30    29    1
    44    30    31    2
    45    29    34    2
    46    34    33    2
    47    31    32    1
    48    33    32    2
    49    33    38    1
    50    38    40    1
    51    38    39    1
    52    40    39    1
