@<TRIPOS>MOLECULE
3vqt_GDP_A_1.pdb
 28 30 0 0 0
SMALL
GASTEIGER

@<TRIPOS>ATOM
      1  PB        -9.9550    4.3640   24.9480 P.3   601  GDP601      0.5373
      2  O1B       -9.7540    3.0680   25.6980 O.3   601  GDP601     -0.1143
      3  O2B      -11.2770    4.3230   24.2620 O.2   601  GDP601     -0.2221
      4  O3B       -9.7690    5.6300   25.7660 O.3   601  GDP601     -0.1143
      5  O3A       -8.9410    4.3700   23.6650 O.3   601  GDP601     -0.2261
      6  PA        -7.6130    5.2500   23.4270 P.3   601  GDP601      0.2231
      7  O1A       -6.6660    5.1230   24.6240 O.3   601  GDP601     -0.4370
      8  O2A       -7.7670    6.6940   23.0640 O.2   601  GDP601     -0.5169
      9  O5'       -7.0240    4.5520   22.1130 O.3   601  GDP601     -0.3111
     10  C5'       -6.9980    3.1160   22.1060 C.3   601  GDP601      0.1813
     11  C4'       -5.8900    2.6980   21.1080 C.3   601  GDP601      0.1799
     12  O4'       -6.3210    3.0470   19.7960 O.3   601  GDP601     -0.3326
     13  C3'       -4.5550    3.4290   21.2980 C.3   601  GDP601      0.2158
     14  O3'       -3.5260    2.5480   20.8340 O.3   601  GDP601     -0.2175
     15  C2'       -4.7020    4.6180   20.3890 C.3   601  GDP601      0.2310
     16  O2'       -3.5430    5.2680   19.8270 O.3   601  GDP601     -0.2158
     17  C1'       -5.4510    4.0100   19.2270 C.3   601  GDP601      0.2293
     18  N9        -6.2220    5.0260   18.4610 N.pl3 601  GDP601     -0.2354
     19  C8        -7.0870    5.9390   18.9860 C.3   601  GDP601      0.2246
     20  N7        -7.5890    6.6690   17.9830 N.2   601  GDP601     -0.2322
     21  C5        -7.0670    6.2190   16.8170 C.2   601  GDP601      0.2182
     22  C6        -7.1940    6.5410   15.3900 C.1   601  GDP601      0.2372
     23  O6        -7.9150    7.4810   15.0110 O.2   601  GDP601     -0.2069
     24  N1        -6.5050    5.7840   14.4720 N.2   601  GDP601     -0.2485
     25  C2        -5.6580    4.8090   14.8900 C.1   601  GDP601      0.2531
     26  N2        -4.9460    4.1000   13.9720 N.pl3 601  GDP601     -0.0226
     27  N3        -5.5030    4.4920   16.1600 N.2   601  GDP601     -0.3074
     28  C4        -6.1820    5.1340   17.1480 C.2   601  GDP601      0.2300
@<TRIPOS>BOND
     1    26    25    1
     2    24    25    2
     3    24    22    2
     4    25    27    2
     5    23    22    2
     6    22    21    1
     7    27    28    2
     8    21    28    1
     9    21    20    2
    10    28    18    1
    11    20    19    1
    12    18    19    1
    13    18    17    1
    14    17    12    1
    15    17    15    1
    16    12    11    1
    17    16    15    1
    18    15    13    1
    19    14    13    1
    20    11    13    1
    21    11    10    1
    22    10     9    1
    23     9     6    1
    24     8     6    2
    25     6     5    1
    26     6     7    1
    27     5     1    1
    28     3     1    2
    29     1     2    1
    30     1     4    1
