@<TRIPOS>MOLECULE
3vqu_O22_A_1.pdb
 22 23 0 0 0
SMALL
GASTEIGER

@<TRIPOS>ATOM
      1  O2        -1.2880  -38.1520   -5.7270 O.2   909  O22909     -0.2667
      2  C15       -1.6740  -38.0710   -6.8550 C.2   909  O22909      0.2842
      3  N4        -2.3640  -39.0410   -7.3740 N.am  909  O22909     -0.0837
      4  C12       -1.3440  -36.8670   -7.6530 C.ar  909  O22909      0.0567
      5  C11       -0.7560  -36.9960   -8.8760 C.ar  909  O22909      0.0060
      6  C10       -0.4460  -35.8810   -9.6070 C.ar  909  O22909      0.0167
      7  C13       -1.6000  -35.6260   -7.1510 C.ar  909  O22909      0.0060
      8  C14       -1.2870  -34.5200   -7.8830 C.ar  909  O22909      0.0167
      9  C9        -0.7020  -34.6440   -9.1050 C.ar  909  O22909      0.0728
     10  N3        -0.4130  -33.5410   -9.7850 N.pl3 909  O22909     -0.1869
     11  C8         0.4390  -33.4370  -10.8000 C.2   909  O22909      0.1894
     12  C7         0.6960  -32.1820  -11.2600 C.3   909  O22909      0.1222
     13  C6         1.5480  -31.9500  -12.2880 C.2   909  O22909      0.0905
     14  N2         1.7640  -30.7120  -12.7040 N.pl3 909  O22909     -0.1313
     15  C4         2.2040  -33.0810  -12.9090 C.2   909  O22909      0.1473
     16  C5         3.0150  -32.9010  -13.8840 C.1   909  O22909      0.1073
     17  N1         3.7450  -32.7320  -14.7500 N.1   909  O22909     -0.1906
     18  N5         0.9960  -34.5000  -11.3400 N.2   909  O22909     -0.3542
     19  C3         1.8470  -34.3950  -12.3460 C.2   909  O22909      0.2893
     20  O1         2.3540  -35.5430  -12.7960 O.2   909  O22909     -0.4512
     21  C2         1.8120  -36.6820  -12.2150 C.3   909  O22909      0.2083
     22  C1         2.5950  -37.8280  -12.7560 C.3   909  O22909      0.0513
@<TRIPOS>BOND
     1    17    16    3
     2    16    15    1
     3    15    19    1
     4    15    13    2
     5    20    19    1
     6    20    21    1
     7    22    21    1
     8    14    13    1
     9    19    18    2
    10    13    12    1
    11    18    11    2
    12    12    11    1
    13    11    10    1
    14    10     9    1
    15     6     9   ar
    16     6     5   ar
    17     9     8   ar
    18     5     4   ar
    19     8     7   ar
    20     4     7   ar
    21     4     2    1
    22     3     2   am
    23     2     1    2
