@<TRIPOS>MOLECULE
3vqv_ANP_A_1.pdb
 31 33 0 0 0
SMALL
GASTEIGER

@<TRIPOS>ATOM
      1  PG         9.4210   34.0970    7.5250 P.3   501  ANP501      0.4884
      2  O1G        9.8830   32.9380    6.5250 O.2   501  ANP501     -0.2331
      3  O2G       10.3040   34.3280    8.7300 O.3   501  ANP501     -0.1240
      4  O3G        7.9470   33.6130    8.0430 O.3   501  ANP501     -0.1240
      5  PB         8.9800   37.0240    7.4700 P.3   501  ANP501      0.4669
      6  O1B        7.5910   37.4780    7.4910 O.2   501  ANP501     -0.2351
      7  O2B        9.7360   37.0130    8.7440 O.3   501  ANP501     -0.1253
      8  N3B        9.0880   35.5760    6.5650 N.3   501  ANP501     -0.0163
      9  PA         9.3470   39.4850    6.0370 P.3   501  ANP501      0.2220
     10  O1A        8.0600   39.5090    5.3110 O.2   501  ANP501     -0.5170
     11  O2A        9.5740   40.3940    7.1720 O.3   501  ANP501     -0.4370
     12  O3A        9.7400   38.0190    6.4580 O.3   501  ANP501     -0.2360
     13  O5'       10.5020   39.8040    4.8810 O.3   501  ANP501     -0.3111
     14  C5'       10.2260   39.7180    3.4870 C.3   501  ANP501      0.1813
     15  C4'       11.1000   38.6310    2.8460 C.3   501  ANP501      0.1821
     16  O4'       12.4180   38.7200    3.4020 O.3   501  ANP501     -0.3135
     17  C3'       10.6680   37.2710    3.2740 C.3   501  ANP501      0.2184
     18  O3'        9.5600   36.7970    2.4590 O.3   501  ANP501     -0.2174
     19  C2'       11.9260   36.4700    2.9510 C.3   501  ANP501      0.2570
     20  O2'       12.0220   36.2830    1.5320 O.3   501  ANP501     -0.2130
     21  C1'       13.0130   37.3580    3.3550 C.3   501  ANP501      0.3186
     22  N9        13.5630   37.0000    4.7130 N.pl3 501  ANP501     -0.1439
     23  C8        13.0960   37.3920    5.9280 C.3   501  ANP501      0.3377
     24  N7        13.9010   36.8670    6.8670 N.2   501  ANP501     -0.2095
     25  C5        14.8660   36.1370    6.2490 C.2   501  ANP501      0.2526
     26  C6        15.8900   35.4230    6.7340 C.2   501  ANP501      0.4393
     27  N6        16.0550   35.3940    8.0800 N.pl3 501  ANP501      0.2180
     28  N1        16.7130   34.7650    5.9120 N.2   501  ANP501      0.0021
     29  C2        16.5470   34.8190    4.5190 C.3   501  ANP501      0.5254
     30  N3        15.4630   35.5820    4.0400 N.2   501  ANP501     -0.0055
     31  C4        14.6510   36.2160    4.9150 C.2   501  ANP501      0.3518
@<TRIPOS>BOND
     1    20    19    1
     2    18    17    1
     3    15    17    1
     4    15    16    1
     5    15    14    1
     6    19    17    1
     7    19    21    1
     8    21    16    1
     9    21    22    1
    10    14    13    1
    11    30    29    1
    12    30    31    2
    13    29    28    1
    14    22    31    1
    15    22    23    1
    16    13     9    1
    17    31    25    1
    18    10     9    2
    19    28    26    2
    20    23    24    1
    21     9    12    1
    22     9    11    1
    23    25    26    1
    24    25    24    2
    25    12     5    1
    26     2     1    2
    27     8     5    1
    28     8     1    1
    29    26    27    1
    30     5     6    2
    31     5     7    1
    32     1     4    1
    33     1     3    1
