@<TRIPOS>MOLECULE
3vqw_ANP_A_1.pdb
 31 33 0 0 0
SMALL
GASTEIGER

@<TRIPOS>ATOM
      1  PG        24.9730   25.4240   54.0820 P.3   501  ANP501      0.4884
      2  O1G       24.5240   26.6750   53.4330 O.3   501  ANP501     -0.1240
      3  O2G       23.8480   24.8040   55.0530 O.3   501  ANP501     -0.1240
      4  O3G       25.2940   24.2650   53.0110 O.2   501  ANP501     -0.2331
      5  PB        27.5610   26.2550   54.1840 P.3   501  ANP501      0.4669
      6  O1B       27.2760   27.2420   53.1200 O.2   501  ANP501     -0.2351
      7  O2B       28.7750   25.4090   54.2400 O.3   501  ANP501     -0.1253
      8  N3B       26.3060   25.6120   54.9950 N.3   501  ANP501     -0.0163
      9  PA        29.4070   27.8110   55.7230 P.3   501  ANP501      0.2220
     10  O1A       30.2730   26.6260   55.9160 O.3   501  ANP501     -0.4370
     11  O2A       29.8240   28.8360   54.7420 O.2   501  ANP501     -0.5170
     12  O3A       27.9160   27.3050   55.3580 O.3   501  ANP501     -0.2360
     13  O5'       29.2080   28.5220   57.1540 O.3   501  ANP501     -0.3111
     14  C5'       28.4120   27.8570   58.1360 C.3   501  ANP501      0.1813
     15  C4'       27.9240   28.8500   59.1920 C.3   501  ANP501      0.1821
     16  O4'       27.3990   30.0120   58.5260 O.3   501  ANP501     -0.3135
     17  C3'       26.7380   28.2350   59.9370 C.3   501  ANP501      0.2184
     18  O3'       26.4510   28.9980   61.1110 O.3   501  ANP501     -0.2174
     19  C2'       25.6390   28.4860   58.9080 C.3   501  ANP501      0.2570
     20  O2'       24.3710   28.4330   59.5650 O.3   501  ANP501     -0.2130
     21  C1'       25.9630   29.9420   58.5710 C.3   501  ANP501      0.3186
     22  N9        25.3510   30.3280   57.2790 N.pl3 501  ANP501     -0.1439
     23  C8        25.9070   30.1920   56.0760 C.3   501  ANP501      0.3377
     24  N7        25.0620   30.6230   55.1420 N.2   501  ANP501     -0.2095
     25  C5        23.9580   31.0400   55.7560 C.2   501  ANP501      0.2526
     26  C6        22.7500   31.5770   55.3290 C.2   501  ANP501      0.4393
     27  N6        22.5300   31.7960   54.0360 N.pl3 501  ANP501      0.2180
     28  N1        21.8180   31.8880   56.2420 N.2   501  ANP501      0.0021
     29  C2        22.0230   31.6980   57.5340 C.3   501  ANP501      0.5254
     30  N3        23.1610   31.1900   57.9750 N.2   501  ANP501     -0.0055
     31  C4        24.1380   30.8540   57.1210 C.2   501  ANP501      0.3518
@<TRIPOS>BOND
     1     4     1    2
     2     6     5    2
     3     2     1    1
     4    27    26    1
     5     1     8    1
     6     1     3    1
     7     5     7    1
     8     5     8    1
     9     5    12    1
    10    11     9    2
    11    24    25    2
    12    24    23    1
    13    26    25    1
    14    26    28    2
    15    12     9    1
    16     9    10    1
    17     9    13    1
    18    25    31    1
    19    23    22    1
    20    28    29    1
    21    31    22    1
    22    31    30    2
    23    13    14    1
    24    22    21    1
    25    29    30    1
    26    14    15    1
    27    16    21    1
    28    16    15    1
    29    21    19    1
    30    19    20    1
    31    19    17    1
    32    15    17    1
    33    17    18    1
