@<TRIPOS>MOLECULE
3vqx_AMP_A_1.pdb
 23 25 0 0 0
SMALL
GASTEIGER

@<TRIPOS>ATOM
      1  P        -32.4530   41.3860   84.9070 P.3   501  AMP501      0.5327
      2  O1P      -32.9790   42.7880   84.3160 O.2   501  AMP501     -0.2224
      3  O2P      -30.9860   41.3490   85.0970 O.3   501  AMP501     -0.1145
      4  O3P      -33.2740   41.1570   86.2730 O.3   501  AMP501     -0.1145
      5  O5'      -32.9690   40.2580   83.8790 O.3   501  AMP501     -0.2675
      6  C5'      -33.3750   40.6210   82.5570 C.3   501  AMP501      0.1860
      7  C4'      -33.8400   39.3950   81.7670 C.3   501  AMP501      0.1823
      8  O4'      -32.8570   38.3430   81.7660 O.3   501  AMP501     -0.3135
      9  C3'      -35.0970   38.7480   82.3460 C.3   501  AMP501      0.2184
     10  O3'      -36.2480   39.4900   81.9350 O.3   501  AMP501     -0.2174
     11  C2'      -35.0220   37.4500   81.5480 C.3   501  AMP501      0.2570
     12  O2'      -35.1860   37.7430   80.1590 O.3   501  AMP501     -0.2130
     13  C1'      -33.5600   37.0870   81.8130 C.3   501  AMP501      0.3186
     14  N9       -33.4270   36.5190   83.1740 N.pl3 501  AMP501     -0.1439
     15  C8       -33.1960   37.1980   84.2950 C.3   501  AMP501      0.3377
     16  N7       -33.1310   36.3570   85.3240 N.2   501  AMP501     -0.2095
     17  C5       -33.3210   35.1270   84.8570 C.2   501  AMP501      0.2526
     18  C6       -33.3470   33.8640   85.4370 C.2   501  AMP501      0.4393
     19  N6       -33.1800   33.7160   86.7480 N.pl3 501  AMP501      0.2180
     20  N1       -33.5470   32.7970   84.6530 N.2   501  AMP501      0.0021
     21  C2       -33.7220   32.9310   83.3500 C.3   501  AMP501      0.5254
     22  N3       -33.7070   34.1160   82.7660 N.2   501  AMP501     -0.0055
     23  C4       -33.5090   35.2280   83.4870 C.2   501  AMP501      0.3518
@<TRIPOS>BOND
     1    12    11    1
     2    11    13    1
     3    11     9    1
     4     8     7    1
     5     8    13    1
     6     7     9    1
     7     7     6    1
     8    13    14    1
     9    10     9    1
    10     6     5    1
    11    22    21    1
    12    22    23    2
    13    14    23    1
    14    14    15    1
    15    21    20    1
    16    23    17    1
    17     5     1    1
    18    15    16    1
    19     2     1    2
    20    20    18    2
    21    17    16    2
    22    17    18    1
    23     1     3    1
    24     1     4    1
    25    18    19    1
