@<TRIPOS>MOLECULE
3vqx_BLK_C_1.pdb
 39 41 0 0 0
SMALL
GASTEIGER

@<TRIPOS>ATOM
      1  CT1       31.8430   -8.5290   49.1480 C.3   601  BLK601      0.0437
      2  CT        31.7660   -7.0800   49.6320 C.3   601  BLK601      0.1379
      3  CT2       32.8760   -6.2500   48.9860 C.3   601  BLK601      0.0437
      4  CT3       31.8940   -7.0430   51.1570 C.3   601  BLK601      0.0437
      5  O2        30.5040   -6.5460   49.2200 O.3   601  BLK601     -0.4408
      6  CZ        30.3190   -5.2590   49.6220 C.2   601  BLK601      0.4209
      7  O1        31.1650   -4.7260   50.3420 O.2   601  BLK601     -0.2246
      8  NZ        29.2040   -4.6470   49.2280 N.am  601  BLK601     -0.1687
      9  CE        28.2190   -5.3480   48.3890 C.3   601  BLK601      0.1187
     10  CD        27.1420   -4.3820   47.8890 C.3   601  BLK601      0.0236
     11  CG        26.1180   -5.1120   47.0150 C.3   601  BLK601      0.0039
     12  CB        24.8820   -4.2390   46.7790 C.3   601  BLK601      0.0305
     13  CA        23.8660   -4.9010   45.8430 C.3   601  BLK601      0.1903
     14  N         24.0380   -6.3600   45.8990 N.3   601  BLK601     -0.1210
     15  C         24.1110   -4.4460   44.4040 C.2   601  BLK601      0.3385
     16  O         23.9410   -5.2170   43.4570 O.2   601  BLK601     -0.2482
     17  O3P       24.4450   -3.1360   44.2600 O.3   601  BLK601     -0.4091
     18  P         24.7380   -2.8830   42.6970 P.3   601  BLK601      0.2723
     19  O1P       23.4200   -3.4350   41.9470 O.2   601  BLK601     -0.5082
     20  O2P       25.9930   -3.5450   42.2670 O.3   601  BLK601     -0.4273
     21  O5'       24.7180   -1.2860   42.4640 O.3   601  BLK601     -0.3024
     22  C5'       25.1080   -0.3910   43.5120 C.3   601  BLK601      0.1823
     23  C4'       24.9230    1.0550   43.0430 C.3   601  BLK601      0.1822
     24  O4'       25.7550    1.3430   41.9100 O.3   601  BLK601     -0.3135
     25  C3'       23.5140    1.2860   42.5010 C.3   601  BLK601      0.2184
     26  O3'       22.6130    1.4380   43.6010 O.3   601  BLK601     -0.2174
     27  C2'       23.7760    2.6500   41.8650 C.3   601  BLK601      0.2570
     28  O2'       23.9370    3.6350   42.8900 O.3   601  BLK601     -0.2130
     29  C1'       25.1180    2.4000   41.1710 C.3   601  BLK601      0.3186
     30  N9        24.9220    1.8390   39.8200 N.pl3 601  BLK601     -0.1439
     31  C8        24.7800    0.5450   39.5330 C.3   601  BLK601      0.3377
     32  N7        24.6890    0.4000   38.2120 N.2   601  BLK601     -0.2095
     33  C5        24.7840    1.6030   37.6530 C.2   601  BLK601      0.2526
     34  C4        24.9220    2.5230   38.6810 C.2   601  BLK601      0.3518
     35  N3        24.9920    3.8270   38.3830 N.2   601  BLK601     -0.0055
     36  C2        24.9370    4.2380   37.1300 C.3   601  BLK601      0.5254
     37  N1        24.8060    3.3860   36.1240 N.2   601  BLK601      0.0021
     38  C6        24.7330    2.0690   36.3470 C.2   601  BLK601      0.4393
     39  N6        24.7100    1.2090   35.3300 N.pl3 601  BLK601      0.2180
@<TRIPOS>BOND
     1    39    38    1
     2    37    38    2
     3    37    36    1
     4    38    33    1
     5    36    35    1
     6    33    32    2
     7    33    34    1
     8    32    31    1
     9    35    34    2
    10    34    30    1
    11    31    30    1
    12    30    29    1
    13    29    27    1
    14    29    24    1
    15    27    25    1
    16    27    28    1
    17    24    23    1
    18    19    18    2
    19    20    18    1
    20    21    18    1
    21    21    22    1
    22    25    23    1
    23    25    26    1
    24    18    17    1
    25    23    22    1
    26    16    15    2
    27    17    15    1
    28    15    13    1
    29    13    14    1
    30    13    12    1
    31    12    11    1
    32    11    10    1
    33    10     9    1
    34     9     8    1
    35     3     2    1
    36     1     2    1
    37     5     6    1
    38     5     2    1
    39     8     6   am
    40     6     7    2
    41     2     4    1
