@<TRIPOS>MOLECULE
3vqy_ANP_A_1.pdb
 31 33 0 0 0
SMALL
GASTEIGER

@<TRIPOS>ATOM
      1  PG        24.6300   24.6310   -8.0090 P.3   501  ANP501      0.4884
      2  O1G       24.3840   25.5570   -9.1370 O.2   501  ANP501     -0.2331
      3  O2G       23.3350   24.4760   -7.0640 O.3   501  ANP501     -0.1240
      4  O3G       24.9850   23.1370   -8.4940 O.3   501  ANP501     -0.1240
      5  PB        27.1610   25.5870   -7.8470 P.3   501  ANP501      0.4669
      6  O1B       26.9770   26.5290   -8.9710 O.2   501  ANP501     -0.2351
      7  O2B       28.3280   24.6890   -7.6890 O.3   501  ANP501     -0.1253
      8  N3B       25.8440   25.0950   -7.0320 N.3   501  ANP501     -0.0163
      9  PA        29.0500   27.1760   -6.4390 P.3   501  ANP501      0.2220
     10  O1A       29.6190   27.7180   -7.6920 O.2   501  ANP501     -0.5170
     11  O2A       29.7740   26.0770   -5.7620 O.3   501  ANP501     -0.4370
     12  O3A       27.5390   26.6820   -6.7210 O.3   501  ANP501     -0.2360
     13  O5'       28.8590   28.3880   -5.3960 O.3   501  ANP501     -0.3111
     14  C5'       28.8870   28.1700   -3.9820 C.3   501  ANP501      0.1813
     15  C4'       27.4920   28.3430   -3.3770 C.3   501  ANP501      0.1821
     16  O4'       26.8680   29.5530   -3.8360 O.3   501  ANP501     -0.3135
     17  C3'       26.5300   27.2510   -3.8400 C.3   501  ANP501      0.2184
     18  O3'       26.7760   26.0730   -3.0680 O.3   501  ANP501     -0.2174
     19  C2'       25.2190   27.8960   -3.3920 C.3   501  ANP501      0.2570
     20  O2'       25.0600   27.8080   -1.9740 O.3   501  ANP501     -0.2130
     21  C1'       25.4430   29.3540   -3.8000 C.3   501  ANP501      0.3186
     22  N9        24.9150   29.5900   -5.1620 N.pl3 501  ANP501     -0.1439
     23  C8        25.5260   29.3140   -6.3120 C.3   501  ANP501      0.3377
     24  N7        24.7450   29.6700   -7.3290 N.2   501  ANP501     -0.2095
     25  C5        23.6230   30.1770   -6.8240 C.2   501  ANP501      0.2526
     26  C6        22.4480   30.6850   -7.3650 C.2   501  ANP501      0.4393
     27  N6        22.2890   30.7650   -8.6840 N.pl3 501  ANP501      0.2180
     28  N1        21.4740   31.1000   -6.5430 N.2   501  ANP501      0.0021
     29  C2        21.6110   31.0390   -5.2290 C.3   501  ANP501      0.5254
     30  N3        22.7160   30.5620   -4.6790 N.2   501  ANP501     -0.0055
     31  C4        23.7300   30.1260   -5.4400 C.2   501  ANP501      0.3518
@<TRIPOS>BOND
     1     2     1    2
     2     6     5    2
     3    27    26    1
     4     4     1    1
     5     1     3    1
     6     1     8    1
     7     5     7    1
     8     5     8    1
     9     5    12    1
    10    10     9    2
    11    26    25    1
    12    26    28    2
    13    24    25    2
    14    24    23    1
    15    25    31    1
    16    12     9    1
    17    28    29    1
    18     9    11    1
    19     9    13    1
    20    23    22    1
    21    31    22    1
    22    31    30    2
    23    13    14    1
    24    29    30    1
    25    22    21    1
    26    14    15    1
    27    17    19    1
    28    17    15    1
    29    17    18    1
    30    16    21    1
    31    16    15    1
    32    21    19    1
    33    19    20    1
