@<TRIPOS>MOLECULE
3vqy_LBY_A_1.pdb
 17 16 0 0 0
SMALL
GASTEIGER

@<TRIPOS>ATOM
      1  C1        38.4170   29.9860   -6.6910 C.3   502  LBY502      0.0437
      2  CT        38.6310   28.8450   -5.6960 C.3   502  LBY502      0.1379
      3  C2        37.8320   27.6220   -6.1520 C.3   502  LBY502      0.0437
      4  C3        40.1190   28.4920   -5.6230 C.3   502  LBY502      0.0437
      5  O2        38.1550   29.2410   -4.4030 O.3   502  LBY502     -0.4408
      6  CZ        38.7510   30.3580   -3.8990 C.2   502  LBY502      0.4209
      7  O1        39.7320   30.8240   -4.4760 O.2   502  LBY502     -0.2246
      8  NZ        38.2650   30.9190   -2.7940 N.am  502  LBY502     -0.1687
      9  CE        37.1040   30.4360   -2.0290 C.3   502  LBY502      0.1187
     10  CD        36.5750   29.0990   -2.5520 C.3   502  LBY502      0.0236
     11  CG        35.1770   28.8000   -2.0050 C.3   502  LBY502      0.0039
     12  CB        34.5690   27.5280   -2.6000 C.3   502  LBY502      0.0307
     13  CA        34.1480   27.6660   -4.0650 C.3   502  LBY502      0.1943
     14  C         33.0340   28.7040   -4.2150 C.2   502  LBY502      0.3819
     15  OXT       32.3330   28.9340   -3.2050 O.co2 502  LBY502     -0.2441
     16  O         32.9060   29.2430   -5.3350 O.co2 502  LBY502     -0.2441
     17  N         35.3040   28.0670   -4.8780 N.3   502  LBY502     -0.1208
@<TRIPOS>BOND
     1     1     2    1
     2     3     2    1
     3     2     4    1
     4     2     5    1
     5    16    14   ar
     6    17    13    1
     7     7     6    2
     8     5     6    1
     9    14    13    1
    10    14    15   ar
    11    13    12    1
    12     6     8   am
    13     8     9    1
    14    12    11    1
    15    10     9    1
    16    10    11    1
