@<TRIPOS>MOLECULE
3vr1_G4P_A_1.pdb
 36 38 0 0 0
SMALL
GASTEIGER

@<TRIPOS>ATOM
      1  PB        19.2940    4.3350   18.5240 P.3   601  G4P601      0.5373
      2  O1B       20.1110    3.0900   18.3740 O.2   601  G4P601     -0.2221
      3  O2B       18.2260    4.2610   19.5650 O.3   601  G4P601     -0.1143
      4  O3B       20.0570    5.6200   18.5220 O.3   601  G4P601     -0.1143
      5  O3A       18.4380    4.3920   17.1770 O.3   601  G4P601     -0.2261
      6  PA        18.8890    5.1990   15.8560 P.3   601  G4P601      0.2231
      7  O1A       18.5500    6.6720   15.9410 O.3   601  G4P601     -0.4370
      8  O2A       20.2800    4.7880   15.4990 O.2   601  G4P601     -0.5169
      9  O5'       17.8690    4.5680   14.8290 O.3   601  G4P601     -0.3111
     10  C5'       17.9370    3.1760   14.6420 C.3   601  G4P601      0.1812
     11  C4'       17.3260    2.8150   13.3020 C.3   601  G4P601      0.1771
     12  O4'       15.9670    3.2040   13.2990 O.3   601  G4P601     -0.3327
     13  C3'       17.9830    3.5060   12.1450 C.3   601  G4P601      0.1857
     14  O3'       17.8860    2.5520   11.0870 O.3   601  G4P601     -0.3109
     15  C2'       17.0520    4.6720   11.8950 C.3   601  G4P601      0.2282
     16  O2'       17.1170    5.2200   10.5720 O.3   601  G4P601     -0.2159
     17  C1'       15.7030    4.0840   12.2340 C.3   601  G4P601      0.2292
     18  N9        14.7390    5.0910   12.7200 N.pl3 601  G4P601     -0.2354
     19  C8        14.9160    6.0220   13.6700 C.3   601  G4P601      0.2246
     20  N7        13.7740    6.7260   13.8050 N.2   601  G4P601     -0.2322
     21  C5        12.8720    6.2210   12.9470 C.2   601  G4P601      0.2182
     22  C6        11.5380    6.5220   12.6390 C.1   601  G4P601      0.2372
     23  O6        10.9310    7.4640   13.2150 O.2   601  G4P601     -0.2069
     24  N1        10.9060    5.7890   11.6770 N.2   601  G4P601     -0.2485
     25  C2        11.5630    4.7910   11.0250 C.1   601  G4P601      0.2531
     26  N2        10.9480    4.0590   10.0720 N.pl3 601  G4P601     -0.0226
     27  N3        12.8420    4.4900   11.3290 N.2   601  G4P601     -0.3074
     28  C4        13.5030    5.1910   12.2700 C.2   601  G4P601      0.2300
     29  PC        19.1420    1.7990   10.3770 P.3   601  G4P601      0.2231
     30  O1C       18.6240    1.2590    9.0500 O.2   601  G4P601     -0.5169
     31  O2C       19.7880    0.9050   11.3940 O.3   601  G4P601     -0.4370
     32  O3C       20.2470    2.9520   10.1380 O.3   601  G4P601     -0.2261
     33  PD        20.0400    4.0660    8.9830 P.3   601  G4P601      0.5373
     34  O1D       21.0510    3.5880    7.9610 O.2   601  G4P601     -0.2221
     35  O2D       20.4040    5.3920    9.6530 O.3   601  G4P601     -0.1143
     36  O3D       18.5940    3.9360    8.4980 O.3   601  G4P601     -0.1143
@<TRIPOS>BOND
     1    34    33    2
     2    36    33    1
     3    33    35    1
     4    33    32    1
     5    30    29    2
     6    26    25    1
     7    32    29    1
     8    29    14    1
     9    29    31    1
    10    16    15    1
    11    25    27    2
    12    25    24    2
    13    14    13    1
    14    27    28    2
    15    24    22    2
    16    15    13    1
    17    15    17    1
    18    13    11    1
    19    17    18    1
    20    17    12    1
    21    28    18    1
    22    28    21    1
    23    22    21    1
    24    22    23    2
    25    18    19    1
    26    21    20    2
    27    12    11    1
    28    11    10    1
    29    19    20    1
    30    10     9    1
    31     9     6    1
    32     8     6    2
    33     6     7    1
    34     6     5    1
    35     5     1    1
    36     2     1    2
    37     4     1    1
    38     1     3    1
