@<TRIPOS>MOLECULE
3vr3_ANP_B_1.pdb
 31 33 0 0 0
SMALL
GASTEIGER

@<TRIPOS>ATOM
      1  PG       -47.9830   12.6260  -49.3620 P.3   601  ANP601      0.4884
      2  O1G      -47.5780   11.2750  -48.8120 O.3   601  ANP601     -0.1240
      3  O2G      -49.4830   12.8070  -49.2640 O.2   601  ANP601     -0.2331
      4  O3G      -47.1800   13.8190  -48.8740 O.3   601  ANP601     -0.1240
      5  PB       -47.8710   11.1000  -51.9880 P.3   601  ANP601      0.4669
      6  O1B      -49.3600   10.8390  -51.9600 O.2   601  ANP601     -0.2351
      7  O2B      -46.9560   10.0310  -51.4380 O.3   601  ANP601     -0.1253
      8  N3B      -47.5830   12.5630  -51.0720 N.3   601  ANP601     -0.0163
      9  PA       -48.0010   12.4930  -54.4820 P.3   601  ANP601      0.2220
     10  O1A      -48.0370   13.8140  -53.7500 O.3   601  ANP601     -0.4370
     11  O2A      -49.3130   11.9410  -55.0460 O.2   601  ANP601     -0.5170
     12  O3A      -47.4120   11.3280  -53.5260 O.3   601  ANP601     -0.2360
     13  O5'      -46.9470   12.5730  -55.7020 O.3   601  ANP601     -0.3111
     14  C5'      -45.6690   13.1880  -55.4850 C.3   601  ANP601      0.1813
     15  C4'      -45.1090   13.9080  -56.7140 C.3   601  ANP601      0.1821
     16  O4'      -44.3810   13.0140  -57.5710 O.3   601  ANP601     -0.3135
     17  C3'      -46.1970   14.5350  -57.5610 C.3   601  ANP601      0.2184
     18  O3'      -46.3080   15.9150  -57.1960 O.3   601  ANP601     -0.2174
     19  C2'      -45.7830   14.2610  -59.0060 C.3   601  ANP601      0.2570
     20  O2'      -45.0650   15.3540  -59.5960 O.3   601  ANP601     -0.2130
     21  C1'      -44.8300   13.0860  -58.9260 C.3   601  ANP601      0.3186
     22  N9       -45.4930   11.8050  -59.2870 N.pl3 601  ANP601     -0.1439
     23  C8       -46.1120   10.9550  -58.4390 C.3   601  ANP601      0.3377
     24  N7       -46.6010    9.8660  -59.0890 N.2   601  ANP601     -0.2095
     25  C5       -46.2940   10.0130  -60.3900 C.2   601  ANP601      0.2526
     26  C6       -46.5100    9.2370  -61.6380 C.2   601  ANP601      0.4393
     27  N6       -47.1710    8.0530  -61.6300 N.pl3 601  ANP601      0.2180
     28  N1       -46.0190    9.7460  -62.7940 N.2   601  ANP601      0.0021
     29  C2       -45.3550   10.9220  -62.8370 C.3   601  ANP601      0.5254
     30  N3       -45.1230   11.6820  -61.7470 N.2   601  ANP601     -0.0055
     31  C4       -45.5610   11.2890  -60.5180 C.2   601  ANP601      0.3518
@<TRIPOS>BOND
     1    29    28    1
     2    29    30    1
     3    28    26    2
     4    30    31    2
     5    26    27    1
     6    26    25    1
     7    31    25    1
     8    31    22    1
     9    25    24    2
    10    20    19    1
    11    22    21    1
    12    22    23    1
    13    24    23    1
    14    19    21    1
    15    19    17    1
    16    21    16    1
    17    16    15    1
    18    17    18    1
    19    17    15    1
    20    15    14    1
    21    13    14    1
    22    13     9    1
    23    11     9    2
    24     9    10    1
    25     9    12    1
    26    12     5    1
    27     5     6    2
    28     5     7    1
    29     5     8    1
    30     8     1    1
    31     1     3    2
    32     1     4    1
    33     1     2    1
