@<TRIPOS>MOLECULE
3vr6_ANP_B_1.pdb
 31 33 0 0 0
SMALL
GASTEIGER

@<TRIPOS>ATOM
      1  PG       -50.0300   13.5330  -71.4050 P.3   601  ANP601      0.4884
      2  O1G      -49.7920   12.5460  -72.5170 O.2   601  ANP601     -0.2331
      3  O2G      -51.2850   13.1690  -70.5990 O.3   601  ANP601     -0.1240
      4  O3G      -48.7870   13.8870  -70.5880 O.3   601  ANP601     -0.1240
      5  PB       -51.7640   15.1560  -73.1520 P.3   601  ANP601      0.4669
      6  O1B      -52.9650   14.5280  -72.5040 O.3   601  ANP601     -0.1253
      7  O2B      -51.5080   14.6120  -74.5400 O.2   601  ANP601     -0.2351
      8  N3B      -50.3680   15.0790  -72.1280 N.3   601  ANP601     -0.0163
      9  PA       -52.6300   17.7520  -72.3410 P.3   601  ANP601      0.2220
     10  O1A      -51.7860   17.7260  -71.0790 O.3   601  ANP601     -0.4370
     11  O2A      -54.0960   17.4780  -72.1850 O.2   601  ANP601     -0.5170
     12  O3A      -52.0920   16.7050  -73.4260 O.3   601  ANP601     -0.2360
     13  O5'      -52.4890   19.1630  -73.1450 O.3   601  ANP601     -0.3111
     14  C5'      -51.1570   19.6550  -73.3240 C.3   601  ANP601      0.1813
     15  C4'      -51.0040   21.1530  -73.1000 C.3   601  ANP601      0.1821
     16  O4'      -50.9930   21.8600  -74.3610 O.3   601  ANP601     -0.3135
     17  C3'      -52.0720   21.7970  -72.2290 C.3   601  ANP601      0.2184
     18  O3'      -51.4620   22.0760  -70.9750 O.3   601  ANP601     -0.2174
     19  C2'      -52.3080   23.1110  -72.9310 C.3   601  ANP601      0.2570
     20  O2'      -51.2760   24.0190  -72.5060 O.3   601  ANP601     -0.2130
     21  C1'      -51.9810   22.8900  -74.3910 C.3   601  ANP601      0.3186
     22  N9       -53.1510   22.4260  -75.1810 N.pl3 601  ANP601     -0.1439
     23  C8       -53.4890   21.1470  -75.4630 C.3   601  ANP601      0.3377
     24  N7       -54.6220   21.0690  -76.2130 N.2   601  ANP601     -0.2095
     25  C5       -55.0220   22.3360  -76.4150 C.2   601  ANP601      0.2526
     26  C6       -56.1490   22.9720  -77.1390 C.2   601  ANP601      0.4393
     27  N6       -57.0430   22.1980  -77.7830 N.pl3 601  ANP601      0.2180
     28  N1       -56.2380   24.3130  -77.1270 N.2   601  ANP601      0.0021
     29  C2       -55.3050   25.0610  -76.4790 C.3   601  ANP601      0.5254
     30  N3       -54.2420   24.5690  -75.7980 N.2   601  ANP601     -0.0055
     31  C4       -54.0580   23.2270  -75.7390 C.2   601  ANP601      0.3518
@<TRIPOS>BOND
     1    27    26    1
     2    26    28    2
     3    26    25    1
     4    28    29    1
     5    29    30    1
     6    25    24    2
     7    25    31    1
     8    24    23    1
     9    30    31    2
    10    31    22    1
    11    23    22    1
    12    22    21    1
    13     7     5    2
    14    21    16    1
    15    21    19    1
    16    16    15    1
    17    12     5    1
    18    12     9    1
    19    14    13    1
    20    14    15    1
    21     5     6    1
    22     5     8    1
    23    13     9    1
    24    15    17    1
    25    19    20    1
    26    19    17    1
    27     2     1    2
    28     9    11    2
    29     9    10    1
    30    17    18    1
    31     8     1    1
    32     1     3    1
    33     1     4    1
