@<TRIPOS>MOLECULE
3vr8_EPH_D_1.pdb
 44 43 0 0 0
SMALL
GASTEIGER

@<TRIPOS>ATOM
      1  C1       -55.8170   -7.1170  -50.5610 C.3   201  EPH201      0.2543
      2  C2       -56.6140   -8.0120  -49.6480 C.3   201  EPH201      0.2420
      3  C4       -53.6840   -8.0620  -51.4270 C.2   201  EPH201      0.3171
      4  O2       -55.0640   -7.9630  -51.4620 O.3   201  EPH201     -0.4444
      5  O4       -53.0930   -8.4140  -50.4350 O.2   201  EPH201     -0.2501
      6  C18      -52.9640   -7.7720  -52.5740 C.3   201  EPH201      0.1096
      7  C19      -51.4120   -7.8980  -52.5130 C.3   201  EPH201      0.0116
      8  C20      -50.8420   -9.3140  -52.5000 C.3   201  EPH201      0.0006
      9  C21      -50.1410   -9.7330  -53.7880 C.3   201  EPH201      0.0000
     10  C22      -49.3680  -11.0450  -53.6360 C.3   201  EPH201      0.0000
     11  C23      -50.1710  -12.3060  -53.2410 C.3   201  EPH201      0.0000
     12  C24      -49.2890  -13.4920  -52.9930 C.3   201  EPH201      0.0003
     13  C25      -49.9780  -14.8490  -53.0470 C.3   201  EPH201      0.0047
     14  C26      -50.2290  -15.4370  -51.5350 C.3   201  EPH201      0.0257
     15  C27      -50.3830  -16.7220  -50.7270 C.2   201  EPH201     -0.0307
     16  C28      -49.7620  -16.7290  -49.5520 C.2   201  EPH201     -0.0307
     17  C29      -49.8350  -18.1060  -48.5310 C.3   201  EPH201      0.0257
     18  C30      -48.4520  -18.6260  -48.1350 C.3   201  EPH201      0.0047
     19  C31      -48.4260  -19.5250  -46.9080 C.3   201  EPH201      0.0004
     20  C37      -57.5740   -7.1770  -48.8110 C.3   201  EPH201      0.1964
     21  O5       -58.9060   -7.7380  -48.8820 O.3   201  EPH201     -0.3100
     22  C3       -55.4250   -8.9420  -47.5120 C.2   201  EPH201      0.3171
     23  O1       -55.6360   -8.7900  -48.8680 O.3   201  EPH201     -0.4457
     24  O3       -56.3000   -8.9710  -46.6710 O.2   201  EPH201     -0.2501
     25  C5       -53.9240   -9.1480  -47.1370 C.3   201  EPH201      0.1096
     26  C6       -53.1670   -7.7820  -47.1950 C.3   201  EPH201      0.0116
     27  C7       -51.6850   -7.8890  -47.5460 C.3   201  EPH201      0.0006
     28  C8       -50.7390   -7.1150  -46.6340 C.3   201  EPH201      0.0000
     29  C9       -49.8560   -6.1110  -47.3940 C.3   201  EPH201      0.0000
     30  C10      -48.4130   -5.8470  -46.8790 C.3   201  EPH201      0.0000
     31  C11      -47.9210   -4.5380  -47.2360 C.3   201  EPH201      0.0000
     32  C12      -46.4930   -4.0120  -46.8450 C.3   201  EPH201      0.0000
     33  C13      -46.3640   -2.5200  -46.5350 C.3   201  EPH201      0.0000
     34  C14      -45.3560   -1.7800  -47.4210 C.3   201  EPH201      0.0000
     35  C15      -44.4480   -0.5750  -47.3570 C.3   201  EPH201      0.0000
     36  C16      -43.7990    0.6770  -47.9770 C.3   201  EPH201      0.0000
     37  C17      -44.6370    1.5080  -48.7820 C.3   201  EPH201      0.0000
     38  P1       -60.2090   -6.8060  -48.5710 P.3   201  EPH201      0.2141
     39  O6       -59.9180   -5.2680  -48.6990 O.3   201  EPH201     -0.4373
     40  O7       -61.3330   -7.3220  -49.5900 O.2   201  EPH201     -0.5172
     41  O8       -60.6270   -7.3050  -47.1150 O.3   201  EPH201     -0.3125
     42  C38      -61.8020   -8.1420  -46.8520 C.3   201  EPH201      0.1696
     43  C39      -62.3780   -8.0370  -45.4390 C.3   201  EPH201      0.1417
     44  N1       -61.1860   -8.0580  -44.5840 N.3   201  EPH201     -0.1286
@<TRIPOS>BOND
     1     9    10    1
     2     9     8    1
     3    10    11    1
     4    11    12    1
     5    13    12    1
     6    13    14    1
     7     6     7    1
     8     6     3    1
     9     7     8    1
    10    14    15    1
    11     4     3    1
    12     4     1    1
    13     3     5    2
    14    15    16    2
    15     1     2    1
    16     2    23    1
    17     2    20    1
    18    40    38    2
    19    16    17    1
    20    21    20    1
    21    21    38    1
    22    23    22    1
    23    37    36    1
    24    39    38    1
    25    38    41    1
    26    17    18    1
    27    18    19    1
    28    36    35    1
    29    27    26    1
    30    27    28    1
    31    22    25    1
    32    22    24    2
    33    34    35    1
    34    34    33    1
    35    29    30    1
    36    29    28    1
    37    31    30    1
    38    31    32    1
    39    26    25    1
    40    41    42    1
    41    42    43    1
    42    32    33    1
    43    43    44    1
