@<TRIPOS>MOLECULE
3vr8_HEM_C_1.pdb
 43 50 0 0 0
SMALL
GASTEIGER

@<TRIPOS>ATOM
      1  CHA      -36.5570  -12.6370  -54.0890 C.2   201  HEM201      0.0000
      2  CHB      -37.8860   -8.0600  -53.2530 C.2   201  HEM201      0.0000
      3  CHC      -42.4700   -9.5200  -53.6310 C.2   201  HEM201      0.0000
      4  CHD      -41.1300  -14.0430  -54.7010 C.2   201  HEM201      0.0000
      5  C1A      -36.5390  -11.2770  -53.8590 C.2   201  HEM201      0.0000
      6  C2A      -35.3220  -10.4750  -53.7750 C.2   201  HEM201      0.0000
      7  C3A      -35.6870   -9.2010  -53.5360 C.2   201  HEM201      0.0000
      8  C4A      -37.1300   -9.1720  -53.4750 C.2   201  HEM201      0.0000
      9  CMA      -34.7900   -7.9630  -53.3540 C.3   201  HEM201      0.0000
     10  CAA      -33.8940  -11.0600  -53.9410 C.3   201  HEM201      0.0000
     11  CBA      -33.7550  -12.2290  -52.9700 C.3   201  HEM201      0.0000
     12  CGA      -32.3750  -12.8370  -52.9000 C.2   201  HEM201      0.0000
     13  O1A      -31.7080  -13.0030  -53.9730 O.co2 201  HEM201      0.0000
     14  O2A      -31.9830  -13.1680  -51.7390 O.co2 201  HEM201      0.0000
     15  C1B      -39.2490   -8.0510  -53.3070 C.ar  201  HEM201      0.0000
     16  C2B      -40.0960   -6.8850  -53.1790 C.ar  201  HEM201      0.0000
     17  C3B      -41.3500   -7.2990  -53.2860 C.ar  201  HEM201      0.0000
     18  C4B      -41.3470   -8.7350  -53.4800 C.ar  201  HEM201      0.0000
     19  CMB      -39.6480   -5.4220  -52.9590 C.3   201  HEM201      0.0000
     20  CAB      -42.5970   -6.3970  -53.2220 C.2   201  HEM201      0.0000
     21  CBB      -43.8150   -6.9530  -53.1210 C.2   201  HEM201      0.0000
     22  C1C      -42.5240  -10.8740  -53.8690 C.2   201  HEM201      0.0000
     23  C2C      -43.7240  -11.7150  -53.8030 C.2   201  HEM201      0.0000
     24  C3C      -43.3360  -12.9680  -54.1120 C.2   201  HEM201      0.0000
     25  C4C      -41.8980  -12.9580  -54.3720 C.2   201  HEM201      0.0000
     26  CMC      -45.1640  -11.2640  -53.4540 C.3   201  HEM201      0.0000
     27  CAC      -44.2510  -14.2150  -54.1690 C.2   201  HEM201      0.0000
     28  CBC      -44.5340  -14.7750  -55.3450 C.2   201  HEM201      0.0000
     29  C1D      -39.7650  -14.1330  -54.5850 C.ar  201  HEM201      0.0000
     30  C2D      -38.9790  -15.3410  -54.7110 C.ar  201  HEM201      0.0000
     31  C3D      -37.5190  -14.9330  -54.5250 C.ar  201  HEM201      0.0000
     32  C4D      -37.6060  -13.4910  -54.3080 C.ar  201  HEM201      0.0000
     33  CMD      -39.4930  -16.7620  -54.9860 C.3   201  HEM201      0.0000
     34  CAD      -36.3240  -15.9460  -54.5730 C.3   201  HEM201      0.0000
     35  CBD      -34.9180  -15.5130  -54.1070 C.3   201  HEM201      0.0000
     36  CGD      -34.3680  -16.0870  -52.7980 C.2   201  HEM201      0.0000
     37  O1D      -33.1230  -16.2990  -52.7030 O.co2 201  HEM201      0.0000
     38  O2D      -35.1330  -16.3080  -51.8220 O.co2 201  HEM201      0.0000
     39  NA       -37.6290  -10.4490  -53.6750 N.2   201  HEM201      0.0000
     40  NB       -40.0400   -9.1630  -53.4940 N.ar  201  HEM201      0.0000
     41  NC       -41.4300  -11.6660  -54.2110 N.2   201  HEM201      0.0000
     42  ND       -38.9260  -13.0640  -54.3550 N.ar  201  HEM201      0.0000
     43 FE        -39.5170  -11.0810  -53.8920 Fe    201  HEM201      0.0000
@<TRIPOS>BOND
     1    28    27    2
     2    33    30    1
     3    30    29   ar
     4    30    31   ar
     5     4    29    2
     6     4    25    1
     7    29    42   ar
     8    34    31    1
     9    34    35    1
    10    31    32   ar
    11    25    41    2
    12    25    24    1
    13    42    32   ar
    14    42    43    1
    15    32     1    2
    16    41    43    1
    17    41    22    1
    18    27    24    1
    19    24    23    2
    20    35    36    1
    21     1     5    1
    22    13    12   ar
    23    10     6    1
    24    10    11    1
    25    43    39    1
    26    43    40    1
    27    22    23    1
    28    22     3    2
    29     5     6    1
    30     5    39    2
    31    23    26    1
    32     6     7    2
    33    39     8    1
    34     3    18    1
    35     7     8    1
    36     7     9    1
    37    40    18   ar
    38    40    15   ar
    39    18    17   ar
    40     8     2    2
    41    15     2    1
    42    15    16   ar
    43    17    20    1
    44    17    16   ar
    45    20    21    2
    46    16    19    1
    47    11    12    1
    48    12    14   ar
    49    36    37   ar
    50    36    38   ar
