@<TRIPOS>MOLECULE
3vr8_RQX_C_1.pdb
 19 19 0 0 0
SMALL
GASTEIGER

@<TRIPOS>ATOM
      1  O2       -30.9600  -17.7880  -46.0950 O.2   202  RQX202     -0.2854
      2  C7       -30.5830  -18.7780  -46.7390 C.2   202  RQX202      0.2112
      3  C2       -30.5020  -20.1290  -46.1000 C.2   202  RQX202      0.0181
      4  C1       -30.8610  -20.4190  -44.6730 C.3   202  RQX202      0.0342
      5  C6       -30.2150  -18.5640  -48.1700 C.2   202  RQX202      0.1644
      6  N        -30.2920  -17.3260  -48.7320 N.pl3 202  RQX202     -0.1214
      7  C5       -29.7440  -19.7200  -48.9970 C.2   202  RQX202      0.1967
      8  O3       -29.3980  -19.5220  -50.3400 O.2   202  RQX202     -0.4667
      9  C8       -28.1950  -18.8470  -50.7330 C.3   202  RQX202      0.2527
     10  C4       -29.6740  -21.0870  -48.3480 C.2   202  RQX202      0.2268
     11  O1       -29.2890  -22.0430  -49.0710 O.2   202  RQX202     -0.2836
     12  C3       -30.0580  -21.2870  -46.8860 C.2   202  RQX202      0.0234
     13  C9       -30.0250  -22.6010  -46.1020 C.3   202  RQX202      0.0548
     14  C10      -30.7260  -23.7410  -46.8220 C.2   202  RQX202     -0.0298
     15  C11      -32.0370  -24.0620  -46.7240 C.2   202  RQX202     -0.0478
     16  C12      -32.9920  -23.2650  -45.8460 C.3   202  RQX202      0.0260
     17  C13      -32.5540  -25.2460  -47.5420 C.3   202  RQX202      0.0217
     18  C14      -31.7220  -26.5280  -47.4120 C.3   202  RQX202      0.0043
     19  C15      -31.7360  -27.3100  -48.7060 C.3   202  RQX202      0.0003
@<TRIPOS>BOND
     1     9     8    1
     2     8     7    1
     3    11    10    2
     4     7    10    1
     5     7     5    2
     6     6     5    1
     7    19    18    1
     8    10    12    1
     9     5     2    1
    10    17    18    1
    11    17    15    1
    12    12    13    1
    13    12     3    2
    14    14    15    2
    15    14    13    1
    16     2     3    1
    17     2     1    2
    18    15    16    1
    19     3     4    1
