@<TRIPOS>MOLECULE
3vrb_EPH_D_1.pdb
 44 43 0 0 0
SMALL
GASTEIGER

@<TRIPOS>ATOM
      1  C1       118.6290    7.4560   59.8010 C.3   201  EPH201      0.2546
      2  C2       119.4290    7.9750   60.9690 C.3   201  EPH201      0.2420
      3  C4       116.5230    8.3320   58.8350 C.2   201  EPH201      0.3412
      4  O2       117.7450    8.5450   59.4240 O.3   201  EPH201     -0.4414
      5  O4       116.2460    7.2280   58.4290 O.2   201  EPH201     -0.2449
      6  C18      115.6460    9.4130   58.7270 C.2   201  EPH201      0.0773
      7  C19      114.2500    9.2150   58.0500 C.2   201  EPH201     -0.0195
      8  C20      113.1570   10.2510   58.3310 C.3   201  EPH201      0.0262
      9  C21      112.7490   11.1320   57.1510 C.3   201  EPH201      0.0047
     10  C22      112.0240   12.4150   57.5840 C.3   201  EPH201      0.0003
     11  C23      112.6980   13.7710   57.2830 C.3   201  EPH201      0.0000
     12  C24      112.3730   14.7820   58.3450 C.3   201  EPH201      0.0003
     13  C25      113.3230   15.9750   58.4690 C.3   201  EPH201      0.0047
     14  C26      113.3410   16.5600   60.0020 C.3   201  EPH201      0.0257
     15  C27      112.7450   17.6310   60.9080 C.2   201  EPH201     -0.0307
     16  C28      111.8520   17.2060   61.7950 C.2   201  EPH201     -0.0307
     17  C29      111.0870   18.3000   62.8710 C.3   201  EPH201      0.0257
     18  C30      112.0200   18.9770   63.8740 C.3   201  EPH201      0.0047
     19  C31      111.3280   20.0030   64.7460 C.3   201  EPH201      0.0004
     20  C37      120.5860    7.0420   61.3000 C.3   201  EPH201      0.1964
     21  O5       121.5580    7.7850   62.0670 O.3   201  EPH201     -0.3100
     22  C3       118.6350    8.9430   63.1600 C.2   201  EPH201      0.3171
     23  O1       118.5080    8.0910   62.1020 O.3   201  EPH201     -0.4457
     24  O3       119.6800    9.2840   63.6790 O.2   201  EPH201     -0.2501
     25  C5       117.2610    9.4530   63.6480 C.3   201  EPH201      0.1096
     26  C6       116.3370    8.2070   63.8400 C.3   201  EPH201      0.0116
     27  C7       115.0000    8.2970   63.1180 C.3   201  EPH201      0.0006
     28  C8       113.8270    7.8930   64.0050 C.3   201  EPH201      0.0000
     29  C9       113.3820    6.4260   63.8050 C.3   201  EPH201      0.0000
     30  C10      111.9780    6.1620   63.2170 C.3   201  EPH201      0.0000
     31  C11      111.2970    5.0760   63.8600 C.3   201  EPH201      0.0000
     32  C12      109.8580    4.6590   63.3860 C.3   201  EPH201      0.0003
     33  C13      108.8520    4.0720   64.3790 C.3   201  EPH201      0.0047
     34  C14      108.6990    2.5500   64.2670 C.3   201  EPH201      0.0257
     35  C15      107.6750    1.4980   63.9350 C.2   201  EPH201     -0.0307
     36  C16      107.1410    0.4450   62.9580 C.2   201  EPH201     -0.0304
     37  C17      106.2300   -0.5100   63.4900 C.3   201  EPH201      0.0303
     38  P1       122.8780    7.0850   62.6900 P.3   201  EPH201      0.2141
     39  O6       124.0390    7.0200   61.6570 O.2   201  EPH201     -0.5172
     40  O7       123.0960    8.0530   63.9510 O.3   201  EPH201     -0.4373
     41  O8       122.4690    5.6360   63.2010 O.3   201  EPH201     -0.3125
     42  C38      122.8350    4.4090   62.5070 C.3   201  EPH201      0.1696
     43  C39      121.9890    3.2350   62.9540 C.3   201  EPH201      0.1417
     44  N1       122.9950    2.1920   63.1150 N.3   201  EPH201     -0.1286
@<TRIPOS>BOND
     1     9    10    1
     2     9     8    1
     3    11    10    1
     4    11    12    1
     5     7     8    1
     6     7     6    2
     7    12    13    1
     8     5     3    2
     9    13    14    1
    10     6     3    1
    11     3     4    1
    12     4     1    1
    13     1     2    1
    14    14    15    1
    15    15    16    2
    16     2    20    1
    17     2    23    1
    18    20    21    1
    19    39    38    2
    20    16    17    1
    21    21    38    1
    22    23    22    1
    23    42    43    1
    24    42    41    1
    25    38    41    1
    26    38    40    1
    27    17    18    1
    28    43    44    1
    29    36    37    1
    30    36    35    2
    31    27    26    1
    32    27    28    1
    33    22    25    1
    34    22    24    2
    35    30    29    1
    36    30    31    1
    37    32    31    1
    38    32    33    1
    39    25    26    1
    40    29    28    1
    41    18    19    1
    42    35    34    1
    43    34    33    1
