@<TRIPOS>MOLECULE
3vrb_FTN_C_1.pdb
 23 24 0 0 0
SMALL
GASTEIGER

@<TRIPOS>ATOM
      1  N         92.8980   21.4870   63.9280 N.am  202  FTN202     -0.2034
      2  C1        91.0890   20.4650   60.1470 C.3   202  FTN202      0.4187
      3  F1        91.5620   21.6790   59.9030 F     202  FTN202     -0.1659
      4  O1        91.9720   22.2670   62.0620 O.2   202  FTN202     -0.2684
      5  C2        92.1600   19.6230   60.7740 C.ar  202  FTN202      0.0758
      6  F2        90.0150   20.5810   60.9220 F     202  FTN202     -0.1659
      7  O2        90.6200   22.7380   67.3110 O.3   202  FTN202     -0.3587
      8  C3        92.8770   20.0700   61.9830 C.ar  202  FTN202      0.0589
      9  F3        90.7940   19.8660   59.0090 F     202  FTN202     -0.1659
     10  C4        93.8620   19.2350   62.4990 C.ar  202  FTN202      0.0045
     11  C5        94.1640   18.0180   61.8880 C.ar  202  FTN202      0.0001
     12  C6        93.4880   17.6000   60.7490 C.ar  202  FTN202     -0.0001
     13  C7        92.4950   18.4020   60.1990 C.ar  202  FTN202      0.0040
     14  C8        92.5480   21.3700   62.6570 C.2   202  FTN202      0.2647
     15  C9        92.6510   22.5800   64.6320 C.3   202  FTN202      0.0980
     16  C10       92.4380   22.3250   65.9150 C.3   202  FTN202      0.0512
     17  C11       91.8150   23.3470   66.8180 C.3   202  FTN202      0.1168
     18  C12       91.5420   24.6450   66.0760 C.3   202  FTN202      0.0297
     19  C13       92.2620   25.0270   65.0290 C.3   202  FTN202      0.0043
     20  C14       92.6210   23.9790   64.0100 C.3   202  FTN202      0.0218
     21  C15       90.5280   22.6150   68.7490 C.3   202  FTN202      0.1153
     22  C16       89.1410   22.1250   69.1770 C.3   202  FTN202      0.0320
     23  C17       90.8470   23.9140   69.5030 C.3   202  FTN202      0.0320
@<TRIPOS>BOND
     1     9     2    1
     2     3     2    1
     3     2     5    1
     4     2     6    1
     5    13    12   ar
     6    13     5   ar
     7    12    11   ar
     8     5     8   ar
     9    11    10   ar
    10     8    10   ar
    11     8    14    1
    12     4    14    2
    13    14     1   am
    14     1    15    1
    15    20    15    1
    16    20    19    1
    17    15    16    1
    18    19    18    1
    19    16    17    1
    20    18    17    1
    21    17     7    1
    22     7    21    1
    23    21    22    1
    24    21    23    1
