@<TRIPOS>MOLECULE
3vrb_HEM_C_1.pdb
 43 50 0 0 0
SMALL
GASTEIGER

@<TRIPOS>ATOM
      1  CHA       99.1800   13.5700   56.6580 C.2   201  HEM201      0.0000
      2  CHB      100.3150    9.0560   57.7630 C.2   201  HEM201      0.0000
      3  CHC      104.9390   10.0330   57.1030 C.2   201  HEM201      0.0000
      4  CHD      103.8220   14.6080   56.1390 C.2   201  HEM201      0.0000
      5  C1A       99.1100   12.2430   56.9460 C.2   201  HEM201      0.0000
      6  C2A       97.8690   11.4860   56.9800 C.2   201  HEM201      0.0000
      7  C3A       98.1790   10.2290   57.2900 C.2   201  HEM201      0.0000
      8  C4A       99.6160   10.1690   57.4570 C.2   201  HEM201      0.0000
      9  CMA       97.1940    9.0500   57.4280 C.3   201  HEM201      0.0000
     10  CAA       96.4490   12.0280   56.6760 C.3   201  HEM201      0.0000
     11  CBA       95.9460   13.0510   57.6930 C.3   201  HEM201      0.0000
     12  CGA       94.4430   13.0360   57.6150 C.2   201  HEM201      0.0000
     13  O1A       93.9080   13.5150   56.5730 O.co2 201  HEM201      0.0000
     14  O2A       93.7980   12.5240   58.5820 O.co2 201  HEM201      0.0000
     15  C1B      101.6540    8.9490   57.6120 C.ar  201  HEM201      0.0000
     16  C2B      102.3650    7.7030   57.6800 C.ar  201  HEM201      0.0000
     17  C3B      103.6380    7.9800   57.5070 C.ar  201  HEM201      0.0000
     18  C4B      103.7660    9.3950   57.3200 C.ar  201  HEM201      0.0000
     19  CMB      101.7660    6.3020   57.9200 C.3   201  HEM201      0.0000
     20  CAB      104.7840    6.9560   57.4930 C.2   201  HEM201      0.0000
     21  CBB      104.6650    5.8630   56.7230 C.2   201  HEM201      0.0000
     22  C1C      105.0150   11.3670   56.8660 C.2   201  HEM201      0.0000
     23  C2C      106.2370   12.1330   56.8900 C.2   201  HEM201      0.0000
     24  C3C      105.9010   13.3960   56.6220 C.2   201  HEM201      0.0000
     25  C4C      104.4790   13.4610   56.4350 C.2   201  HEM201      0.0000
     26  CMC      107.6330   11.5600   57.1970 C.3   201  HEM201      0.0000
     27  CAC      106.8130   14.6220   56.5370 C.2   201  HEM201      0.0000
     28  CBC      107.9520   14.5330   55.8550 C.2   201  HEM201      0.0000
     29  C1D      102.4850   14.7630   56.2090 C.ar  201  HEM201      0.0000
     30  C2D      101.8050   16.0120   56.0360 C.ar  201  HEM201      0.0000
     31  C3D      100.3210   15.7150   56.2060 C.ar  201  HEM201      0.0000
     32  C4D      100.2990   14.2910   56.4490 C.ar  201  HEM201      0.0000
     33  CMD      102.4500   17.3710   55.7480 C.3   201  HEM201      0.0000
     34  CAD       99.1800   16.7700   56.1020 C.3   201  HEM201      0.0000
     35  CBD       97.7350   16.3540   56.4350 C.3   201  HEM201      0.0000
     36  CGD       97.4120   16.4610   57.9190 C.2   201  HEM201      0.0000
     37  O1D       96.2020   16.3240   58.2700 O.co2 201  HEM201      0.0000
     38  O2D       98.3390   16.6740   58.7650 O.co2 201  HEM201      0.0000
     39  NA       100.1740   11.4110   57.2430 N.2   201  HEM201      0.0000
     40  NB       102.5290    9.9750   57.3830 N.ar  201  HEM201      0.0000
     41  NC       103.9500   12.1980   56.5800 N.2   201  HEM201      0.0000
     42  ND       101.5770   13.7550   56.4380 N.ar  201  HEM201      0.0000
     43 FE        102.0850   11.7880   56.9210 Fe    201  HEM201      0.0000
@<TRIPOS>BOND
     1    33    30    1
     2    28    27    2
     3    30    31   ar
     4    30    29   ar
     5    34    31    1
     6    34    35    1
     7     4    29    2
     8     4    25    1
     9    31    32   ar
    10    29    42   ar
    11    35    36    1
    12    25    41    2
    13    25    24    1
    14    42    32   ar
    15    42    43    1
    16    32     1    2
    17    27    24    1
    18    13    12   ar
    19    41    22    1
    20    41    43    1
    21    24    23    2
    22     1     5    1
    23    10     6    1
    24    10    11    1
    25    21    20    2
    26    22    23    1
    27    22     3    2
    28    23    26    1
    29    43    39    1
    30    43    40    1
    31     5     6    1
    32     5    39    2
    33     6     7    2
    34     3    18    1
    35    39     8    1
    36     7     9    1
    37     7     8    1
    38    18    40   ar
    39    18    17   ar
    40    40    15   ar
    41     8     2    2
    42    20    17    1
    43    17    16   ar
    44    15    16   ar
    45    15     2    1
    46    12    11    1
    47    12    14   ar
    48    16    19    1
    49    36    37   ar
    50    36    38   ar
