@<TRIPOS>MOLECULE
3vrc_HEC_A_1.pdb
 43 50 0 0 0
SMALL
GASTEIGER

@<TRIPOS>ATOM
      1 FE         31.5060   -1.0670   23.6000 Fe    200  HEC200      0.0000
      2  CHA       32.8950   -3.5550   21.6770 C.2   200  HEC200      0.0000
      3  CHB       32.2280    1.1950   21.1410 C.2   200  HEC200      0.0000
      4  CHC       29.4330    1.1760   25.1210 C.2   200  HEC200      0.0000
      5  CHD       30.7620   -3.3850   26.0430 C.2   200  HEC200      0.0000
      6  NA        32.4740   -1.1560   21.7630 N.ar  200  HEC200      0.0000
      7  C1A       32.9180   -2.2640   21.1330 C.ar  200  HEC200      0.0000
      8  C2A       33.4440   -1.9320   19.8330 C.ar  200  HEC200      0.0000
      9  C3A       33.3110   -0.5620   19.7200 C.ar  200  HEC200      0.0000
     10  C4A       32.6340   -0.1260   20.9240 C.ar  200  HEC200      0.0000
     11  CMA       33.6800    0.3610   18.5570 C.3   200  HEC200      0.0000
     12  CAA       33.9900   -2.9330   18.8270 C.3   200  HEC200      0.0000
     13  CBA       32.7710   -3.5860   18.0940 C.3   200  HEC200      0.0000
     14  CGA       33.2750   -4.4120   16.9540 C.2   200  HEC200      0.0000
     15  O1A       33.6330   -5.5480   17.1960 O.co2 200  HEC200      0.0000
     16  O2A       33.2770   -3.9050   15.8230 O.co2 200  HEC200      0.0000
     17  NB        30.9110    0.8690   23.1840 N.2   200  HEC200      0.0000
     18  C1B       31.3210    1.6450   22.1320 C.2   200  HEC200      0.0000
     19  C2B       30.8280    2.9510   22.2680 C.2   200  HEC200      0.0000
     20  C3B       29.9760    2.9330   23.4210 C.2   200  HEC200      0.0000
     21  C4B       30.0590    1.6130   23.9210 C.2   200  HEC200      0.0000
     22  CMB       31.1360    4.1180   21.3550 C.3   200  HEC200      0.0000
     23  CAB       29.2570    4.0070   24.0390 C.3   200  HEC200      0.0000
     24  CBB       28.5420    4.9810   23.2070 C.3   200  HEC200      0.0000
     25  NC        30.3570   -1.0780   25.3010 N.ar  200  HEC200      0.0000
     26  C1C       29.5690   -0.0860   25.7250 C.ar  200  HEC200      0.0000
     27  C2C       28.9410   -0.4160   27.0070 C.ar  200  HEC200      0.0000
     28  C3C       29.3040   -1.7240   27.2420 C.ar  200  HEC200      0.0000
     29  C4C       30.1710   -2.1140   26.1470 C.ar  200  HEC200      0.0000
     30  CMC       28.0980    0.5760   27.7880 C.3   200  HEC200      0.0000
     31  CAC       28.9710   -2.6020   28.4080 C.3   200  HEC200      0.0000
     32  CBC       27.7380   -2.2710   29.2320 C.3   200  HEC200      0.0000
     33  ND        31.8810   -3.0770   23.8670 N.2   200  HEC200      0.0000
     34  C1D       31.5150   -3.8500   24.9200 C.2   200  HEC200      0.0000
     35  C2D       31.9190   -5.2120   24.7660 C.2   200  HEC200      0.0000
     36  C3D       32.4860   -5.2980   23.4660 C.2   200  HEC200      0.0000
     37  C4D       32.4160   -3.9640   22.9450 C.2   200  HEC200      0.0000
     38  CMD       31.7420   -6.2840   25.7390 C.3   200  HEC200      0.0000
     39  CAD       32.9760   -6.4880   22.7800 C.3   200  HEC200      0.0000
     40  CBD       31.8060   -7.1260   21.9740 C.3   200  HEC200      0.0000
     41  CGD       32.2150   -8.4010   21.3960 C.2   200  HEC200      0.0000
     42  O1D       33.2640   -8.4780   20.7160 O.co2 200  HEC200      0.0000
     43  O2D       31.4580   -9.4220   21.5290 O.co2 200  HEC200      0.0000
@<TRIPOS>BOND
     1    16    14   ar
     2    14    15   ar
     3    14    13    1
     4    13    12    1
     5    11     9    1
     6    12     8    1
     7     9     8   ar
     8     9    10   ar
     9     8     7   ar
    10    42    41   ar
    11    10     3    2
    12    10     6   ar
    13     7     2    2
    14     7     6   ar
    15     3    18    1
    16    22    19    1
    17    41    43   ar
    18    41    40    1
    19     2    37    1
    20     6     1    1
    21    40    39    1
    22    18    19    1
    23    18    17    2
    24    19    20    2
    25    39    36    1
    26    37    36    1
    27    37    33    2
    28    17     1    1
    29    17    21    1
    30    24    23    1
    31    20    21    1
    32    20    23    1
    33    36    35    2
    34     1    33    1
    35     1    25    1
    36    33    34    1
    37    21     4    2
    38    35    34    1
    39    35    38    1
    40    34     5    2
    41     4    26    1
    42    25    26   ar
    43    25    29   ar
    44    26    27   ar
    45     5    29    1
    46    29    28   ar
    47    27    28   ar
    48    27    30    1
    49    28    31    1
    50    31    32    1
