@<TRIPOS>MOLECULE
3vrd_HEC_A_1.pdb
 43 50 0 0 0
SMALL
GASTEIGER

@<TRIPOS>ATOM
      1 FE         36.4930   84.7660   26.6730 Fe    201  HEC201      0.0000
      2  CHA       39.5820   86.2870   27.4170 C.2   201  HEC201      0.0000
      3  CHB       34.9020   86.6890   29.0340 C.2   201  HEC201      0.0000
      4  CHC       33.4140   83.5990   25.6130 C.2   201  HEC201      0.0000
      5  CHD       38.1040   82.4920   24.6200 C.2   201  HEC201      0.0000
      6  NA        37.1100   86.1810   27.9910 N.2   201  HEC201      0.0000
      7  C1A       38.3930   86.6430   28.1860 C.2   201  HEC201      0.0000
      8  C2A       38.4610   87.6110   29.2350 C.2   201  HEC201      0.0000
      9  C3A       37.0780   87.7570   29.6380 C.2   201  HEC201      0.0000
     10  C4A       36.3210   86.8080   28.8750 C.2   201  HEC201      0.0000
     11  CMA       36.5920   88.5940   30.7800 C.3   201  HEC201      0.0000
     12  CAA       39.6570   88.3830   29.7700 C.3   201  HEC201      0.0000
     13  CBA       40.0020   87.7120   31.1400 C.3   201  HEC201      0.0000
     14  CGA       40.9760   88.6320   31.9430 C.2   201  HEC201      0.0000
     15  O1A       41.1510   89.8400   31.6210 O.co2 201  HEC201      0.0000
     16  O2A       41.6230   87.9970   32.8270 O.co2 201  HEC201      0.0000
     17  NB        34.5960   85.1020   27.1640 N.ar  201  HEC201      0.0000
     18  C1B       34.1480   85.8560   28.2250 C.ar  201  HEC201      0.0000
     19  C2B       32.7120   85.9160   28.3380 C.ar  201  HEC201      0.0000
     20  C3B       32.3070   85.0430   27.3120 C.ar  201  HEC201      0.0000
     21  C4B       33.4590   84.5350   26.6870 C.ar  201  HEC201      0.0000
     22  CMB       31.9260   86.7050   29.3490 C.3   201  HEC201      0.0000
     23  CAB       31.0210   84.5040   26.9100 C.3   201  HEC201      0.0000
     24  CBB       29.8200   85.2740   26.9010 C.3   201  HEC201      0.0000
     25  NC        35.8910   83.3280   25.3870 N.2   201  HEC201      0.0000
     26  C1C       34.5970   83.0320   25.0760 C.2   201  HEC201      0.0000
     27  C2C       34.5620   81.9390   24.0830 C.2   201  HEC201      0.0000
     28  C3C       35.8770   81.6580   23.7860 C.2   201  HEC201      0.0000
     29  C4C       36.6700   82.5420   24.6330 C.2   201  HEC201      0.0000
     30  CMC       33.2660   81.3570   23.4850 C.3   201  HEC201      0.0000
     31  CAC       36.5560   80.6450   23.0290 C.3   201  HEC201      0.0000
     32  CBC       35.8870   80.0790   21.8670 C.3   201  HEC201      0.0000
     33  ND        38.3950   84.4470   26.1460 N.ar  201  HEC201      0.0000
     34  C1D       38.8530   83.5230   25.2170 C.ar  201  HEC201      0.0000
     35  C2D       40.2670   83.6730   25.0430 C.ar  201  HEC201      0.0000
     36  C3D       40.6860   84.7590   25.7600 C.ar  201  HEC201      0.0000
     37  C4D       39.5200   85.2110   26.4770 C.ar  201  HEC201      0.0000
     38  CMD       41.1050   82.8080   24.1750 C.3   201  HEC201      0.0000
     39  CAD       42.0570   85.4000   25.7530 C.3   201  HEC201      0.0000
     40  CBD       41.9620   86.5950   24.7470 C.3   201  HEC201      0.0000
     41  CGD       41.8600   86.2290   23.2570 C.2   201  HEC201      0.0000
     42  O1D       42.9300   85.7870   22.7330 O.co2 201  HEC201      0.0000
     43  O2D       40.8010   86.2990   22.5980 O.co2 201  HEC201      0.0000
@<TRIPOS>BOND
     1    32    31    1
     2    43    41   ar
     3    42    41   ar
     4    31    28    1
     5    41    40    1
     6    30    27    1
     7    28    27    2
     8    28    29    1
     9    27    26    1
    10    38    35    1
    11     5    29    1
    12     5    34    2
    13    29    25    2
    14    40    39    1
    15    35    34   ar
    16    35    36   ar
    17    26    25    1
    18    26     4    2
    19    34    33   ar
    20    25     1    1
    21     4    21    1
    22    39    36    1
    23    36    37   ar
    24    33    37   ar
    25    33     1    1
    26    37     2    2
    27     1    17    1
    28     1     6    1
    29    21    17   ar
    30    21    20   ar
    31    24    23    1
    32    23    20    1
    33    17    18   ar
    34    20    19   ar
    35     2     7    1
    36     6     7    2
    37     6    10    1
    38     7     8    1
    39    18    19   ar
    40    18     3    1
    41    19    22    1
    42    10     3    2
    43    10     9    1
    44     8     9    2
    45     8    12    1
    46     9    11    1
    47    12    13    1
    48    13    14    1
    49    15    14   ar
    50    14    16   ar
