@<TRIPOS>MOLECULE
3vre_HEM_A_1.pdb
 43 50 0 0 0
SMALL
GASTEIGER

@<TRIPOS>ATOM
      1  CHA      -17.1580   13.6980   -3.3280 C.2   201  HEM201      0.0000
      2  CHB      -13.1180   15.8480   -1.7840 C.2   201  HEM201      0.0000
      3  CHC      -10.3830   11.9070   -2.5560 C.2   201  HEM201      0.0000
      4  CHD      -14.4190    9.7020   -3.9970 C.2   201  HEM201      0.0000
      5  C1A      -16.2740   14.6830   -2.9500 C.2   201  HEM201      0.0000
      6  C2A      -16.5200   16.1190   -2.9200 C.2   201  HEM201      0.0000
      7  C3A      -15.3920   16.7150   -2.4970 C.2   201  HEM201      0.0000
      8  C4A      -14.4060   15.6750   -2.2490 C.2   201  HEM201      0.0000
      9  CMA      -15.1650   18.2430   -2.3040 C.3   201  HEM201      0.0000
     10  CAA      -17.8510   16.8010   -3.3200 C.3   201  HEM201      0.0000
     11  CBA      -18.7010   16.9680   -2.0540 C.3   201  HEM201      0.0000
     12  CGA      -20.0530   17.5590   -2.3780 C.2   201  HEM201      0.0000
     13  O1A      -20.1550   18.7980   -2.5980 O.co2 201  HEM201      0.0000
     14  O2A      -21.0460   16.7920   -2.4220 O.co2 201  HEM201      0.0000
     15  C1B      -12.0300   15.0170   -1.9780 C.ar  201  HEM201      0.0000
     16  C2B      -10.6380   15.4270   -1.9770 C.ar  201  HEM201      0.0000
     17  C3B       -9.8870   14.3440   -2.1910 C.ar  201  HEM201      0.0000
     18  C4B      -10.7670   13.2100   -2.3390 C.ar  201  HEM201      0.0000
     19  CMB      -10.1000   16.8670   -1.7750 C.3   201  HEM201      0.0000
     20  CAB       -8.3450   14.2950   -2.2850 C.2   201  HEM201      0.0000
     21  CBB       -7.7010   13.5330   -1.4120 C.2   201  HEM201      0.0000
     22  C1C      -11.2210   10.9770   -3.1060 C.2   201  HEM201      0.0000
     23  C2C      -10.8430    9.7360   -3.7530 C.2   201  HEM201      0.0000
     24  C3C      -11.9750    9.1370   -4.1650 C.2   201  HEM201      0.0000
     25  C4C      -13.0890    9.9840   -3.7710 C.2   201  HEM201      0.0000
     26  CMC       -9.3790    9.2400   -3.9260 C.3   201  HEM201      0.0000
     27  CAC      -12.1550    7.7810   -4.9050 C.2   201  HEM201      0.0000
     28  CBC      -11.3720    7.4190   -5.9210 C.2   201  HEM201      0.0000
     29  C1D      -15.4990   10.5600   -4.0310 C.ar  201  HEM201      0.0000
     30  C2D      -16.8090   10.2230   -4.5690 C.ar  201  HEM201      0.0000
     31  C3D      -17.6670   11.4620   -4.3640 C.ar  201  HEM201      0.0000
     32  C4D      -16.7910   12.4240   -3.7180 C.ar  201  HEM201      0.0000
     33  CMD      -17.2500    8.9030   -5.2190 C.3   201  HEM201      0.0000
     34  CAD      -19.1370   11.6200   -4.7790 C.3   201  HEM201      0.0000
     35  CBD      -19.1430   12.1240   -6.2190 C.3   201  HEM201      0.0000
     36  CGD      -20.5490   12.5000   -6.5900 C.2   201  HEM201      0.0000
     37  O1D      -21.0370   13.5390   -6.0730 O.co2 201  HEM201      0.0000
     38  O2D      -21.1830   11.7710   -7.3960 O.co2 201  HEM201      0.0000
     39  NA       -14.9880   14.4520   -2.4970 N.2   201  HEM201      0.0000
     40  NB       -12.0700   13.6420   -2.1570 N.ar  201  HEM201      0.0000
     41  NC       -12.5920   11.0910   -3.0990 N.2   201  HEM201      0.0000
     42  ND       -15.5410   11.8300   -3.5070 N.ar  201  HEM201      0.0000
     43 FE        -13.7900   12.7160   -2.7350 Fe    201  HEM201      0.0000
@<TRIPOS>BOND
     1    38    36   ar
     2    36    35    1
     3    36    37   ar
     4    35    34    1
     5    28    27    2
     6    33    30    1
     7    27    24    1
     8    34    31    1
     9    30    31   ar
    10    30    29   ar
    11    31    32   ar
    12    24    25    1
    13    24    23    2
    14    29     4    2
    15    29    42   ar
    16     4    25    1
    17    26    23    1
    18    25    41    2
    19    23    22    1
    20    32    42   ar
    21    32     1    2
    22    42    43    1
    23     1     5    1
    24    10     6    1
    25    10    11    1
    26    22    41    1
    27    22     3    2
    28    41    43    1
    29     5     6    1
    30     5    39    2
    31     6     7    2
    32    43    39    1
    33    43    40    1
    34    13    12   ar
    35     3    18    1
    36     7     9    1
    37     7     8    1
    38    39     8    1
    39    14    12   ar
    40    12    11    1
    41    18    17   ar
    42    18    40   ar
    43    20    17    1
    44    20    21    2
    45     8     2    2
    46    17    16   ar
    47    40    15   ar
    48    15    16   ar
    49    15     2    1
    50    16    19    1
