@<TRIPOS>MOLECULE
3vrf_HEM_A_1.pdb
 43 50 0 0 0
SMALL
GASTEIGER

@<TRIPOS>ATOM
      1  CHA        5.1890   -9.8270   20.1860 C.2   201  HEM201      0.0000
      2  CHB        7.5180  -11.5440   16.2480 C.2   201  HEM201      0.0000
      3  CHC        6.0250   -7.6770   13.6670 C.2   201  HEM201      0.0000
      4  CHD        4.0150   -5.7420   17.6990 C.2   201  HEM201      0.0000
      5  C1A        6.0150  -10.6010   19.3990 C.ar  201  HEM201      0.0000
      6  C2A        6.7360  -11.7790   19.7640 C.ar  201  HEM201      0.0000
      7  C3A        7.3290  -12.2170   18.6630 C.ar  201  HEM201      0.0000
      8  C4A        7.0960  -11.3760   17.5420 C.ar  201  HEM201      0.0000
      9  CMA        8.2500  -13.4470   18.5730 C.3   201  HEM201      0.0000
     10  CAA        6.7380  -12.3910   21.2320 C.3   201  HEM201      0.0000
     11  CBA        5.6160  -13.3810   21.3710 C.3   201  HEM201      0.0000
     12  CGA        5.4200  -13.9870   22.7620 C.2   201  HEM201      0.0000
     13  O1A        5.9690  -13.4390   23.7300 O.co2 201  HEM201      0.0000
     14  O2A        4.6380  -15.0090   22.8670 O.co2 201  HEM201      0.0000
     15  C1B        7.3400  -10.6420   15.2420 C.2   201  HEM201      0.0000
     16  C2B        7.7860  -10.8250   13.9070 C.2   201  HEM201      0.0000
     17  C3B        7.3780   -9.7780   13.2010 C.2   201  HEM201      0.0000
     18  C4B        6.6270   -8.8590   14.0200 C.2   201  HEM201      0.0000
     19  CMB        8.6180  -12.0490   13.4460 C.3   201  HEM201      0.0000
     20  CAB        7.5870   -9.3700   11.7440 C.2   201  HEM201      0.0000
     21  CBB        8.6200   -9.8380   11.0180 C.2   201  HEM201      0.0000
     22  C1C        5.3680   -6.8060   14.5270 C.ar  201  HEM201      0.0000
     23  C2C        4.9150   -5.5030   14.2580 C.ar  201  HEM201      0.0000
     24  C3C        4.3760   -4.9750   15.3570 C.ar  201  HEM201      0.0000
     25  C4C        4.4680   -5.9680   16.4060 C.ar  201  HEM201      0.0000
     26  CMC        5.0350   -4.9070   12.8310 C.3   201  HEM201      0.0000
     27  CAC        3.7760   -3.5880   15.5790 C.2   201  HEM201      0.0000
     28  CBC        4.3000   -2.4890   15.0100 C.2   201  HEM201      0.0000
     29  C1D        4.1440   -6.6980   18.6990 C.2   201  HEM201      0.0000
     30  C2D        3.6890   -6.5050   20.0380 C.2   201  HEM201      0.0000
     31  C3D        4.0250   -7.7000   20.7780 C.2   201  HEM201      0.0000
     32  C4D        4.6970   -8.5900   19.8890 C.2   201  HEM201      0.0000
     33  CMD        2.9490   -5.2610   20.5300 C.3   201  HEM201      0.0000
     34  CAD        3.7650   -8.0490   22.2610 C.3   201  HEM201      0.0000
     35  CBD        4.9160   -7.4140   22.9910 C.3   201  HEM201      0.0000
     36  CGD        5.0280   -7.6700   24.5130 C.2   201  HEM201      0.0000
     37  O1D        6.0840   -8.1080   25.0040 O.co2 201  HEM201      0.0000
     38  O2D        4.0820   -7.3380   25.2300 O.co2 201  HEM201      0.0000
     39  NA         6.2650  -10.3650   18.0390 N.ar  201  HEM201      0.0000
     40  NB         6.5890   -9.4540   15.2690 N.2   201  HEM201      0.0000
     41  NC         5.1190   -7.1000   15.9010 N.ar  201  HEM201      0.0000
     42  ND         4.7610   -7.9720   18.6560 N.2   201  HEM201      0.0000
     43 FE          5.6710   -8.6950   16.9550 Fe    201  HEM201      0.0000
@<TRIPOS>BOND
     1    21    20    2
     2    20    17    1
     3    26    23    1
     4    17    16    2
     5    17    18    1
     6    19    16    1
     7     3    18    2
     8     3    22    1
     9    16    15    1
    10    18    40    1
    11    23    22   ar
    12    23    24   ar
    13    22    41   ar
    14    28    27    2
    15    15    40    2
    16    15     2    1
    17    40    43    1
    18    24    27    1
    19    24    25   ar
    20    41    25   ar
    21    41    43    1
    22     2     8    2
    23    25     4    1
    24    43    39    1
    25    43    42    1
    26     8    39   ar
    27     8     7   ar
    28     4    29    2
    29    39     5   ar
    30     9     7    1
    31    42    29    1
    32    42    32    2
    33     7     6   ar
    34    29    30    1
    35     5     6   ar
    36     5     1    2
    37     6    10    1
    38    32     1    1
    39    32    31    1
    40    30    33    1
    41    30    31    2
    42    31    34    1
    43    10    11    1
    44    11    12    1
    45    34    35    1
    46    12    14   ar
    47    12    13   ar
    48    35    36    1
    49    36    37   ar
    50    36    38   ar
