@<TRIPOS>MOLECULE
3vrg_HEM_A_1.pdb
 43 50 0 0 0
SMALL
GASTEIGER

@<TRIPOS>ATOM
      1  CHA        4.9510   -9.9900   20.1230 C.2   201  HEM201      0.0000
      2  CHB        7.4420  -11.6590   16.2320 C.2   201  HEM201      0.0000
      3  CHC        6.0070   -7.7830   13.6640 C.2   201  HEM201      0.0000
      4  CHD        3.9440   -5.8580   17.6570 C.2   201  HEM201      0.0000
      5  C1A        5.7440  -10.7630   19.2800 C.ar  201  HEM201      0.0000
      6  C2A        6.4290  -11.9730   19.6770 C.ar  201  HEM201      0.0000
      7  C3A        7.1180  -12.3960   18.6060 C.ar  201  HEM201      0.0000
      8  C4A        6.9390  -11.4750   17.5140 C.ar  201  HEM201      0.0000
      9  CMA        7.9940  -13.6520   18.5380 C.3   201  HEM201      0.0000
     10  CAA        6.2250  -12.6340   21.0680 C.3   201  HEM201      0.0000
     11  CBA        7.3040  -12.1640   21.9460 C.3   201  HEM201      0.0000
     12  CGA        7.1850  -12.9320   23.2640 C.2   201  HEM201      0.0000
     13  O1A        6.8460  -14.1510   23.2580 O.co2 201  HEM201      0.0000
     14  O2A        7.4330  -12.2710   24.2990 O.co2 201  HEM201      0.0000
     15  C1B        7.2300  -10.7570   15.2040 C.2   201  HEM201      0.0000
     16  C2B        7.7390  -10.8590   13.8840 C.2   201  HEM201      0.0000
     17  C3B        7.3270   -9.8330   13.1650 C.2   201  HEM201      0.0000
     18  C4B        6.5600   -8.9890   14.0300 C.2   201  HEM201      0.0000
     19  CMB        8.4980  -12.1120   13.4180 C.3   201  HEM201      0.0000
     20  CAB        7.5460   -9.5090   11.7040 C.2   201  HEM201      0.0000
     21  CBB        8.5740   -9.9490   10.9950 C.2   201  HEM201      0.0000
     22  C1C        5.3540   -6.9340   14.5110 C.ar  201  HEM201      0.0000
     23  C2C        4.9080   -5.6020   14.2000 C.ar  201  HEM201      0.0000
     24  C3C        4.3280   -5.0830   15.3240 C.ar  201  HEM201      0.0000
     25  C4C        4.4420   -6.0910   16.3760 C.ar  201  HEM201      0.0000
     26  CMC        5.0690   -4.9390   12.8030 C.3   201  HEM201      0.0000
     27  CAC        3.7530   -3.6780   15.5460 C.2   201  HEM201      0.0000
     28  CBC        4.3250   -2.5920   15.0320 C.2   201  HEM201      0.0000
     29  C1D        4.0840   -6.7910   18.6720 C.2   201  HEM201      0.0000
     30  C2D        3.6680   -6.5560   20.0330 C.2   201  HEM201      0.0000
     31  C3D        3.9730   -7.7870   20.7430 C.2   201  HEM201      0.0000
     32  C4D        4.5570   -8.6910   19.8100 C.2   201  HEM201      0.0000
     33  CMD        3.0130   -5.2820   20.5400 C.3   201  HEM201      0.0000
     34  CAD        3.7680   -8.0710   22.2600 C.3   201  HEM201      0.0000
     35  CBD        5.1000   -7.7090   22.8880 C.3   201  HEM201      0.0000
     36  CGD        5.1200   -7.8440   24.4220 C.2   201  HEM201      0.0000
     37  O1D        4.1530   -7.4320   25.0820 O.co2 201  HEM201      0.0000
     38  O2D        6.1760   -8.2650   24.9700 O.co2 201  HEM201      0.0000
     39  NA         6.1250  -10.4570   17.9910 N.ar  201  HEM201      0.0000
     40  NB         6.5340   -9.5610   15.2790 N.2   201  HEM201      0.0000
     41  NC         4.9890   -7.2170   15.8500 N.ar  201  HEM201      0.0000
     42  ND         4.6240   -8.1030   18.5460 N.2   201  HEM201      0.0000
     43 FE          5.5080   -8.8480   16.8890 Fe    201  HEM201      0.0000
@<TRIPOS>BOND
     1    21    20    2
     2    20    17    1
     3    26    23    1
     4    17    16    2
     5    17    18    1
     6    19    16    1
     7     3    18    2
     8     3    22    1
     9    16    15    1
    10    18    40    1
    11    23    22   ar
    12    23    24   ar
    13    22    41   ar
    14    28    27    2
    15    15    40    2
    16    15     2    1
    17    40    43    1
    18    24    27    1
    19    24    25   ar
    20    41    25   ar
    21    41    43    1
    22     2     8    2
    23    25     4    1
    24    43    39    1
    25    43    42    1
    26     8    39   ar
    27     8     7   ar
    28     4    29    2
    29    39     5   ar
    30     9     7    1
    31    42    29    1
    32    42    32    2
    33     7     6   ar
    34    29    30    1
    35     5     6   ar
    36     5     1    2
    37     6    10    1
    38    32     1    1
    39    32    31    1
    40    30    33    1
    41    30    31    2
    42    31    34    1
    43    10    11    1
    44    11    12    1
    45    34    35    1
    46    35    36    1
    47    13    12   ar
    48    12    14   ar
    49    36    38   ar
    50    36    37   ar
