@<TRIPOS>MOLECULE
3vri_1KX_A_1.pdb
 21 24 0 0 0
SMALL
GASTEIGER

@<TRIPOS>ATOM
      1  C         16.7480   -5.3760   43.4210 C.3   301  1KX301      0.0234
      2  N         15.5640   -7.6700   43.4630 N.pl3 301  1KX301     -0.2094
      3  O         10.0950  -11.6980   41.8820 O.3   301  1KX301     -0.2201
      4  C01       14.6410  -11.0260   43.2320 C.2   301  1KX301      0.2200
      5  N01       15.7740  -11.5560   42.8440 N.2   301  1KX301     -0.3086
      6  C02       14.6010   -9.7040   43.4110 C.2   301  1KX301      0.1690
      7  N02       13.3690   -9.3400   43.7830 N.2   301  1KX301     -0.2402
      8  C03       12.6850  -10.4660   43.8000 C.3   301  1KX301      0.2223
      9  N03       13.4420  -11.5040   43.4590 N.pl3 301  1KX301     -0.2586
     10  C04       13.0210  -12.9260   43.3650 C.3   301  1KX301      0.0993
     11  N04       16.8290   -9.5090   42.8900 N.2   301  1KX301     -0.3072
     12  C05       11.9990  -13.3190   44.2570 C.2   301  1KX301     -0.0111
     13  N05       17.9910  -11.3530   42.3230 N.pl3 301  1KX301     -0.0232
     14  C06       10.9510  -13.8030   43.6000 C.2   301  1KX301     -0.0267
     15  C07       11.1280  -13.8280   42.2410 C.3   301  1KX301      0.0567
     16  C08       10.1750  -13.0060   41.3960 C.3   301  1KX301      0.1864
     17  C09       12.5170  -13.2820   42.0210 C.3   301  1KX301      0.0314
     18  C10       15.6980   -8.9610   43.2420 C.2   301  1KX301      0.2341
     19  C11       16.8710  -10.8030   42.7030 C.1   301  1KX301      0.2440
     20  C12       16.5020   -6.7480   43.2980 C.3   301  1KX301      0.0952
     21  C13       17.4490   -6.1480   42.4390 C.3   301  1KX301      0.0234
@<TRIPOS>BOND
     1    16     3    1
     2    16    15    1
     3    17    15    1
     4    17    10    1
     5    15    14    1
     6    13    19    1
     7    21    20    1
     8    21     1    1
     9    19     5    2
    10    19    11    2
    11     5     4    2
    12    11    18    2
    13     4     6    1
    14     4     9    1
    15    18     6    1
    16    18     2    1
    17    20     1    1
    18    20     2    1
    19    10     9    1
    20    10    12    1
    21     6     7    2
    22     9     8    1
    23    14    12    2
    24     7     8    1
