@<TRIPOS>MOLECULE
3vrj_1KX_A_1.pdb
 21 24 0 0 0
SMALL
GASTEIGER

@<TRIPOS>ATOM
      1  C         16.7650   -6.1030   43.2620 C.3   301  1KX301      0.0234
      2  N         15.6280   -8.3910   43.4170 N.pl3 301  1KX301     -0.2094
      3  O         10.4190  -12.3120   42.0060 O.3   301  1KX301     -0.2204
      4  C01       14.6940  -11.7370   43.1900 C.2   301  1KX301      0.2198
      5  N01       15.8380  -12.2870   42.8530 N.2   301  1KX301     -0.3087
      6  C02       14.6410  -10.4130   43.3820 C.2   301  1KX301      0.1689
      7  N02       13.4170  -10.1340   43.7220 N.2   301  1KX301     -0.2402
      8  C03       12.7570  -11.2580   43.7600 C.3   301  1KX301      0.2220
      9  N03       13.5190  -12.2610   43.4430 N.pl3 301  1KX301     -0.2624
     10  C04       13.1950  -13.7290   43.3850 C.3   301  1KX301      0.0770
     11  N04       16.8560  -10.2450   42.8500 N.2   301  1KX301     -0.3072
     12  C05       12.1580  -14.0740   44.2620 C.3   301  1KX301      0.0199
     13  N05       18.0080  -12.1240   42.2950 N.pl3 301  1KX301     -0.0232
     14  C06       11.1150  -14.4740   43.6050 C.3   301  1KX301      0.0044
     15  C07       11.3540  -14.5560   42.2560 C.3   301  1KX301      0.0347
     16  C08       10.4960  -13.5950   41.4530 C.3   301  1KX301      0.1821
     17  C09       12.8000  -14.1990   42.0840 C.3   301  1KX301      0.0225
     18  C10       15.7260   -9.6630   43.1500 C.2   301  1KX301      0.2341
     19  C11       16.9190  -11.5400   42.6540 C.1   301  1KX301      0.2440
     20  C12       16.5030   -7.4510   43.1380 C.3   301  1KX301      0.0952
     21  C13       17.4200   -6.9080   42.2740 C.3   301  1KX301      0.0234
@<TRIPOS>BOND
     1    16     3    1
     2    16    15    1
     3    17    15    1
     4    17    10    1
     5    15    14    1
     6    21    20    1
     7    21     1    1
     8    13    19    1
     9    19    11    2
    10    19     5    2
    11    11    18    2
    12     5     4    2
    13    20     1    1
    14    20     2    1
    15    18     6    1
    16    18     2    1
    17     4     6    1
    18     4     9    1
    19     6     7    2
    20    10     9    1
    21    10    12    1
    22     9     8    1
    23    14    12    1
    24     7     8    1
