@<TRIPOS>MOLECULE
3vro_III_B_1.pdb
 45 45 0 0 0
SMALL
GASTEIGER

@<TRIPOS>ATOM
      1  N        -39.1870   -9.2230  -15.2000 N.3   417  ASN417     -0.1225
      2  CA       -38.4790   -7.9450  -14.8530 C.3   417  ASN417      0.1785
      3  C        -37.7980   -7.3200  -16.0980 C.2   417  ASN417      0.2597
      4  O        -37.4000   -8.0480  -17.0460 O.2   417  ASN417     -0.2718
      5  CB       -37.4470   -8.2090  -13.7530 C.3   417  ASN417      0.1169
      6  CG       -38.0850   -8.4680  -12.4050 C.2   417  ASN417      0.2627
      7  OD1      -39.0450   -7.7430  -11.9820 O.2   417  ASN417     -0.2716
      8  ND2      -37.5940   -9.5260  -11.7060 N.am  417  ASN417     -0.0877
      9  N        -37.6720   -5.9950  -16.1140 N.am  418  GLU418     -0.1965
     10  CA       -37.1850   -5.2660  -17.3000 C.3   418  GLU418      0.1733
     11  C        -35.6590   -5.1530  -17.3110 C.2   418  GLU418      0.2616
     12  O        -35.0890   -4.3760  -16.5300 O.2   418  GLU418     -0.2715
     13  CB       -37.8000   -3.8430  -17.3140 C.3   418  GLU418      0.0429
     14  CG       -38.8750   -3.5690  -18.3750 C.3   418  GLU418      0.1163
     15  CD       -38.6070   -2.2310  -19.1780 C.2   418  GLU418      0.3649
     16  OE1      -39.5940   -1.5920  -19.6430 O.co2 418  GLU418     -0.2457
     17  OE2      -37.4160   -1.8230  -19.3540 O.co2 418  GLU418     -0.2457
     18  N        -34.9950   -5.9480  -18.1500 N.am  419  TYR419     -0.1960
     19  CA       -33.5590   -5.8290  -18.3330 C.3   419  TYR419      0.1771
     20  C        -33.2770   -5.2270  -19.6950 C.2   419  TYR419      0.2620
     21  O        -33.7850   -5.7220  -20.7050 O.2   419  TYR419     -0.2715
     22  CB       -32.8370   -7.1780  -18.2450 C.3   419  TYR419      0.0574
     23  CG       -32.9540   -7.8470  -16.8930 C.ar  419  TYR419     -0.0198
     24  CD1      -33.7930   -8.9660  -16.6920 C.ar  419  TYR419     -0.0011
     25  CD2      -32.1970   -7.3710  -15.8020 C.ar  419  TYR419     -0.0011
     26  CE1      -33.8810   -9.5810  -15.4180 C.ar  419  TYR419      0.0371
     27  CE2      -32.2460   -8.0020  -14.5730 C.ar  419  TYR419      0.0371
     28  CZ       -33.0920   -9.0980  -14.3550 C.ar  419  TYR419      0.1490
     29  OH       -33.1120   -9.5860  -13.1560 O.3   419  TYR419     -0.3998
     30  P        -33.8970  -10.9060  -12.5870 P.3   419  TYR419      0.5887
     31  O1P      -35.3770  -10.7240  -12.7750 O.3   419  TYR419     -0.1039
     32  O2P      -33.5780  -11.1200  -11.1050 O.3   419  TYR419     -0.1039
     33  O3P      -33.3800  -12.0450  -13.4980 O.2   419  TYR419     -0.2114
     34  N        -32.4530   -4.2060  -19.7560 N.am  420  THR420     -0.1937
     35  CA       -32.2830   -3.5020  -21.0140 C.3   420  THR420      0.2028
     36  C        -30.9500   -3.7880  -21.6310 C.2   420  THR420      0.2642
     37  O        -30.0940   -4.2970  -20.9570 O.2   420  THR420     -0.2714
     38  CB       -32.4580   -1.9980  -20.8050 C.3   420  THR420      0.1808
     39  OG1      -31.7770   -1.6170  -19.6050 O.3   420  THR420     -0.2208
     40  CG2      -33.9300   -1.6480  -20.6770 C.3   420  THR420      0.0379
     41  N        -30.7640   -3.4560  -22.9150 N.am  421  ALA421     -0.1977
     42  CA       -29.4810   -3.6810  -23.6140 C.3   421  ALA421      0.1597
     43  C        -28.3430   -2.7840  -23.0730 C.2   421  ALA421      0.2287
     44  O        -28.5920   -1.6570  -22.6100 O.2   421  ALA421     -0.2864
     45  CB       -29.6400   -3.4790  -25.1510 C.3   421  ALA421      0.0319
@<TRIPOS>BOND
     1    45    42    1
     2    42    43    1
     3    42    41    1
     4    43    44    2
     5    41    36   am
     6    36    35    1
     7    36    37    2
     8    35    38    1
     9    35    34    1
    10    38    40    1
    11    38    39    1
    12    21    20    2
    13    34    20   am
    14    20    19    1
    15    16    15   ar
    16    17    15   ar
    17    15    14    1
    18    14    13    1
    19    19    22    1
    20    19    18    1
    21    22    23    1
    22    18    11   am
    23    13    10    1
    24    11    10    1
    25    11    12    2
    26    10     9    1
    27     4     3    2
    28    23    24   ar
    29    23    25   ar
    30    24    26   ar
    31     9     3   am
    32     3     2    1
    33    25    27   ar
    34    26    28   ar
    35     1     2    1
    36     2     5    1
    37    27    28   ar
    38    28    29    1
    39     5     6    1
    40    33    30    2
    41    29    30    1
    42    31    30    1
    43    30    32    1
    44     6     7    2
    45     6     8   am
