@<TRIPOS>MOLECULE
3vrt_YS2_A_1.pdb
 27 29 0 0 0
SMALL
GASTEIGER

@<TRIPOS>ATOM
      1  O3        10.5150   -5.7840   27.3870 O.3   501  YS2501     -0.2204
      2  C24       11.3990   -4.7380   26.9680 C.3   501  YS2501      0.1821
      3  C23       12.6790   -4.7920   27.7930 C.3   501  YS2501      0.0355
      4  C22       13.0560   -3.4090   28.3090 C.3   501  YS2501      0.0027
      5  C20       12.9010   -2.3580   27.2160 C.3   501  YS2501      0.0001
      6  C21       11.6970   -1.4630   27.4860 C.3   501  YS2501      0.0000
      7  C17       14.1710   -1.5330   27.0690 C.3   501  YS2501      0.0003
      8  C13       13.8780   -0.1120   26.6220 C.3   501  YS2501      0.0034
      9  C18       12.7160   -0.1280   25.6400 C.3   501  YS2501      0.0003
     10  C12       13.6220    0.9070   27.7130 C.3   501  YS2501      0.0006
     11  C11       13.2640    2.2420   27.0510 C.3   501  YS2501      0.0044
     12  C9        14.1790    2.6790   25.8960 C.3   501  YS2501      0.0220
     13  C16       15.1040   -2.1020   26.0000 C.3   501  YS2501      0.0003
     14  C15       15.5780   -0.9280   25.1400 C.3   501  YS2501      0.0040
     15  C14       15.1460    0.3000   25.9240 C.3   501  YS2501      0.0183
     16  C8        14.7900    1.5170   25.1390 C.2   501  YS2501     -0.0446
     17  C7        15.0020    1.5810   23.8180 C.2   501  YS2501     -0.0091
     18  C6        14.6430    2.7870   23.0780 C.2   501  YS2501     -0.0090
     19  C5        14.2220    2.6940   21.8090 C.2   501  YS2501     -0.0385
     20  C4        13.8500    3.9410   21.0430 C.3   501  YS2501      0.0593
     21  C10       14.1190    1.3420   21.1450 C.3   501  YS2501      0.0593
     22  C1        14.8550    1.3740   19.8100 C.3   501  YS2501      0.1767
     23  O1        14.5020    0.2180   19.0430 O.3   501  YS2501     -0.2182
     24  C2        14.4680    2.6120   19.0560 C.2   501  YS2501      0.0160
     25  C28       14.0220    2.5180   17.8180 C.2   501  YS2501     -0.0041
     26  C3        14.5880    3.9570   19.7100 C.3   501  YS2501      0.1767
     27  O2        15.9700    4.2580   19.9330 O.3   501  YS2501     -0.2182
@<TRIPOS>BOND
     1    25    24    2
     2    23    22    1
     3    24    26    1
     4    24    22    1
     5    26    27    1
     6    26    20    1
     7    22    21    1
     8    20    19    1
     9    21    19    1
    10    19    18    2
    11    18    17    1
    12    17    16    2
    13    16    12    1
    14    16    15    1
    15    14    15    1
    16    14    13    1
    17     9     8    1
    18    12    11    1
    19    15     8    1
    20    13     7    1
    21     8     7    1
    22     8    10    1
    23     2     1    1
    24     2     3    1
    25    11    10    1
    26     7     5    1
    27     5     6    1
    28     5     4    1
    29     3     4    1
