@<TRIPOS>MOLECULE
3vru_YS3_A_1.pdb
 29 31 0 0 0
SMALL
GASTEIGER

@<TRIPOS>ATOM
      1  OAH      -11.9620   19.4710   -7.4140 O.3   501  YS3501     -0.2257
      2  CBA      -11.4210   20.5210   -6.6390 C.3   501  YS3501      0.1268
      3  CAC      -10.0270   20.8420   -7.1020 C.3   501  YS3501      0.0329
      4  CAD      -11.3550   20.0000   -5.1770 C.3   501  YS3501      0.0329
      5  CAP      -12.3050   21.7910   -6.8870 C.3   501  YS3501      0.0304
      6  CAM      -13.5710   21.9660   -6.0600 C.3   501  YS3501      0.0025
      7  CAW      -14.5560   22.8230   -6.8340 C.3   501  YS3501      0.0001
      8  CAB      -15.2130   22.0500   -7.9950 C.3   501  YS3501      0.0000
      9  CAZ      -15.6920   23.4790   -6.0040 C.3   501  YS3501      0.0000
     10  CAN      -16.2600   22.6260   -4.8310 C.3   501  YS3501      0.0000
     11  CAQ      -17.0250   23.6570   -3.9660 C.3   501  YS3501      0.0003
     12  CBB      -16.7790   24.9840   -4.6930 C.3   501  YS3501      0.0040
     13  CBC      -15.3950   24.8520   -5.3460 C.3   501  YS3501      0.0003
     14  CAE      -14.1950   24.8090   -4.3840 C.3   501  YS3501      0.0000
     15  CAO      -15.2570   26.0270   -6.3760 C.3   501  YS3501      0.0000
     16  CAK      -15.5410   27.4340   -5.7610 C.3   501  YS3501      0.0003
     17  CAL      -16.8420   27.4790   -4.8990 C.3   501  YS3501      0.0043
     18  CAV      -16.8910   26.2970   -3.9120 C.3   501  YS3501      0.0217
     19  CAJ      -16.9600   26.4270   -2.5000 C.2   501  YS3501     -0.0310
     20  CAI      -16.5560   27.6190   -1.8820 C.2   501  YS3501     -0.0309
     21  CAU      -16.5950   27.8120   -0.5050 C.3   501  YS3501      0.0274
     22  CAS      -16.3630   29.2230    0.0510 C.3   501  YS3501      0.0417
     23  CAR      -16.1530   26.6870    0.4400 C.3   501  YS3501      0.0417
     24  CAX      -16.9160   26.7950    1.7760 C.3   501  YS3501      0.1730
     25  OAF      -16.5560   25.7980    2.6850 O.3   501  YS3501     -0.2185
     26  CAT      -16.5550   28.1410    2.3550 C.2   501  YS3501      0.0153
     27  CAA      -16.0200   28.2940    3.6070 C.2   501  YS3501     -0.0042
     28  CAY      -16.9460   29.3370    1.5010 C.3   501  YS3501      0.1730
     29  OAG      -18.3770   29.2630    1.4850 O.3   501  YS3501     -0.2185
@<TRIPOS>BOND
     1     8     7    1
     2     1     2    1
     3     3     2    1
     4     5     2    1
     5     5     6    1
     6     7     6    1
     7     7     9    1
     8     2     4    1
     9    15    16    1
    10    15    13    1
    11     9    13    1
    12     9    10    1
    13    16    17    1
    14    13    12    1
    15    13    14    1
    16    17    18    1
    17    10    11    1
    18    12    11    1
    19    12    18    1
    20    18    19    1
    21    19    20    2
    22    20    21    1
    23    21    22    1
    24    21    23    1
    25    22    28    1
    26    23    24    1
    27    29    28    1
    28    28    26    1
    29    24    26    1
    30    24    25    1
    31    26    27    2
