@<TRIPOS>MOLECULE
3vrv_YSD_A_1.pdb
 31 33 0 0 0
SMALL
GASTEIGER

@<TRIPOS>ATOM
      1  CAB       -9.6420   22.5300   -6.9780 C.3   501  YSD501      0.0026
      2  CAK      -10.1650   21.1290   -7.5020 C.3   501  YSD501      0.0304
      3  CBD      -11.5060   20.8100   -6.8370 C.3   501  YSD501      0.1266
      4  CAL      -11.3490   20.5300   -5.3350 C.3   501  YSD501      0.0304
      5  CAC      -10.2790   19.4850   -5.0740 C.3   501  YSD501      0.0026
      6  OAH      -12.0880   19.6180   -7.4050 O.3   501  YSD501     -0.2257
      7  CAS      -12.3910   22.0500   -7.0570 C.3   501  YSD501      0.0304
      8  CAP      -13.6460   22.0690   -6.1880 C.3   501  YSD501      0.0025
      9  CAY      -14.7290   22.8540   -6.9630 C.3   501  YSD501      0.0001
     10  CAD      -15.4410   21.9700   -7.9930 C.3   501  YSD501      0.0000
     11  CBC      -15.7930   23.6150   -6.1420 C.3   501  YSD501      0.0003
     12  CAQ      -16.3420   22.8420   -4.9190 C.3   501  YSD501      0.0003
     13  CAO      -16.9510   23.9150   -4.0030 C.3   501  YSD501      0.0040
     14  CBB      -16.7910   25.2040   -4.7700 C.3   501  YSD501      0.0183
     15  CBE      -15.4590   25.0220   -5.5280 C.3   501  YSD501      0.0034
     16  CAE      -14.2360   25.0060   -4.5880 C.3   501  YSD501      0.0003
     17  CAR      -15.3540   26.1890   -6.5660 C.3   501  YSD501      0.0006
     18  CAM      -15.5280   27.5990   -5.9110 C.3   501  YSD501      0.0044
     19  CAN      -16.7200   27.7260   -4.9170 C.3   501  YSD501      0.0220
     20  CAX      -16.7520   26.4860   -3.9780 C.2   501  YSD501     -0.0446
     21  CAJ      -16.8710   26.6120   -2.5580 C.2   501  YSD501     -0.0091
     22  CAI      -16.7380   27.9140   -1.9530 C.2   501  YSD501     -0.0090
     23  CAW      -16.5510   28.0340   -0.5500 C.2   501  YSD501     -0.0392
     24  CAU      -16.3210   26.7800    0.3200 C.3   501  YSD501      0.0550
     25  CAT      -16.4270   29.4320    0.0440 C.3   501  YSD501      0.0550
     26  CAZ      -17.0520   29.5850    1.4200 C.3   501  YSD501      0.1584
     27  OAF      -18.4780   29.5400    1.3270 O.3   501  YSD501     -0.2227
     28  CAV      -16.5940   28.4090    2.2870 C.3   501  YSD501      0.0615
     29  CAA      -15.8950   28.6150    3.4610 C.3   501  YSD501      0.0053
     30  CBA      -16.9600   27.0200    1.7350 C.3   501  YSD501      0.1584
     31  OAG      -16.5060   26.1090    2.6320 O.3   501  YSD501     -0.2227
@<TRIPOS>BOND
     1    10     9    1
     2     2     1    1
     3     2     3    1
     4     6     3    1
     5     7     3    1
     6     7     8    1
     7     9     8    1
     8     9    11    1
     9     3     4    1
    10    17    18    1
    11    17    15    1
    12    11    15    1
    13    11    12    1
    14    18    19    1
    15    15    14    1
    16    15    16    1
    17     4     5    1
    18    12    13    1
    19    19    20    1
    20    14    13    1
    21    14    20    1
    22    20    21    2
    23    21    22    1
    24    22    23    2
    25    23    25    1
    26    23    24    1
    27    25    26    1
    28    24    30    1
    29    27    26    1
    30    26    28    1
    31    30    28    1
    32    30    31    1
    33    28    29    1
