@<TRIPOS>MOLECULE
3vrw_YS5_A_1.pdb
 35 37 0 0 0
SMALL
GASTEIGER

@<TRIPOS>ATOM
      1  CAV      -16.5250   29.6780    0.2300 C.3   501  YS5501      0.0374
      2  CBB      -17.0580   29.7140    1.6800 C.3   501  YS5501      0.1547
      3  OAG      -18.4610   29.8360    1.6620 O.3   501  YS5501     -0.2231
      4  CAY      -16.6680   28.5780    2.3940 C.3   501  YS5501      0.0608
      5  CAA      -16.0210   28.7190    3.6310 C.3   501  YS5501      0.0052
      6  CBC      -16.8740   27.3260    1.8350 C.3   501  YS5501      0.1547
      7  OAH      -16.3680   26.3250    2.7020 O.3   501  YS5501     -0.2231
      8  CAW      -16.1550   27.2480    0.4500 C.3   501  YS5501      0.0374
      9  CAZ      -16.4620   28.3970   -0.3480 C.3   501  YS5501      0.0267
     10  CAJ      -16.8280   28.2850   -1.6890 C.2   501  YS5501     -0.0309
     11  CAK      -16.2930   27.0360   -2.4250 C.2   501  YS5501     -0.0310
     12  CBA      -16.6050   26.8300   -3.7790 C.3   501  YS5501      0.0217
     13  CAQ      -16.7910   27.9200   -4.6130 C.3   501  YS5501      0.0043
     14  CAP      -15.6380   28.0100   -5.6040 C.3   501  YS5501      0.0003
     15  CAT      -15.2180   26.6400   -6.2040 C.3   501  YS5501      0.0000
     16  CBI      -15.1000   25.5780   -5.1480 C.3   501  YS5501      0.0003
     17  CAF      -13.8870   25.8920   -4.1980 C.3   501  YS5501      0.0000
     18  CBG      -16.4550   25.5880   -4.4750 C.3   501  YS5501      0.0040
     19  CAU      -16.5070   24.2850   -3.6850 C.3   501  YS5501      0.0003
     20  CAS      -15.5660   23.3010   -4.4870 C.3   501  YS5501      0.0000
     21  CBF      -15.0380   24.1140   -5.6900 C.3   501  YS5501      0.0000
     22  CBD      -13.6200   23.6140   -6.1570 C.3   501  YS5501      0.0001
     23  CAE      -13.1000   24.4760   -7.3190 C.3   501  YS5501      0.0000
     24  CBE      -13.5890   22.1300   -6.6340 C.3   501  YS5501      0.0024
     25  CAX      -12.1300   21.6790   -6.9640 C.3   501  YS5501      0.0304
     26  CBH      -11.7340   20.2500   -6.5280 C.3   501  YS5501      0.1266
     27  CAN      -10.2080   20.1110   -6.5340 C.3   501  YS5501      0.0304
     28  CAD       -9.5530   21.4420   -6.1500 C.3   501  YS5501      0.0026
     29  OAI      -12.1730   19.2780   -7.4570 O.3   501  YS5501     -0.2257
     30  CAM      -12.3200   19.9320   -5.1360 C.3   501  YS5501      0.0304
     31  CAC      -11.7910   18.5850   -4.6030 C.3   501  YS5501      0.0026
     32  CAR      -14.4220   21.9400   -7.8930 C.3   501  YS5501      0.0001
     33  CAO      -15.8900   22.0360   -7.5260 C.3   501  YS5501      0.0000
     34  CAL      -16.7760   21.3960   -8.6000 C.3   501  YS5501      0.0000
     35  CAB      -17.8020   20.5860   -7.8100 C.3   501  YS5501      0.0000
@<TRIPOS>BOND
     1    34    35    1
     2    34    33    1
     3    32    33    1
     4    32    24    1
     5    29    26    1
     6    23    22    1
     7    25    24    1
     8    25    26    1
     9    24    22    1
    10    27    26    1
    11    27    28    1
    12    26    30    1
    13    15    14    1
    14    15    16    1
    15    22    21    1
    16    21    16    1
    17    21    20    1
    18    14    13    1
    19    16    18    1
    20    16    17    1
    21    30    31    1
    22    13    12    1
    23    20    19    1
    24    18    12    1
    25    18    19    1
    26    12    11    1
    27    11    10    2
    28    10     9    1
    29     9     1    1
    30     9     8    1
    31     1     2    1
    32     8     6    1
    33     3     2    1
    34     2     4    1
    35     6     4    1
    36     6     7    1
    37     4     5    1
