@<TRIPOS>MOLECULE
3vsa_PLP_A_1.pdb
 15 15 0 0 0
SMALL
GASTEIGER

@<TRIPOS>ATOM
      1  N1        37.0040    7.9070   -4.0930 N.ar  401  PLP401     -0.2452
      2  C2        36.4380    6.6490   -4.1120 C.ar  401  PLP401      0.0978
      3  C2A       35.6550    6.1580   -5.3210 C.3   401  PLP401      0.0555
      4  C3        36.6170    5.7850   -3.0520 C.ar  401  PLP401      0.2049
      5  O3        36.0120    4.5380   -3.0680 O.3   401  PLP401     -0.2857
      6  C4        37.3700    6.2180   -1.9540 C.ar  401  PLP401      0.0182
      7  C4A       37.5430    5.3660   -0.7310 C.3   401  PLP401      0.0342
      8  C5        37.9440    7.4760   -1.9150 C.ar  401  PLP401      0.0261
      9  C6        37.7270    8.2760   -3.0310 C.ar  401  PLP401      0.0965
     10  C5A       38.7460    8.0290   -0.7340 C.3   401  PLP401      0.1815
     11  O4P       39.8810    7.1480   -0.1540 O.3   401  PLP401     -0.2653
     12  P         39.7760    7.3360    1.3950 P.3   401  PLP401      0.5329
     13  O1P       41.1310    6.6140    1.4640 O.2   401  PLP401     -0.2224
     14  O2P       40.3590    8.6890    2.0540 O.3   401  PLP401     -0.1145
     15  O3P       39.0820    6.1630    2.1850 O.3   401  PLP401     -0.1145
@<TRIPOS>BOND
     1     3     2    1
     2     2     1   ar
     3     2     4   ar
     4     1     9   ar
     5     5     4    1
     6     4     6   ar
     7     9     8   ar
     8     6     8   ar
     9     6     7    1
    10     8    10    1
    11    10    11    1
    12    11    12    1
    13    12    13    2
    14    12    14    1
    15    12    15    1
