@<TRIPOS>MOLECULE
3vsc_PLP_A_1.pdb
 15 15 0 0 0
SMALL
GASTEIGER

@<TRIPOS>ATOM
      1  N1         0.1280  -45.2770   -4.0140 N.ar  401  PLP401     -0.2452
      2  C2         0.8270  -44.1260   -4.0190 C.ar  401  PLP401      0.0978
      3  C2A        1.6040  -43.7530   -5.2500 C.3   401  PLP401      0.0555
      4  C3         0.8590  -43.2730   -2.9230 C.ar  401  PLP401      0.2049
      5  O3         1.6250  -42.1030   -2.9850 O.3   401  PLP401     -0.2857
      6  C4         0.1180  -43.6860   -1.7870 C.ar  401  PLP401      0.0182
      7  C4A        0.0640  -42.8660   -0.4890 C.3   401  PLP401      0.0342
      8  C5        -0.5900  -44.8680   -1.7970 C.ar  401  PLP401      0.0261
      9  C6        -0.5290  -45.6390   -2.9440 C.ar  401  PLP401      0.0965
     10  C5A       -1.4140  -45.4170   -0.6240 C.3   401  PLP401      0.1815
     11  O4P       -2.4900  -44.4760   -0.0380 O.3   401  PLP401     -0.2653
     12  P         -2.4110  -44.4930    1.5410 P.3   401  PLP401      0.5329
     13  O1P       -3.8040  -43.8940    1.6000 O.2   401  PLP401     -0.2224
     14  O2P       -2.9760  -45.9040    2.1280 O.3   401  PLP401     -0.1145
     15  O3P       -1.8420  -43.3300    2.3380 O.3   401  PLP401     -0.1145
@<TRIPOS>BOND
     1     3     2    1
     2     2     1   ar
     3     2     4   ar
     4     1     9   ar
     5     5     4    1
     6     9     8   ar
     7     4     6   ar
     8     8     6   ar
     9     8    10    1
    10     6     7    1
    11    10    11    1
    12    11    12    1
    13    12    13    2
    14    12    14    1
    15    12    15    1
