@<TRIPOS>MOLECULE
3vsc_SEP_A_1.pdb
 11 10 0 0 0
SMALL
GASTEIGER

@<TRIPOS>ATOM
      1  N          1.3780  -42.1320   -0.3130 N.3   402  SEP402     -0.1181
      2  CA         1.8300  -41.4920    0.9710 C.3   402  SEP402      0.2242
      3  CB         2.3750  -42.5620    1.9830 C.3   402  SEP402      0.1842
      4  OG         3.6620  -43.0950    1.7170 O.3   402  SEP402     -0.2681
      5  C          2.8130  -40.4210    0.6080 C.2   402  SEP402      0.3844
      6  O          3.6340  -40.0350    1.4050 O.co2 402  SEP402     -0.2440
      7  OXT        2.7260  -39.8910   -0.4910 O.co2 402  SEP402     -0.2440
      8  P          3.9160  -44.3820    2.7810 P.3   402  SEP402      0.5327
      9  O1P        2.4090  -44.5900    3.2680 O.3   402  SEP402     -0.1145
     10  O2P        4.5400  -45.6910    2.0930 O.2   402  SEP402     -0.2224
     11  O3P        4.9220  -44.1100    4.0130 O.3   402  SEP402     -0.1145
@<TRIPOS>BOND
     1     7     5   ar
     2     1     2    1
     3     5     2    1
     4     5     6   ar
     5     2     3    1
     6     4     3    1
     7     4     8    1
     8    10     8    2
     9     8     9    1
    10     8    11    1
