@<TRIPOS>MOLECULE
3vsd_PLP_A_1.pdb
 15 15 0 0 0
SMALL
GASTEIGER

@<TRIPOS>ATOM
      1  N1        45.8120    0.2420    3.6320 N.ar  401  PLP401     -0.2452
      2  C2        44.6620   -0.4410    3.7230 C.ar  401  PLP401      0.0978
      3  C2A       44.3860   -1.2130    5.0370 C.3   401  PLP401      0.0555
      4  C3        43.7380   -0.4310    2.6480 C.ar  401  PLP401      0.2049
      5  O3        42.5680   -1.1540    2.7600 O.3   401  PLP401     -0.2857
      6  C4        44.0750    0.2950    1.4750 C.ar  401  PLP401      0.0182
      7  C4A       43.1680    0.4080    0.2370 C.3   401  PLP401      0.0342
      8  C5        45.2840    0.9840    1.4280 C.ar  401  PLP401      0.0261
      9  C6        46.1040    0.9160    2.5470 C.ar  401  PLP401      0.0965
     10  C5A       45.7910    1.8020    0.2510 C.3   401  PLP401      0.1815
     11  O4P       44.9940    2.9800   -0.1400 O.3   401  PLP401     -0.2653
     12  P         44.8910    3.1820   -1.7650 P.3   401  PLP401      0.5329
     13  O1P       44.3000    1.9350   -2.3860 O.2   401  PLP401     -0.2224
     14  O2P       46.4370    3.3260   -2.3480 O.3   401  PLP401     -0.1145
     15  O3P       44.2390    4.5940   -2.0470 O.3   401  PLP401     -0.1145
@<TRIPOS>BOND
     1    13    12    2
     2    14    12    1
     3    15    12    1
     4    12    11    1
     5    11    10    1
     6     7     6    1
     7    10     8    1
     8     8     6   ar
     9     8     9   ar
    10     6     4   ar
    11     9     1   ar
    12     4     5    1
    13     4     2   ar
    14     1     2   ar
    15     2     3    1
