@<TRIPOS>MOLECULE
3vsd_OAS_A_1.pdb
 10 9 0 0 0
SMALL
GASTEIGER

@<TRIPOS>ATOM
      1  N         42.5280   -1.2040    0.1160 N.3   402  OAS402     -0.1168
      2  CA        41.7930   -1.3610   -1.1190 C.3   402  OAS402      0.2376
      3  CB        42.7610   -1.7230   -2.2610 C.3   402  OAS402      0.2388
      4  OG        43.5050   -2.9530   -1.9640 O.3   402  OAS402     -0.4463
      5  C         40.7760   -2.4610   -0.8450 C.2   402  OAS402      0.3856
      6  O         40.4270   -3.1660   -1.7650 O.co2 402  OAS402     -0.2439
      7  C2A       45.4590   -4.3250   -2.8100 C.3   402  OAS402      0.1212
      8  C1A       44.6000   -3.0450   -2.8200 C.2   402  OAS402      0.3176
      9  OAC       44.9490   -2.1350   -3.5520 O.2   402  OAS402     -0.2501
     10  OXT       40.3980   -2.5650    0.3060 O.co2 402  OAS402     -0.2439
@<TRIPOS>BOND
     1     9     8    2
     2     8     7    1
     3     8     4    1
     4     3     4    1
     5     3     2    1
     6     6     5   ar
     7     2     5    1
     8     2     1    1
     9     5    10   ar
