@<TRIPOS>MOLECULE
3vsi_4NC_B_1.pdb
 11 11 0 0 0
SMALL
GASTEIGER

@<TRIPOS>ATOM
      1  C1       -51.5890  -17.5170   36.5480 C.ar  402  4NC402      0.2344
      2  C2       -51.8960  -16.4160   35.6120 C.ar  402  4NC402      0.2359
      3  C3       -52.5560  -15.2920   36.0870 C.ar  402  4NC402      0.0694
      4  C4       -52.9160  -15.2150   37.4370 C.ar  402  4NC402      0.1463
      5  C5       -52.6220  -16.2550   38.3220 C.ar  402  4NC402      0.0276
      6  C6       -51.9680  -17.4010   37.8820 C.ar  402  4NC402      0.0471
      7  O7       -50.9540  -18.6250   36.0900 O.3   402  4NC402     -0.2831
      8  O8       -51.5500  -16.5350   34.3070 O.3   402  4NC402     -0.2831
      9  N9       -53.5510  -14.0620   37.9190 N.pl3 402  4NC402      0.0578
     10  O10      -53.8950  -14.0000   39.0900 O.2   402  4NC402     -0.1261
     11  O11      -53.7400  -13.1030   37.1860 O.2   402  4NC402     -0.1261
@<TRIPOS>BOND
     1     8     2    1
     2     2     3   ar
     3     2     1   ar
     4     3     4   ar
     5     7     1    1
     6     1     6   ar
     7    11     9    2
     8     4     9    1
     9     4     5   ar
    10     6     5   ar
    11     9    10    2
