@<TRIPOS>MOLECULE
3vsj_2XP_B_1.pdb
 10 9 0 0 0
SMALL
GASTEIGER

@<TRIPOS>ATOM
      1  O3       101.6280   57.8230  -16.3240 O.co2 402  2XP402     -0.2388
      2  C1       100.9120   57.3270  -15.4280 C.2   402  2XP402      0.4068
      3  O2        99.6640   57.4210  -15.4520 O.co2 402  2XP402     -0.2388
      4  C2       101.5200   56.5000  -14.3990 C.2   402  2XP402      0.1822
      5  N        102.1450   55.4940  -14.8370 N.2   402  2XP402     -0.1410
      6  C3       101.3390   56.6190  -12.9290 C.2   402  2XP402      0.0278
      7  C4       100.8380   57.6050  -12.1590 C.2   402  2XP402      0.0052
      8  C5       100.1710   58.8890  -12.4360 C.2   402  2XP402      0.0454
      9  C6       100.1670   59.6190  -13.5410 C.2   402  2XP402      0.2343
     10  O1       100.7570   59.2470  -14.6560 O.2   402  2XP402     -0.2831
@<TRIPOS>BOND
     1     1     2   ar
     2     3     2   ar
     3     2     4    1
     4     5     4    2
     5    10     9    1
     6     4     6    1
     7     9     8    2
     8     6     7    2
     9     8     7    1
