@<TRIPOS>MOLECULE
3vsl_CEF_A_1.pdb
 26 27 0 0 0
SMALL
GASTEIGER

@<TRIPOS>ATOM
      1  S1        17.3030  -50.5190   24.8350 S.3   701  CEF701     -0.1214
      2  C2        16.4100  -49.2790   25.3420 C.3   701  CEF701      0.0609
      3  C3        15.2100  -49.0950   24.5140 C.3   701  CEF701      0.0379
      4  C3'       14.3380  -50.2690   24.6190 C.3   701  CEF701      0.0029
      5  C4        15.5400  -48.8590   22.9410 C.3   701  CEF701      0.1773
      6  C4'       15.8200  -47.5390   22.5880 C.2   701  CEF701      0.3803
      7  O4A       16.9790  -47.0900   22.7770 O.co2 701  CEF701     -0.2441
      8  O4B       14.9620  -46.7750   22.0570 O.co2 701  CEF701     -0.2441
      9  N5        16.6580  -49.8390   22.3590 N.3   701  CEF701     -0.1964
     10  C6        17.6990  -50.4100   23.2500 C.3   701  CEF701      0.1479
     11  C7        19.0190  -49.5920   23.1160 C.3   701  CEF701      0.1856
     12  C8        19.6900  -49.8300   21.8140 C.2   701  CEF701      0.2311
     13  O9        20.8820  -49.8640   21.5880 O.2   701  CEF701     -0.2863
     14  N10       19.9050  -49.8340   24.2410 N.am  701  CEF701     -0.1955
     15  C11       20.0930  -48.6840   25.1180 C.2   701  CEF701      0.2616
     16  O12       19.4920  -47.6540   24.8370 O.2   701  CEF701     -0.2717
     17  C13       21.0050  -48.7170   26.3570 C.3   701  CEF701      0.1971
     18  N16       22.3540  -48.9580   25.7990 N.4   701  CEF701     -0.0742
     19  O17       22.3010  -49.9520   24.9410 O.3   701  CEF701     -0.2630
     20  C18       23.5090  -50.5430   24.5460 C.3   701  CEF701      0.2025
     21  C14       21.0130  -47.5290   26.8740 C.3   701  CEF701      0.1133
     22  C15       19.6330  -47.2950   27.8640 C.3   701  CEF701      0.0797
     23  S16       20.1950  -45.9610   28.6920 S.3   701  CEF701     -0.1032
     24  C17       21.7840  -46.2930   29.0440 C.3   701  CEF701      0.2131
     25  N18       22.4880  -45.2450   28.9990 N.3   701  CEF701     -0.1012
     26  N19       22.2450  -47.3370   27.7510 N.3   701  CEF701     -0.1900
@<TRIPOS>BOND
     1    13    12    2
     2    12    11    1
     3     8     6   ar
     4     9     5    1
     5     9    10    1
     6     6     7   ar
     7     6     5    1
     8     5     3    1
     9    11    10    1
    10    11    14    1
    11    10     1    1
    12    14    15   am
    13     3     4    1
    14     3     2    1
    15    20    19    1
    16     1     2    1
    17    16    15    2
    18    19    18    1
    19    15    17    1
    20    18    17    1
    21    17    21    1
    22    21    26    1
    23    21    22    1
    24    26    24    1
    25    22    23    1
    26    23    24    1
    27    25    24    1
