@<TRIPOS>MOLECULE
3vss_FRU_A_1.pdb
 12 12 0 0 0
SMALL
GASTEIGER

@<TRIPOS>ATOM
      1  C1         8.2980   -0.1410   14.9790 C.3   601  FRU601      0.2434
      2  C2         7.6850    1.2340   15.2560 C.3   601  FRU601      0.2807
      3  C3         8.5510    2.1230   16.1610 C.3   601  FRU601      0.2409
      4  C4         7.5110    3.0330   16.8100 C.3   601  FRU601      0.2168
      5  C5         6.2520    2.1650   16.8590 C.3   601  FRU601      0.1836
      6  C6         4.9870    2.8640   16.3850 C.3   601  FRU601      0.2142
      7  O1         7.2610   -1.1450   14.9000 O.3   601  FRU601     -0.2148
      8  O2         7.3860    1.8790   14.0020 O.3   601  FRU601     -0.1896
      9  O3         9.6040    2.8580   15.4890 O.3   601  FRU601     -0.2149
     10  O4         7.9050    3.5260   18.1150 O.3   601  FRU601     -0.2175
     11  O5         6.4670    1.0520   15.9880 O.3   601  FRU601     -0.3253
     12  O6         3.9190    1.9070   16.4250 O.3   601  FRU601     -0.2176
@<TRIPOS>BOND
     1     8     2    1
     2     7     1    1
     3     1     2    1
     4     2    11    1
     5     2     3    1
     6     9     3    1
     7    11     5    1
     8     3     4    1
     9     6    12    1
    10     6     5    1
    11     4     5    1
    12     4    10    1
