@<TRIPOS>MOLECULE
3vsu_BXP_A_1.pdb
 19 20 0 0 0
SMALL
GASTEIGER

@<TRIPOS>ATOM
      1  O4B       25.4340   -4.9900   62.8550 O.3   701  BXP701     -0.2176
      2  C4B       24.2410   -5.3370   62.1350 C.3   701  BXP701      0.2143
      3  C3B       24.0980   -6.8530   62.0980 C.3   701  BXP701      0.2198
      4  O3B       24.2370   -7.2670   60.7300 O.3   701  BXP701     -0.2174
      5  C2B       22.7550   -7.3540   62.6290 C.3   701  BXP701      0.2406
      6  O2B       22.8050   -8.7760   62.8460 O.3   701  BXP701     -0.2149
      7  C5B       23.0650   -4.7330   62.8780 C.3   701  BXP701      0.1803
      8  O5B       23.0080   -5.4420   64.1200 O.3   701  BXP701     -0.3257
      9  C1B       22.2750   -6.6540   63.8980 C.3   701  BXP701      0.2695
     10  O4A       20.9140   -6.2110   63.7660 O.3   701  BXP701     -0.3257
     11  C4A       19.9070   -7.1580   64.1470 C.3   701  BXP701      0.1803
     12  C3A       18.9860   -6.4960   65.1610 C.3   701  BXP701      0.2168
     13  O3A       19.0880   -7.1590   66.4280 O.3   701  BXP701     -0.2175
     14  C5A       19.0870   -7.5090   62.9130 C.3   701  BXP701      0.1771
     15  O5A       18.4160   -6.3340   62.4260 O.3   701  BXP701     -0.3239
     16  C1A       17.4150   -5.8680   63.3470 C.3   701  BXP701      0.3023
     17  C2A       17.5460   -6.5850   64.6850 C.3   701  BXP701      0.2433
     18  O2A       16.6980   -5.9760   65.6700 O.3   701  BXP701     -0.2148
     19  O1A       16.1070   -6.0730   62.7870 O.3   701  BXP701     -0.1869
@<TRIPOS>BOND
     1     4     3    1
     2     3     2    1
     3     3     5    1
     4     2     1    1
     5     2     7    1
     6    15    14    1
     7    15    16    1
     8     5     6    1
     9     5     9    1
    10    19    16    1
    11     7     8    1
    12    14    11    1
    13    16    17    1
    14    10     9    1
    15    10    11    1
    16     9     8    1
    17    11    12    1
    18    17    12    1
    19    17    18    1
    20    12    13    1
