@<TRIPOS>MOLECULE
3vsv_XYS_A_1.pdb
 10 10 0 0 0
SMALL
GASTEIGER

@<TRIPOS>ATOM
      1  C1        19.2220   -1.9780   84.9130 C.3   708  XYS708      0.3024
      2  C2        19.2110   -3.4360   85.4310 C.3   708  XYS708      0.2434
      3  C3        18.1470   -4.2710   84.7090 C.3   708  XYS708      0.2199
      4  C4        16.7810   -3.5460   84.8060 C.3   708  XYS708      0.2143
      5  C5        16.9400   -2.1040   84.2750 C.3   708  XYS708      0.1804
      6  O1        19.5990   -1.9260   83.5300 O.3   708  XYS708     -0.1869
      7  O2        20.4770   -4.0540   85.2130 O.3   708  XYS708     -0.2148
      8  O3        18.0860   -5.5390   85.3630 O.3   708  XYS708     -0.2174
      9  O4        15.8130   -4.2200   84.0020 O.3   708  XYS708     -0.2176
     10  O5        17.9080   -1.3820   85.0680 O.3   708  XYS708     -0.3237
@<TRIPOS>BOND
     1     6     1    1
     2     9     4    1
     3     5     4    1
     4     5    10    1
     5     3     4    1
     6     3     8    1
     7     3     2    1
     8     1    10    1
     9     1     2    1
    10     7     2    1
