@<TRIPOS>MOLECULE
3vsv_XYP_A_1.pdb
 10 10 0 0 0
SMALL
GASTEIGER

@<TRIPOS>ATOM
      1  O4A       20.9540   -6.8500   63.9400 O.3   701  XYP701     -0.1869
      2  C1B       22.4220   -6.7270   63.6970 C.3   701  XYP701      0.3024
      3  C2B       22.8140   -7.3880   62.3630 C.3   701  XYP701      0.2434
      4  C3B       24.1910   -6.8440   61.7540 C.3   701  XYP701      0.2199
      5  C4B       24.2710   -5.2890   61.8710 C.3   701  XYP701      0.2143
      6  C5B       22.9740   -4.7920   62.4890 C.3   701  XYP701      0.1804
      7  O2B       22.8800   -8.8190   62.6120 O.3   701  XYP701     -0.2148
      8  O3B       24.1690   -7.2330   60.3780 O.3   701  XYP701     -0.2174
      9  O4B       25.3400   -4.8650   62.7360 O.3   701  XYP701     -0.2176
     10  O5B       22.8110   -5.3750   63.7840 O.3   701  XYP701     -0.3237
@<TRIPOS>BOND
     1     8     4    1
     2     4     5    1
     3     4     3    1
     4     5     6    1
     5     5     9    1
     6     3     7    1
     7     3     2    1
     8     6    10    1
     9     2    10    1
    10     2     1    1
