@<TRIPOS>MOLECULE
3vsw_R31_A_1.pdb
 39 40 0 0 0
SMALL
GASTEIGER

@<TRIPOS>ATOM
      1  C1       176.5800  198.7880   97.1730 C.3   402  R31402      0.1591
      2  N2       177.8080  199.3830   96.6860 N.3   402  R31402     -0.2622
      3  C3       178.3310  198.9100   95.4420 C.3   402  R31402      0.0946
      4  C4       177.2820  198.9760   94.3060 C.3   402  R31402      0.1156
      5  N5       175.9920  198.3630   94.7180 N.am  402  R31402     -0.2534
      6  C6       175.5790  198.4560   96.0430 C.2   402  R31402      0.2458
      7  C7       175.2060  197.7210   93.7900 C.ar  402  R31402      0.0881
      8  C8       174.4500  198.4750   92.8700 C.ar  402  R31402      0.1521
      9  C9       173.5990  197.8190   91.9430 C.ar  402  R31402      0.0382
     10  C10      173.4130  196.4010   92.0510 C.ar  402  R31402      0.0032
     11  C11      174.2030  195.6480   92.9510 C.ar  402  R31402      0.0015
     12  C12      175.1480  196.3080   93.7650 C.ar  402  R31402      0.0180
     13  O13      174.5050  199.8160   92.8560 O.3   402  R31402     -0.4741
     14  C14      174.8110  200.6770   91.8000 C.3   402  R31402      0.2081
     15  C15      175.4900  201.9500   92.3220 C.3   402  R31402      0.0793
     16  C16      175.6610  202.9240   91.1530 C.3   402  R31402      0.1461
     17  O17      176.9660  202.8150   90.6200 O.3   402  R31402     -0.3510
     18  C18      177.4200  204.0990   90.2380 C.3   402  R31402      0.1741
     19  C19      178.7000  199.9980   97.6170 C.3   402  R31402      0.0943
     20  C20      178.1020  201.1680   98.4370 C.3   402  R31402      0.1379
     21  C21      178.8050  201.3100   99.8230 C.3   402  R31402      0.1713
     22  N22      178.2790  202.4010   97.6550 N.3   402  R31402     -0.1287
     23  C23      178.0570  202.2010  100.8490 C.3   402  R31402      0.0436
     24  O24      180.1060  201.8390   99.6330 O.3   402  R31402     -0.2215
     25  C25      178.7280  202.6910  102.1670 C.3   402  R31402      0.0808
     26  C26      179.1150  201.4750  103.0320 C.2   402  R31402      0.2410
     27  N27      180.3890  201.1080  103.2090 N.am  402  R31402     -0.2049
     28  O28      178.2230  200.8050  103.5710 O.2   402  R31402     -0.2734
     29  C29      177.8910  203.7810  102.9520 C.3   402  R31402      0.0087
     30  C30      180.7950  199.7620  103.6290 C.3   402  R31402      0.1237
     31  C31      181.4990  199.6380  104.9890 C.3   402  R31402      0.0921
     32  C32      182.5280  200.8040  105.0580 C.2   402  R31402      0.2615
     33  N33      183.6160  200.7610  104.2380 N.am  402  R31402     -0.0878
     34  C34      180.4810  199.7660  106.1580 C.3   402  R31402      0.0110
     35  C35      182.2980  198.3020  105.1040 C.3   402  R31402      0.0110
     36  O36      182.3520  201.7530  105.8150 O.2   402  R31402     -0.2716
     37  C37      178.5950  204.3260  104.2460 C.3   402  R31402      0.0005
     38  C38      177.3000  204.9630  102.1520 C.3   402  R31402      0.0005
     39  O39      174.4290  198.2580   96.3830 O.2   402  R31402     -0.2730
@<TRIPOS>BOND
     1    18    17    1
     2    17    16    1
     3    16    15    1
     4    14    15    1
     5    14    13    1
     6     9    10   ar
     7     9     8   ar
     8    10    11   ar
     9    13     8    1
    10     8     7   ar
    11    11    12   ar
    12    12     7   ar
    13     7     5    1
    14     4     5    1
    15     4     3    1
    16     5     6   am
    17     3     2    1
    18     6    39    2
    19     6     1    1
    20     2     1    1
    21     2    19    1
    22    19    20    1
    23    22    20    1
    24    20    21    1
    25    24    21    1
    26    21    23    1
    27    23    25    1
    28    38    29    1
    29    25    29    1
    30    25    26    1
    31    29    37    1
    32    26    27   am
    33    26    28    2
    34    27    30    1
    35    30    31    1
    36    33    32   am
    37    31    32    1
    38    31    35    1
    39    31    34    1
    40    32    36    2
