@<TRIPOS>MOLECULE
3vsx_R32_A_1.pdb
 36 37 0 0 0
SMALL
GASTEIGER

@<TRIPOS>ATOM
      1  C1       -57.8350 -161.0780 -136.4860 C.ar  402  R32402      0.0158
      2  C2       -58.6460 -160.1120 -137.0690 C.ar  402  R32402      0.0644
      3  C3       -58.4240 -158.7820 -136.7620 C.ar  402  R32402      0.0713
      4  C4       -57.4240 -158.3830 -135.8940 C.ar  402  R32402      0.0127
      5  C5       -56.6160 -159.3520 -135.3140 C.ar  402  R32402      0.0009
      6  C6       -56.8220 -160.6960 -135.6090 C.ar  402  R32402      0.0013
      7  N7       -59.6490 -160.5270 -137.9380 N.am  402  R32402     -0.2554
      8 CL1       -59.4290 -157.5770 -137.4820 Cl    402  R32402     -0.0809
      9  C9       -59.2840 -160.9690 -139.2940 C.3   402  R32402      0.1128
     10  C10      -60.3800 -160.7780 -140.3220 C.3   402  R32402      0.0645
     11  N11      -61.5950 -161.3790 -139.7860 N.3   402  R32402     -0.2646
     12  C12      -62.0480 -160.9650 -138.4740 C.3   402  R32402      0.1590
     13  C13      -60.9550 -160.5090 -137.4980 C.2   402  R32402      0.2458
     14  O14      -61.2720 -160.1480 -136.3770 O.2   402  R32402     -0.2730
     15  C15      -59.9840 -161.4680 -141.6310 C.3   402  R32402      0.0178
     16  C16      -60.5950 -159.2860 -140.5820 C.3   402  R32402      0.0178
     17  C17      -62.6280 -161.8180 -140.7110 C.3   402  R32402      0.0942
     18  C18      -63.4310 -162.9940 -140.1430 C.3   402  R32402      0.1379
     19  C19      -64.8040 -163.1380 -140.8010 C.3   402  R32402      0.1713
     20  C20      -65.7890 -164.0050 -139.9990 C.3   402  R32402      0.0436
     21  C21      -67.1100 -164.2380 -140.7550 C.3   402  R32402      0.0808
     22  C22      -67.8180 -162.8900 -140.9850 C.2   402  R32402      0.2410
     23  N23      -67.9450 -162.5830 -142.2890 N.am  402  R32402     -0.2049
     24  C24      -68.5920 -161.3300 -142.6170 C.3   402  R32402      0.1237
     25  C25      -69.8710 -161.5980 -143.4170 C.3   402  R32402      0.0921
     26  N26      -62.6670 -164.2340 -140.1550 N.3   402  R32402     -0.1287
     27  O27      -64.6720 -163.6240 -142.1110 O.3   402  R32402     -0.2215
     28  C28      -68.0510 -165.2600 -140.0840 C.3   402  R32402      0.0087
     29  O29      -68.2070 -162.1890 -140.0540 O.2   402  R32402     -0.2734
     30  C30      -67.4010 -166.6280 -139.8740 C.3   402  R32402      0.0005
     31  C31      -69.3940 -165.3770 -140.7990 C.3   402  R32402      0.0005
     32  C32      -69.4600 -162.1540 -144.7860 C.2   402  R32402      0.2615
     33  C33      -70.6510 -160.2970 -143.6370 C.3   402  R32402      0.0110
     34  C34      -70.7550 -162.6430 -142.7200 C.3   402  R32402      0.0110
     35  N35      -68.7220 -161.2870 -145.5150 N.am  402  R32402     -0.0878
     36  O36      -69.7760 -163.2840 -145.1410 O.2   402  R32402     -0.2716
@<TRIPOS>BOND
     1    35    32   am
     2    36    32    2
     3    32    25    1
     4    33    25    1
     5    25    34    1
     6    25    24    1
     7    24    23    1
     8    23    22   am
     9    27    19    1
    10    15    10    1
    11    22    21    1
    12    22    29    2
    13    19    18    1
    14    19    20    1
    15    31    28    1
    16    21    28    1
    17    21    20    1
    18    17    18    1
    19    17    11    1
    20    16    10    1
    21    10    11    1
    22    10     9    1
    23    26    18    1
    24    28    30    1
    25    11    12    1
    26     9     7    1
    27    12    13    1
    28     7    13   am
    29     7     2    1
    30    13    14    2
    31     8     3    1
    32     2     3   ar
    33     2     1   ar
    34     3     4   ar
    35     1     6   ar
    36     4     5   ar
    37     6     5   ar
