@<TRIPOS>MOLECULE
3vsz_GAL_A_1.pdb
 12 12 0 0 0
SMALL
GASTEIGER

@<TRIPOS>ATOM
      1  C1        15.4830   13.2540  237.9040 C.3   602  GAL602      0.3024
      2  C2        14.9320   14.4670  237.1650 C.3   602  GAL602      0.2434
      3  C3        13.5390   14.8270  237.6680 C.3   602  GAL602      0.2199
      4  C4        12.6470   13.5940  237.7350 C.3   602  GAL602      0.2144
      5  C5        13.3590   12.4410  238.4340 C.3   602  GAL602      0.1836
      6  C6        12.4980   11.1840  238.4280 C.3   602  GAL602      0.2142
      7  O1        16.7270   12.8900  237.3490 O.3   602  GAL602     -0.1869
      8  O2        15.7980   15.5640  237.3520 O.3   602  GAL602     -0.2148
      9  O3        12.9600   15.7810  236.8060 O.3   602  GAL602     -0.2174
     10  O4        12.2890   13.2020  236.4290 O.3   602  GAL602     -0.2176
     11  O5        14.5800   12.1780  237.7800 O.3   602  GAL602     -0.3236
     12  O6        12.9690   10.2970  237.4380 O.3   602  GAL602     -0.2176
@<TRIPOS>BOND
     1    10     4    1
     2     9     3    1
     3     2     8    1
     4     2     3    1
     5     2     1    1
     6     7     1    1
     7    12     6    1
     8     3     4    1
     9     4     5    1
    10    11     1    1
    11    11     5    1
    12     6     5    1
