@<TRIPOS>MOLECULE
3vt0_LAT_A_1.pdb
 23 24 0 0 0
SMALL
GASTEIGER

@<TRIPOS>ATOM
      1  C1        12.0370   19.1040  238.2930 C.3   601  LAT601      0.2695
      2  C2        10.8070   19.7800  237.6780 C.3   601  LAT601      0.2406
      3  C3         9.7550   18.8240  237.3340 C.3   601  LAT601      0.2198
      4  C4        10.2430   17.7430  236.5570 C.3   601  LAT601      0.2144
      5  C5        11.4190   17.0640  237.2280 C.3   601  LAT601      0.1835
      6  C6        11.9730   15.9960  236.4030 C.3   601  LAT601      0.2142
      7  O1        13.0720   20.0130  238.3880 O.3   601  LAT601     -0.3257
      8  O2        10.3020   20.7320  238.5630 O.3   601  LAT601     -0.2149
      9  O3         8.6950   19.5300  236.5930 O.3   601  LAT601     -0.2174
     10  O4        10.6740   18.2450  235.2900 O.3   601  LAT601     -0.2176
     11  O5        12.4820   18.0390  237.5200 O.3   601  LAT601     -0.3256
     12  O6        12.9580   15.2050  236.9790 O.3   601  LAT601     -0.2176
     13  C1'       16.6330   19.8460  240.4510 C.3   601  LAT601      0.3023
     14  C2'       16.0220   18.5560  240.1090 C.3   601  LAT601      0.2433
     15  C3'       14.9440   18.6970  239.1320 C.3   601  LAT601      0.2168
     16  C4'       13.9410   19.7370  239.5000 C.3   601  LAT601      0.1804
     17  C5'       14.5920   21.0350  239.8840 C.3   601  LAT601      0.1804
     18  C6'       13.5580   21.9970  240.3890 C.3   601  LAT601      0.2141
     19  O1'       17.5090   19.6690  241.4410 O.3   601  LAT601     -0.1869
     20  O2'       17.0360   17.6830  239.5740 O.3   601  LAT601     -0.2148
     21  O3'       14.3190   17.4250  238.9900 O.3   601  LAT601     -0.2175
     22  O5'       15.5900   20.8610  240.8730 O.3   601  LAT601     -0.3237
     23  O6'       13.8980   22.7610  241.4970 O.3   601  LAT601     -0.2176
@<TRIPOS>BOND
     1    10     4    1
     2     6    12    1
     3     6     5    1
     4     4     5    1
     5     4     3    1
     6     9     3    1
     7     5    11    1
     8     3     2    1
     9    11     1    1
    10     2     1    1
    11     2     8    1
    12     1     7    1
    13     7    16    1
    14    21    15    1
    15    15    16    1
    16    15    14    1
    17    16    17    1
    18    20    14    1
    19    17    18    1
    20    17    22    1
    21    14    13    1
    22    18    23    1
    23    13    22    1
    24    13    19    1
