@<TRIPOS>MOLECULE
3vt1_GAL_A_1.pdb
 12 12 0 0 0
SMALL
GASTEIGER

@<TRIPOS>ATOM
      1  C1        11.8920   19.3960  237.6920 C.3   601  GAL601      0.3024
      2  C2        10.6780   19.7120  236.8290 C.3   601  GAL601      0.2434
      3  C3         9.9350   18.4220  236.5160 C.3   601  GAL601      0.2199
      4  C4        10.8940   17.4120  235.9020 C.3   601  GAL601      0.2144
      5  C5        12.1360   17.2540  236.7700 C.3   601  GAL601      0.1836
      6  C6        13.1400   16.3210  236.1040 C.3   601  GAL601      0.2142
      7  O1        12.5850   20.5870  237.9940 O.3   601  GAL601     -0.1869
      8  O2         9.8220   20.6110  237.4980 O.3   601  GAL601     -0.2148
      9  O3         8.8830   18.6820  235.6180 O.3   601  GAL601     -0.2174
     10  O4        11.2700   17.8520  234.6170 O.3   601  GAL601     -0.2176
     11  O5        12.7380   18.5140  236.9830 O.3   601  GAL601     -0.3236
     12  O6        12.5450   15.0650  235.8680 O.3   601  GAL601     -0.2176
@<TRIPOS>BOND
     1    10     4    1
     2     9     3    1
     3    12     6    1
     4     4     3    1
     5     4     5    1
     6     6     5    1
     7     3     2    1
     8     5    11    1
     9     2     8    1
    10     2     1    1
    11    11     1    1
    12     1     7    1
