@<TRIPOS>MOLECULE
3vt2_IPT_A_1.pdb
 15 15 0 0 0
SMALL
GASTEIGER

@<TRIPOS>ATOM
      1  C1        11.9440   18.8720  238.9020 C.3   601  IPT601      0.1955
      2  C2        10.8640   19.7030  238.2220 C.3   601  IPT601      0.2219
      3  O2        10.4050   20.7200  239.1200 O.3   601  IPT601     -0.2167
      4  C3         9.6950   18.8240  237.8150 C.3   601  IPT601      0.2181
      5  O3         8.7310   19.6070  237.1030 O.3   601  IPT601     -0.2175
      6  C4        10.1900   17.6870  236.9360 C.3   601  IPT601      0.2143
      7  O4        10.6270   18.2150  235.6780 O.3   601  IPT601     -0.2176
      8  C5        11.3380   16.9230  237.5890 C.3   601  IPT601      0.1820
      9  O5        12.3720   17.7900  238.0690 O.3   601  IPT601     -0.3398
     10  C6        11.9480   15.9660  236.5720 C.3   601  IPT601      0.2142
     11  O6        13.0180   15.2370  237.1850 O.3   601  IPT601     -0.2176
     12  S1        13.3260   19.9060  239.2760 S.3   601  IPT601     -0.1102
     13  C1'       14.2700   19.1850  240.5820 C.3   601  IPT601      0.0500
     14  C2'       15.4960   20.0470  240.8560 C.3   601  IPT601      0.0117
     15  C3'       14.6750   17.7650  240.2010 C.3   601  IPT601      0.0117
@<TRIPOS>BOND
     1     7     6    1
     2    10    11    1
     3    10     8    1
     4     6     8    1
     5     6     4    1
     6     5     4    1
     7     8     9    1
     8     4     2    1
     9     9     1    1
    10     2     1    1
    11     2     3    1
    12     1    12    1
    13    12    13    1
    14    15    13    1
    15    13    14    1
