@<TRIPOS>MOLECULE
3vta_MAN_A_1.pdb
 11 11 0 0 0
SMALL
GASTEIGER

@<TRIPOS>ATOM
      1  C1       -33.4470  -52.0930   18.7270 C.3   806  MAN806      0.1777
      2  C2       -32.2660  -51.9400   19.6940 C.3   806  MAN806      0.2141
      3  C3       -32.6850  -51.0510   20.8540 C.3   806  MAN806      0.2173
      4  C4       -33.1480  -49.6890   20.3110 C.3   806  MAN806      0.2142
      5  C5       -34.2170  -49.8390   19.2140 C.3   806  MAN806      0.1810
      6  C6       -34.3950  -48.5340   18.4710 C.3   806  MAN806      0.2141
      7  O2       -31.1630  -51.3390   19.0180 O.3   806  MAN806     -0.2176
      8  O3       -31.5810  -50.8780   21.7320 O.3   806  MAN806     -0.2175
      9  O4       -33.6840  -48.9080   21.3700 O.3   806  MAN806     -0.2176
     10  O5       -33.8170  -50.8110   18.2200 O.3   806  MAN806     -0.3481
     11  O6       -33.3460  -48.3480   17.5280 O.3   806  MAN806     -0.2176
@<TRIPOS>BOND
     1    11     6    1
     2    10     1    1
     3    10     5    1
     4     6     5    1
     5     1     2    1
     6     7     2    1
     7     5     4    1
     8     2     3    1
     9     4     3    1
    10     4     9    1
    11     3     8    1
