@<TRIPOS>MOLECULE
3vta_BMA_A_1.pdb
 11 11 0 0 0
SMALL
GASTEIGER

@<TRIPOS>ATOM
      1  C1       -34.3020  -55.7740   16.5800 C.3   805  BMA805      0.1777
      2  C2       -34.8950  -56.9710   17.3260 C.3   805  BMA805      0.2141
      3  C3       -36.3310  -56.6780   17.7480 C.3   805  BMA805      0.2173
      4  C4       -36.3690  -55.3870   18.5730 C.3   805  BMA805      0.2142
      5  C5       -35.7110  -54.2550   17.7780 C.3   805  BMA805      0.1810
      6  C6       -35.6760  -52.9030   18.4960 C.3   805  BMA805      0.2141
      7  O2       -34.1130  -57.2340   18.4840 O.3   805  BMA805     -0.2176
      8  O3       -36.8330  -57.7660   18.5180 O.3   805  BMA805     -0.2175
      9  O4       -37.7180  -55.0490   18.8580 O.3   805  BMA805     -0.2176
     10  O5       -34.3590  -54.6170   17.4260 O.3   805  BMA805     -0.3481
     11  O6       -34.5130  -52.7780   19.3470 O.3   805  BMA805     -0.2176
@<TRIPOS>BOND
     1     1     2    1
     2     1    10    1
     3     2     3    1
     4     2     7    1
     5    10     5    1
     6     3     8    1
     7     3     4    1
     8     5     6    1
     9     5     4    1
    10     6    11    1
    11     4     9    1
