@<TRIPOS>MOLECULE
3vta_DFP_A_1.pdb
 10 9 0 0 0
SMALL
GASTEIGER

@<TRIPOS>ATOM
      1  C1       -18.8900  -66.5830   27.1020 C.3   801  DFP801      0.1236
      2  C2       -18.9660  -68.0560   27.5190 C.3   801  DFP801      0.0325
      3  C3       -19.9480  -66.3120   26.0290 C.3   801  DFP801      0.0325
      4  C1'      -19.7460  -63.5570   30.6290 C.3   801  DFP801      0.1236
      5  C2'      -20.6510  -64.7280   31.0030 C.3   801  DFP801      0.0325
      6  C3'      -19.3550  -62.7260   31.8480 C.3   801  DFP801      0.0325
      7  P        -18.5240  -64.2960   28.3850 P.3   801  DFP801      0.3659
      8  O1P      -19.1610  -65.7920   28.2580 O.3   801  DFP801     -0.2993
      9  O2P      -18.5580  -64.0600   30.0090 O.3   801  DFP801     -0.2993
     10  O3P      -19.4130  -63.3280   27.6470 O.3   801  DFP801     -0.1446
@<TRIPOS>BOND
     1     3     1    1
     2     1     2    1
     3     1     8    1
     4    10     7    1
     5     8     7    1
     6     7     9    1
     7     9     4    1
     8     4     5    1
     9     4     6    1
