@<TRIPOS>MOLECULE
3vtf_UPG_A_1.pdb
 36 38 0 0 0
SMALL
GASTEIGER

@<TRIPOS>ATOM
      1  N1        13.2950   76.1620    3.9880 N.am  1001  UPG1001    -0.1766
      2  C2        13.2790   75.6000    2.6770 C.1   1001  UPG1001     0.2845
      3  N3        12.7120   76.2900    1.6850 N.2   1001  UPG1001    -0.2452
      4  C4        12.0850   77.4980    1.9490 C.1   1001  UPG1001     0.2182
      5  C5        12.0520   78.0890    3.2600 C.2   1001  UPG1001     0.1242
      6  C6        12.6550   77.3320    4.2850 C.2   1001  UPG1001     0.0929
      7  O2        13.8160   74.4750    2.4240 O.2   1001  UPG1001    -0.1918
      8  O4        11.5090   78.0970    0.9800 O.2   1001  UPG1001    -0.2085
      9  C1C       13.9230   75.3090    5.0240 C.3   1001  UPG1001     0.2401
     10  C2C       14.9890   76.0950    5.7620 C.3   1001  UPG1001     0.2319
     11  O2C       16.2710   75.9760    5.1500 O.3   1001  UPG1001    -0.2157
     12  C3C       14.9780   75.4280    7.1550 C.3   1001  UPG1001     0.2158
     13  C4C       13.5230   75.0020    7.3540 C.3   1001  UPG1001     0.1799
     14  O4C       12.9190   75.1130    6.0460 O.3   1001  UPG1001    -0.3320
     15  O3C       15.7290   74.1860    7.0920 O.3   1001  UPG1001    -0.2175
     16  C5C       12.7410   75.9120    8.3310 C.3   1001  UPG1001     0.1813
     17  O5C       13.0870   77.2690    8.0290 O.3   1001  UPG1001    -0.3112
     18  PA        12.4170   78.5170    8.9440 P.3   1001  UPG1001     0.2189
     19  O1A       10.8640   78.5490    8.7690 O.3   1001  UPG1001    -0.4371
     20  O2A       13.3050   79.7730    8.7550 O.2   1001  UPG1001    -0.5170
     21  O3A       12.9360   78.0460   10.3940 O.3   1001  UPG1001    -0.2703
     22  PB        12.2310   78.0650   11.8760 P.3   1001  UPG1001     0.2208
     23  O1B       13.0660   78.9610   12.7550 O.3   1001  UPG1001    -0.4371
     24  O2B       12.3130   76.5330   12.0920 O.2   1001  UPG1001    -0.5170
     25  O3B       10.7840   78.7340   11.8360 O.3   1001  UPG1001    -0.2857
     26  C1'        9.5810   77.9080   11.7750 C.3   1001  UPG1001     0.2742
     27  C2'        8.4580   78.8020   11.2960 C.3   1001  UPG1001     0.2409
     28  C3'        8.1170   79.7950   12.4330 C.3   1001  UPG1001     0.2198
     29  C4'        7.7610   78.9640   13.6890 C.3   1001  UPG1001     0.2144
     30  C5'        9.0620   78.1860   14.1370 C.3   1001  UPG1001     0.1835
     31  C6'        8.9180   77.2480   15.3560 C.3   1001  UPG1001     0.2142
     32  O2'        9.1590   79.5000   10.1940 O.3   1001  UPG1001    -0.2149
     33  O3'        7.0140   80.5630   11.9950 O.3   1001  UPG1001    -0.2174
     34  O4'        7.4460   79.9040   14.7390 O.3   1001  UPG1001    -0.2176
     35  O5'        9.2800   77.2780   13.0200 O.3   1001  UPG1001    -0.3254
     36  O6'        7.5600   76.7510   15.4330 O.3   1001  UPG1001    -0.2176
@<TRIPOS>BOND
     1     8     4    2
     2     3     4    2
     3     3     2    2
     4     4     5    1
     5     7     2    2
     6     2     1   am
     7     5     6    2
     8     1     6    1
     9     1     9    1
    10     9    10    1
    11     9    14    1
    12    11    10    1
    13    10    12    1
    14    14    13    1
    15    15    12    1
    16    12    13    1
    17    13    16    1
    18    17    16    1
    19    17    18    1
    20    20    18    2
    21    19    18    1
    22    18    21    1
    23    32    27    1
    24    21    22    1
    25    27    26    1
    26    27    28    1
    27    26    25    1
    28    26    35    1
    29    25    22    1
    30    22    24    2
    31    22    23    1
    32    33    28    1
    33    28    29    1
    34    35    30    1
    35    29    30    1
    36    29    34    1
    37    30    31    1
    38    31    36    1
