@<TRIPOS>MOLECULE
3vth_AP2_A_1.pdb
 27 29 0 0 0
SMALL
GASTEIGER

@<TRIPOS>ATOM
      1  PB        87.9560    3.8040   -9.7200 P.3   806  AP2806      0.1295
      2  O1B       88.2820    3.9430  -11.1860 O.2   806  AP2806     -0.4595
      3  O2B       88.8040    4.5910   -8.7690 O.3   806  AP2806     -0.3567
      4  O3B       86.4720    3.8830   -9.4630 O.3   806  AP2806     -0.3567
      5  C3A       88.3550    2.0650   -9.3990 C.3   806  AP2806      0.1765
      6  PA        90.1180    1.6430   -9.5130 P.3   806  AP2806      0.3770
      7  O1A       90.1070    0.2280   -8.9520 O.3   806  AP2806     -0.1394
      8  O2A       91.0840    2.6580   -8.9520 O.2   806  AP2806     -0.2550
      9  O5'       90.4240    1.6050  -11.1020 O.3   806  AP2806     -0.2897
     10  C5'       89.8380    0.5540  -11.8610 C.3   806  AP2806      0.1836
     11  C4'       89.9760    0.9790  -13.3050 C.3   806  AP2806      0.1822
     12  O4'       91.3370    0.8420  -13.7160 O.3   806  AP2806     -0.3135
     13  C3'       89.1870    0.0960  -14.2510 C.3   806  AP2806      0.2184
     14  O3'       87.8020    0.4570  -14.2490 O.3   806  AP2806     -0.2174
     15  C2'       89.9030    0.3940  -15.5530 C.3   806  AP2806      0.2570
     16  O2'       89.3570    1.6200  -16.0540 O.3   806  AP2806     -0.2130
     17  C1'       91.3660    0.5730  -15.1240 C.3   806  AP2806      0.3186
     18  N9        92.0780   -0.6950  -15.4550 N.pl3 806  AP2806     -0.1439
     19  C8        91.8660   -1.9280  -14.9310 C.3   806  AP2806      0.3377
     20  N7        92.6650   -2.8650  -15.5090 N.2   806  AP2806     -0.2095
     21  C5        93.4180   -2.2310  -16.4290 C.2   806  AP2806      0.2526
     22  C6        94.4680   -2.6200  -17.4040 C.2   806  AP2806      0.4393
     23  N6        94.8950   -3.9040  -17.5060 N.pl3 806  AP2806      0.2180
     24  N1        94.9830   -1.6380  -18.1940 N.2   806  AP2806      0.0021
     25  C2        94.5930   -0.3480  -18.1000 C.3   806  AP2806      0.5254
     26  N3        93.6340    0.0690  -17.2450 N.2   806  AP2806     -0.0055
     27  C4        93.0240   -0.8110  -16.4020 C.2   806  AP2806      0.3518
@<TRIPOS>BOND
     1    24    25    1
     2    24    22    2
     3    25    26    1
     4    23    22    1
     5    22    21    1
     6    26    27    2
     7    21    27    1
     8    21    20    2
     9    27    18    1
    10    16    15    1
    11    15    17    1
    12    15    13    1
    13    20    19    1
    14    18    17    1
    15    18    19    1
    16    17    12    1
    17    13    14    1
    18    13    11    1
    19    12    11    1
    20    11    10    1
    21    10     9    1
    22     2     1    2
    23     9     6    1
    24     1     4    1
    25     1     5    1
    26     1     3    1
    27     6     5    1
    28     6     8    2
    29     6     7    1
