@<TRIPOS>MOLECULE
3vth_APC_A_1.pdb
 31 33 0 0 0
SMALL
GASTEIGER

@<TRIPOS>ATOM
      1  PG        81.0070  -12.4230   -8.5110 P.3   804  APC804      0.5389
      2  O1G       81.3340  -13.5900   -7.6150 O.3   804  APC804     -0.1143
      3  O2G       80.6850  -12.8540   -9.9210 O.2   804  APC804     -0.2220
      4  O3G       79.9950  -11.4670   -7.9480 O.3   804  APC804     -0.1143
      5  PB        83.8460  -11.9230   -8.5320 P.3   804  APC804      0.3895
      6  O1B       84.0770  -12.1880   -7.0770 O.3   804  APC804     -0.1388
      7  O2B       84.6590  -10.7840   -9.1140 O.2   804  APC804     -0.2544
      8  O3B       82.3070  -11.4800   -8.6850 O.3   804  APC804     -0.2026
      9  PA        85.0700  -14.8020   -8.8350 P.3   804  APC804      0.3820
     10  O1A       85.1990  -15.8440   -9.9210 O.2   804  APC804     -0.2548
     11  O2A       84.5590  -15.3000   -7.5320 O.3   804  APC804     -0.1392
     12  C3A       84.0500  -13.4410   -9.5220 C.3   804  APC804      0.2357
     13  O5'       86.5030  -14.1460   -8.4950 O.3   804  APC804     -0.2896
     14  C5'       87.6910  -14.3970   -9.2400 C.3   804  APC804      0.1836
     15  C4'       88.4230  -13.0720   -9.4360 C.3   804  APC804      0.1822
     16  O4'       89.6680  -13.3780  -10.0750 O.3   804  APC804     -0.3135
     17  C3'       87.6370  -12.1500  -10.3720 C.3   804  APC804      0.2184
     18  O3'       87.6690  -10.7830   -9.9260 O.3   804  APC804     -0.2174
     19  C2'       88.3950  -12.2460  -11.6800 C.3   804  APC804      0.2570
     20  O2'       88.1980  -11.0940  -12.5220 O.3   804  APC804     -0.2130
     21  C1'       89.8210  -12.5230  -11.2070 C.3   804  APC804      0.3186
     22  N9        90.4960  -13.2010  -12.3080 N.pl3 804  APC804     -0.1439
     23  C8        90.3510  -14.4950  -12.7020 C.3   804  APC804      0.3377
     24  N7        91.1120  -14.7300  -13.8000 N.2   804  APC804     -0.2095
     25  C5        91.7410  -13.5760  -14.1100 C.2   804  APC804      0.2526
     26  C6        92.6840  -13.1110  -15.1510 C.2   804  APC804      0.4393
     27  N6        93.1340  -13.9520  -16.1050 N.pl3 804  APC804      0.2180
     28  N1        93.0850  -11.8210  -15.1120 N.2   804  APC804      0.0021
     29  C2        92.6660  -10.9620  -14.1600 C.3   804  APC804      0.5254
     30  N3        91.8060  -11.2950  -13.1840 N.2   804  APC804     -0.0055
     31  C4        91.3290  -12.5700  -13.1200 C.2   804  APC804      0.3518
@<TRIPOS>BOND
     1    27    26    1
     2    26    28    2
     3    26    25    1
     4    28    29    1
     5    29    30    1
     6    25    24    2
     7    25    31    1
     8    24    23    1
     9    30    31    2
    10    31    22    1
    11    23    22    1
    12    20    19    1
    13    22    21    1
    14    19    21    1
    15    19    17    1
    16    21    16    1
    17    17    18    1
    18    17    15    1
    19    16    15    1
    20    10     9    2
    21     3     1    2
    22    12     9    1
    23    12     5    1
    24    15    14    1
    25    14    13    1
    26     7     5    2
    27     9    13    1
    28     9    11    1
    29     8     5    1
    30     8     1    1
    31     5     6    1
    32     1     4    1
    33     1     2    1
