@<TRIPOS>MOLECULE
3vtk_5IU_A_1.pdb
 21 22 0 0 0
SMALL
GASTEIGER

@<TRIPOS>ATOM
      1  N1        39.3820   15.0460   31.2690 N.am  500  5IU500     -0.1786
      2  C2        38.7770   13.8580   30.8720 C.1   500  5IU500      0.2845
      3  N3        38.6870   12.8330   31.7660 N.2   500  5IU500     -0.2448
      4  C4        39.1470   12.9110   33.0640 C.1   500  5IU500      0.2229
      5  C5        39.7640   14.1300   33.4800 C.2   500  5IU500      0.1405
      6  C6        39.8860   15.1920   32.5340 C.2   500  5IU500      0.0979
      7  O2        38.3110   13.6990   29.7540 O.2   500  5IU500     -0.1918
      8  O4        39.0080   11.9230   33.8250 O.2   500  5IU500     -0.2081
      9  I5        40.4850   14.3120   35.4630 I     500  5IU500     -0.0273
     10  C1'       39.5470   16.1720   30.2700 C.3   500  5IU500      0.2090
     11  C2'       38.5560   17.3220   30.4160 C.3   500  5IU500      0.0874
     12  C3'       39.4130   18.4980   30.0000 C.3   500  5IU500      0.1857
     13  C4'       40.7120   18.2040   30.6670 C.3   500  5IU500      0.1774
     14  O3'       39.6520   18.5730   28.6050 O.3   500  5IU500     -0.2203
     15  O4'       40.8320   16.7610   30.6000 O.3   500  5IU500     -0.3339
     16  C5'       40.8300   18.6560   32.1260 C.3   500  5IU500      0.1858
     17  O5'       41.0390   20.0880   32.2020 O.3   500  5IU500     -0.2675
     18  P         40.2260   21.0460   33.2540 P.3   500  5IU500      0.5327
     19  OP1       39.8160   20.2180   34.4130 O.3   500  5IU500     -0.1145
     20  OP2       39.0190   21.6180   32.5890 O.2   500  5IU500     -0.2224
     21  OP3       41.0940   22.1310   33.7100 O.3   500  5IU500     -0.1145
@<TRIPOS>BOND
     1    14    12    1
     2     7     2    2
     3    12    11    1
     4    12    13    1
     5    10    11    1
     6    10    15    1
     7    10     1    1
     8    15    13    1
     9    13    16    1
    10     2     1   am
    11     2     3    2
    12     1     6    1
    13     3     4    2
    14    16    17    1
    15    17    18    1
    16     6     5    2
    17    20    18    2
    18     4     5    1
    19     4     8    2
    20    18    21    1
    21    18    19    1
    22     5     9    1
