@<TRIPOS>MOLECULE
3vtk_ADP_A_1.pdb
 27 29 0 0 0
SMALL
GASTEIGER

@<TRIPOS>ATOM
      1  PB        38.5660   25.0690   35.1410 P.3   400  ADP400      0.5373
      2  O1B       37.3920   25.5250   35.9100 O.3   400  ADP400     -0.1143
      3  O2B       39.6050   24.5170   36.0320 O.3   400  ADP400     -0.1143
      4  O3B       38.1420   24.0600   34.1600 O.2   400  ADP400     -0.2221
      5  PA        39.5540   27.6070   34.4990 P.3   400  ADP400      0.2231
      6  O1A       39.9700   27.9690   35.8800 O.3   400  ADP400     -0.4370
      7  O2A       40.5520   28.0330   33.4790 O.2   400  ADP400     -0.5169
      8  O3A       39.1100   26.1920   34.3310 O.3   400  ADP400     -0.2261
      9  O5'       38.2450   28.5040   34.1840 O.3   400  ADP400     -0.3111
     10  C5'       37.4220   28.2820   33.0110 C.3   400  ADP400      0.1813
     11  C4'       37.5320   29.4610   32.0180 C.3   400  ADP400      0.1821
     12  O4'       36.6560   30.5700   32.4480 O.3   400  ADP400     -0.3135
     13  C3'       38.9280   30.0420   32.0360 C.3   400  ADP400      0.2184
     14  O3'       39.1750   30.6070   30.7440 O.3   400  ADP400     -0.2174
     15  C2'       38.8830   31.1310   33.0710 C.3   400  ADP400      0.2570
     16  O2'       39.8160   32.1690   32.7910 O.3   400  ADP400     -0.2130
     17  C1'       37.4460   31.6450   33.0720 C.3   400  ADP400      0.3186
     18  N9        36.9630   31.9750   34.4370 N.pl3 400  ADP400     -0.1439
     19  C8        37.1340   31.2630   35.6090 C.3   400  ADP400      0.3377
     20  N7        36.5930   31.8420   36.6440 N.2   400  ADP400     -0.2095
     21  C5        36.0030   33.0060   36.2090 C.2   400  ADP400      0.2526
     22  C6        35.2660   34.0260   36.8440 C.2   400  ADP400      0.4393
     23  N6        34.9970   34.0130   38.1660 N.pl3 400  ADP400      0.2180
     24  N1        34.8360   35.0540   36.0720 N.2   400  ADP400      0.0021
     25  C2        35.1010   35.0470   34.7660 C.3   400  ADP400      0.5254
     26  N3        35.7700   34.1470   34.0440 N.2   400  ADP400     -0.0055
     27  C4        36.2190   33.1060   34.8090 C.2   400  ADP400      0.3518
@<TRIPOS>BOND
     1    14    13    1
     2    11    13    1
     3    11    12    1
     4    11    10    1
     5    13    15    1
     6    12    17    1
     7    16    15    1
     8    10     9    1
     9    15    17    1
    10    17    18    1
    11     7     5    2
    12    26    25    1
    13    26    27    2
    14     4     1    2
    15     9     5    1
    16     8     5    1
    17     8     1    1
    18    18    27    1
    19    18    19    1
    20     5     6    1
    21    25    24    1
    22    27    21    1
    23     1     2    1
    24     1     3    1
    25    19    20    1
    26    24    22    2
    27    21    20    2
    28    21    22    1
    29    22    23    1
