@<TRIPOS>MOLECULE
3vtr_NAG_A_1.pdb
 14 14 0 0 0
SMALL
GASTEIGER

@<TRIPOS>ATOM
      1  C1       -55.1830   13.7950   56.0150 C.3   602  NAG602      0.1665
      2  C2       -55.9350   12.5760   55.4890 C.3   602  NAG602      0.1576
      3  C3       -56.7620   12.9640   54.2670 C.3   602  NAG602      0.2069
      4  C4       -57.5810   14.2190   54.5680 C.3   602  NAG602      0.2134
      5  C5       -56.6790   15.3640   55.0540 C.3   602  NAG602      0.1809
      6  C6       -57.4670   16.6140   55.4270 C.3   602  NAG602      0.2141
      7  C7       -54.3730   10.8210   56.1750 C.2   602  NAG602      0.2420
      8  C8       -53.2380    9.8720   55.7390 C.3   602  NAG602      0.0964
      9  N2       -54.8870   11.6100   55.2170 N.am  602  NAG602     -0.2019
     10  O3       -57.6380   11.9180   53.9180 O.3   602  NAG602     -0.2184
     11  O4       -58.3230   14.5850   53.4240 O.3   602  NAG602     -0.2176
     12  O5       -55.9730   14.9540   56.2070 O.3   602  NAG602     -0.3489
     13  O6       -58.4760   16.2740   56.3760 O.3   602  NAG602     -0.2176
     14  O7       -54.7780   10.8290   57.3520 O.2   602  NAG602     -0.2733
@<TRIPOS>BOND
     1    11     4    1
     2    10     3    1
     3     3     4    1
     4     3     2    1
     5     4     5    1
     6     5     6    1
     7     5    12    1
     8     9     2    1
     9     9     7   am
    10     6    13    1
    11     2     1    1
    12     8     7    1
    13     1    12    1
    14     7    14    2
