@<TRIPOS>MOLECULE
3vuf_ADP_A_1.pdb
 27 29 0 0 0
SMALL
GASTEIGER

@<TRIPOS>ATOM
      1  PB       -52.8470  -14.7760   39.6500 P.3   701  ADP701      0.5373
      2  O1B      -51.9150  -15.8500   39.1040 O.2   701  ADP701     -0.2221
      3  O2B      -54.1330  -15.3540   40.2130 O.3   701  ADP701     -0.1143
      4  O3B      -52.1810  -13.7830   40.5970 O.3   701  ADP701     -0.1143
      5  PA       -54.5090  -12.8240   38.2980 P.3   701  ADP701      0.2231
      6  O1A      -55.8100  -13.5880   38.0550 O.2   701  ADP701     -0.5169
      7  O2A      -54.3490  -11.9510   39.5330 O.3   701  ADP701     -0.4370
      8  O3A      -53.2770  -13.8930   38.3340 O.3   701  ADP701     -0.2261
      9  O5'      -54.2550  -11.8680   37.0070 O.3   701  ADP701     -0.3111
     10  C5'      -54.9560  -10.6220   36.8120 C.3   701  ADP701      0.1813
     11  C4'      -56.4180  -10.6130   37.3400 C.3   701  ADP701      0.1821
     12  O4'      -56.7060   -9.4790   38.1960 O.3   701  ADP701     -0.3135
     13  C3'      -57.4890  -10.5900   36.2430 C.3   701  ADP701      0.2184
     14  O3'      -58.4230  -11.6610   36.4610 O.3   701  ADP701     -0.2174
     15  C2'      -58.1480   -9.2010   36.2980 C.3   701  ADP701      0.2570
     16  O2'      -59.5910   -9.2450   36.2880 O.3   701  ADP701     -0.2130
     17  C1'      -57.5980   -8.5270   37.5640 C.3   701  ADP701      0.3186
     18  N9       -56.8600   -7.2380   37.2960 N.pl3 701  ADP701     -0.1439
     19  C8       -55.5500   -7.1440   36.9350 C.3   701  ADP701      0.3377
     20  N7       -55.1490   -5.8530   36.7710 N.2   701  ADP701     -0.2095
     21  C5       -56.2260   -5.0760   37.0420 C.2   701  ADP701      0.2526
     22  C6       -56.4980   -3.6110   37.0730 C.2   701  ADP701      0.4393
     23  N6       -55.5070   -2.7370   36.7680 N.pl3 701  ADP701      0.2180
     24  N1       -57.7460   -3.1920   37.4070 N.2   701  ADP701      0.0021
     25  C2       -58.7190   -4.0800   37.7070 C.3   701  ADP701      0.5254
     26  N3       -58.5450   -5.4180   37.7070 N.2   701  ADP701     -0.0055
     27  C4       -57.3470   -5.9820   37.3900 C.2   701  ADP701      0.3518
@<TRIPOS>BOND
     1    13    15    1
     2    13    14    1
     3    13    11    1
     4    16    15    1
     5    15    17    1
     6    23    22    1
     7    20    19    1
     8    20    21    2
     9    10     9    1
    10    10    11    1
    11    19    18    1
    12     9     5    1
    13    21    22    1
    14    21    27    1
    15    22    24    2
    16    18    27    1
    17    18    17    1
    18    11    12    1
    19    27    26    2
    20    24    25    1
    21    17    12    1
    22    25    26    1
    23     6     5    2
    24     5     8    1
    25     5     7    1
    26     8     1    1
    27     2     1    2
    28     1     3    1
    29     1     4    1
