@<TRIPOS>MOLECULE
3vun_FUC_E_1.pdb
 10 10 0 0 0
SMALL
GASTEIGER

@<TRIPOS>ATOM
      1  C1        33.1590   47.6190  -12.6030 C.3   408  FUC408      0.1776
      2  C2        34.0730   48.7960  -12.2390 C.3   408  FUC408      0.2141
      3  C3        33.2140   49.9010  -11.6170 C.3   408  FUC408      0.2172
      4  C4        32.4570   49.3730  -10.3900 C.3   408  FUC408      0.2116
      5  C5        31.6470   48.1250  -10.7490 C.3   408  FUC408      0.1483
      6  C6        31.0700   47.4830   -9.4940 C.3   408  FUC408      0.0349
      7  O2        34.7390   49.2510  -13.3930 O.3   408  FUC408     -0.2176
      8  O3        33.9740   51.0290  -11.2770 O.3   408  FUC408     -0.2175
      9  O4        33.3380   49.1120   -9.3140 O.3   408  FUC408     -0.2177
     10  O5        32.4280   47.1700  -11.4560 O.3   408  FUC408     -0.3508
@<TRIPOS>BOND
     1     7     2    1
     2     1     2    1
     3     1    10    1
     4     2     3    1
     5     3     8    1
     6     3     4    1
     7    10     5    1
     8     5     4    1
     9     5     6    1
    10     4     9    1
