@<TRIPOS>MOLECULE
3vv4_PVG_A_1.pdb
 43 46 0 0 0
SMALL
GASTEIGER

@<TRIPOS>ATOM
      1  C32       -9.3310  -16.1550  -30.7580 C.3   201  PVG201      0.0005
      2  C31       -8.6540  -14.8370  -30.4110 C.3   201  PVG201      0.0078
      3  C3        -7.1190  -14.9040  -30.4530 C.3   201  PVG201      0.0660
      4  C2        -6.2800  -14.6020  -31.4900 C.3   201  PVG201      0.1246
      5  C21       -6.6630  -14.5090  -33.0190 C.3   201  PVG201      0.0192
      6  C1        -4.9670  -14.6020  -30.9980 C.1   201  PVG201      0.1788
      7  O1        -3.9540  -14.5810  -31.7080 O.2   201  PVG201     -0.2142
      8  N1        -4.9530  -14.7850  -29.6800 N.2   201  PVG201     -0.3448
      9  C4        -6.2920  -14.4940  -29.2890 C.2   201  PVG201      0.1070
     10  C5        -6.7060  -13.5390  -28.1600 C.3   201  PVG201      0.1138
     11  C6        -5.8940  -13.7520  -26.9400 C.2   201  PVG201      0.1111
     12  N2        -6.2060  -14.5880  -25.9330 N.2   201  PVG201     -0.4104
     13  C7        -4.7770  -13.0150  -26.5600 C.2   201  PVG201      0.0021
     14  C41       -4.0920  -11.9380  -27.4050 C.3   201  PVG201      0.0331
     15  C8        -4.3760  -13.4360  -25.3000 C.2   201  PVG201      0.0024
     16  C51       -3.1570  -12.8670  -24.5010 C.3   201  PVG201      0.0402
     17  C52       -3.6840  -11.7430  -23.5540 C.3   201  PVG201      0.1188
     18  C53       -2.5110  -11.1730  -22.7950 C.2   201  PVG201      0.3652
     19  O55       -2.1070  -11.8020  -21.7790 O.co2 201  PVG201     -0.2456
     20  O54       -1.8860  -10.3040  -23.3870 O.co2 201  PVG201     -0.2456
     21  C9        -5.3010  -14.4450  -24.9160 C.2   201  PVG201      0.1114
     22  C10       -5.2320  -15.1130  -23.6560 C.3   201  PVG201      0.1170
     23  C11       -5.9130  -16.3460  -23.5040 C.2   201  PVG201      0.1114
     24  N3        -6.5990  -17.0310  -24.4250 N.2   201  PVG201     -0.4104
     25  C12       -5.9700  -17.0850  -22.2960 C.2   201  PVG201      0.0024
     26  C61       -5.2720  -16.8080  -20.9680 C.3   201  PVG201      0.0402
     27  C62       -6.3000  -16.3910  -19.8500 C.3   201  PVG201      0.1188
     28  C63       -6.7890  -14.9840  -20.1430 C.2   201  PVG201      0.3652
     29  O65       -8.0120  -14.8510  -20.3550 O.co2 201  PVG201     -0.2456
     30  O64       -5.9120  -14.1060  -20.3110 O.co2 201  PVG201     -0.2456
     31  C13       -6.7440  -18.1930  -22.5670 C.2   201  PVG201      0.0021
     32  C71       -7.0160  -19.3350  -21.4980 C.3   201  PVG201      0.0331
     33  C14       -7.1900  -18.1030  -23.8950 C.2   201  PVG201      0.1114
     34  C15       -7.9380  -19.0790  -24.5930 C.3   201  PVG201      0.1181
     35  C16       -9.1430  -19.7300  -24.2530 C.2   201  PVG201      0.1254
     36  C17      -10.0900  -19.2520  -23.3070 C.2   201  PVG201      0.0128
     37  C81       -9.9910  -18.0040  -22.4550 C.3   201  PVG201      0.0339
     38  C18      -11.1310  -20.1670  -23.2230 C.2   201  PVG201      0.0706
     39  C91      -12.4310  -20.0940  -22.3420 C.3   201  PVG201      0.0390
     40  C92      -12.0630  -20.0590  -20.7790 C.3   201  PVG201      0.0058
     41  C19      -10.8340  -21.1270  -24.1870 C.1   201  PVG201      0.2000
     42  O19      -11.5550  -22.0970  -24.4200 O.2   201  PVG201     -0.2096
     43  N4        -9.6760  -20.8590  -24.8300 N.2   201  PVG201     -0.3375
@<TRIPOS>BOND
     1     5     4    1
     2     7     6    2
     3     4     6    1
     4     4     3    1
     5     6     8    2
     6     1     2    1
     7     3     2    1
     8     3     9    1
     9     8     9    2
    10     9    10    1
    11    10    11    1
    12    14    13    1
    13    11    13    1
    14    11    12    2
    15    13    15    2
    16    12    21    2
    17    15    21    1
    18    15    16    1
    19    21    22    1
    20    43    35    2
    21    43    41    2
    22    34    35    1
    23    34    33    1
    24    16    17    1
    25    24    33    2
    26    24    23    2
    27    42    41    2
    28    35    36    1
    29    41    38    1
    30    33    31    1
    31    22    23    1
    32    17    18    1
    33    23    25    1
    34    20    18   ar
    35    36    38    2
    36    36    37    1
    37    38    39    1
    38    18    19   ar
    39    31    25    2
    40    31    32    1
    41    39    40    1
    42    25    26    1
    43    26    27    1
    44    29    28   ar
    45    30    28   ar
    46    28    27    1
