@<TRIPOS>MOLECULE
3vv6_B00_A_1.pdb
 18 20 0 0 0
SMALL
GASTEIGER

@<TRIPOS>ATOM
      1  O         16.6850   42.3020  -10.1490 O.2   510  B00510     -0.2740
      2  C1        16.4250   41.2790   -9.4800 C.2   510  B00510      0.2390
      3  N2        15.8070   41.3830   -8.2080 N.am  510  B00510     -0.2173
      4  C5        15.4900   42.7190   -7.6850 C.3   510  B00510      0.1239
      5  C4        15.5480   40.1920   -7.4660 C.2   510  B00510      0.2832
      6  N3        14.9690   40.2420   -6.2300 N.pl3 510  B00510     -0.0776
      7  N1        15.8720   38.9850   -8.0040 N.2   510  B00510     -0.3786
      8  C3        16.4690   38.8640   -9.2310 C.2   510  B00510      0.0989
      9  C2        16.7390   40.0160   -9.9850 C.3   510  B00510      0.1400
     10  C6        16.7880   37.5080   -9.7750 C.3   510  B00510      0.0531
     11  C14       17.7090   37.5820  -11.0010 C.3   510  B00510      0.0118
     12  C7        18.2420   37.0070   -9.6860 C.3   510  B00510      0.0290
     13  C8        19.2070   37.8890   -8.9650 C.ar  510  B00510     -0.0221
     14  C13       19.1080   38.0600   -7.5740 C.ar  510  B00510     -0.0043
     15  C12       20.0090   38.8750   -6.8840 C.ar  510  B00510     -0.0003
     16  C11       21.0330   39.5140   -7.5870 C.ar  510  B00510     -0.0000
     17  C10       21.1460   39.3420   -8.9660 C.ar  510  B00510     -0.0003
     18  C9        20.2450   38.5250   -9.6580 C.ar  510  B00510     -0.0043
@<TRIPOS>BOND
     1    11    10    1
     2    11    12    1
     3     1     2    2
     4     9     2    1
     5     9     8    1
     6    10    12    1
     7    10     8    1
     8    12    13    1
     9    18    17   ar
    10    18    13   ar
    11     2     3   am
    12     8     7    2
    13    17    16   ar
    14    13    14   ar
    15     3     4    1
    16     3     5    1
    17     7     5    2
    18    16    15   ar
    19    14    15   ar
    20     5     6    1
