@<TRIPOS>MOLECULE
3vv7_0B1_A_1.pdb
 26 29 0 0 0
SMALL
GASTEIGER

@<TRIPOS>ATOM
      1  O1       -15.9190  -42.5680  -10.5060 O.2   509  0B1509     -0.2740
      2  C1       -15.9080  -41.5710   -9.7390 C.2   509  0B1509      0.2390
      3  N2       -15.5030  -41.7340   -8.3890 N.am  509  0B1509     -0.2173
      4  C5       -15.1220  -43.0760   -7.9240 C.3   509  0B1509      0.1239
      5  C4       -15.4950  -40.5980   -7.5260 C.2   509  0B1509      0.2832
      6  N3       -15.1090  -40.7460   -6.2170 N.pl3 509  0B1509     -0.0776
      7  N1       -15.8760  -39.3700   -8.0190 N.2   509  0B1509     -0.3786
      8  C3       -16.2780  -39.2020   -9.3200 C.2   509  0B1509      0.0989
      9  C2       -16.2890  -40.3040  -10.1980 C.3   509  0B1509      0.1400
     10  C6       -16.6700  -37.8580   -9.8340 C.3   509  0B1509      0.0531
     11  C21      -17.5800  -37.9910  -11.0690 C.3   509  0B1509      0.0118
     12  C7       -18.1540  -37.4340   -9.7690 C.3   509  0B1509      0.0290
     13  C8       -19.1790  -38.3200   -9.1240 C.ar  509  0B1509     -0.0221
     14  C13      -20.2210  -38.8950   -9.8730 C.ar  509  0B1509     -0.0043
     15  C12      -21.1950  -39.6960   -9.2640 C.ar  509  0B1509     -0.0003
     16  C11      -21.1530  -39.9140   -7.8880 C.ar  509  0B1509     -0.0000
     17  C10      -20.1290  -39.3320   -7.1310 C.ar  509  0B1509     -0.0002
     18  C9       -19.1610  -38.5300   -7.7390 C.ar  509  0B1509     -0.0043
     19  C14      -20.0920  -39.5630   -5.6630 C.ar  509  0B1509      0.0030
     20  C20      -19.5490  -38.6110   -4.7940 C.ar  509  0B1509      0.0002
     21  C19      -19.5410  -38.8580   -3.4200 C.ar  509  0B1509      0.0031
     22  C18      -20.1000  -40.0390   -2.9260 C.ar  509  0B1509      0.0369
     23  C16      -20.6420  -40.9900   -3.7890 C.ar  509  0B1509      0.1387
     24  C15      -20.6380  -40.7370   -5.1580 C.ar  509  0B1509      0.0369
     25  O2       -21.1810  -42.1640   -3.2940 O.3   509  0B1509     -0.4714
     26  C17      -21.3380  -43.3460   -4.0910 C.3   509  0B1509      0.2525
@<TRIPOS>BOND
     1    11    10    1
     2    11    12    1
     3     1     2    2
     4     9     2    1
     5     9     8    1
     6    14    15   ar
     7    14    13   ar
     8    10    12    1
     9    10     8    1
    10    12    13    1
    11     2     3   am
    12     8     7    2
    13    15    16   ar
    14    13    18   ar
    15     3     4    1
    16     3     5    1
    17     7     5    2
    18    16    17   ar
    19    18    17   ar
    20     5     6    1
    21    17    19    1
    22    19    24   ar
    23    19    20   ar
    24    24    23   ar
    25    20    21   ar
    26    26    25    1
    27    23    25    1
    28    23    22   ar
    29    21    22   ar
