@<TRIPOS>MOLECULE
3vv8_B02_A_1.pdb
 25 28 0 0 0
SMALL
GASTEIGER

@<TRIPOS>ATOM
      1  O         17.1560   41.4330  -10.0600 O.2   502  B02502     -0.2740
      2  C1        16.9830   40.4190   -9.3280 C.2   502  B02502      0.2390
      3  N2        16.4740   40.5600   -8.0150 N.am  502  B02502     -0.2173
      4  C5        16.1690   41.9090   -7.5200 C.3   502  B02502      0.1239
      5  C4        16.2940   39.4040   -7.2040 C.2   502  B02502      0.2832
      6  N3        15.8150   39.5110   -5.9390 N.pl3 502  B02502     -0.0776
      7  N1        16.6060   38.1740   -7.6960 N.2   502  B02502     -0.3786
      8  C3        17.0930   38.0140   -8.9550 C.2   502  B02502      0.0989
      9  C2        17.2860   39.1320   -9.7850 C.3   502  B02502      0.1400
     10  C6        17.4150   36.6480   -9.4600 C.3   502  B02502      0.0531
     11  C21       18.3720   36.7600  -10.6580 C.3   502  B02502      0.0118
     12  C7        18.8940   36.2700   -9.3080 C.3   502  B02502      0.0290
     13  C8        19.7130   37.2360   -8.4960 C.ar  502  B02502     -0.0221
     14  C13       20.9400   37.6940   -8.9700 C.ar  502  B02502     -0.0043
     15  C12       21.7350   38.5480   -8.2030 C.ar  502  B02502     -0.0003
     16  C11       21.3180   38.9510   -6.9370 C.ar  502  B02502     -0.0000
     17  C10       20.1030   38.4810   -6.4390 C.ar  502  B02502     -0.0003
     18  C9        19.3200   37.6220   -7.2120 C.ar  502  B02502     -0.0043
     19  C14       22.1800   39.8620   -6.1160 C.ar  502  B02502     -0.0003
     20  C19       23.5200   40.0180   -6.4630 C.ar  502  B02502     -0.0000
     21  C18       24.3370   40.8520   -5.7040 C.ar  502  B02502     -0.0003
     22  C17       23.8410   41.5250   -4.5960 C.ar  502  B02502     -0.0043
     23  C16       22.5130   41.3630   -4.2270 C.ar  502  B02502     -0.0218
     24  C20       21.9840   42.1000   -3.0250 C.3   502  B02502      0.0310
     25  C15       21.6860   40.5290   -4.9830 C.ar  502  B02502     -0.0043
@<TRIPOS>BOND
     1    11    10    1
     2    11    12    1
     3     1     2    2
     4     9     2    1
     5     9     8    1
     6    10    12    1
     7    10     8    1
     8     2     3   am
     9    12    13    1
    10    14    13   ar
    11    14    15   ar
    12     8     7    2
    13    13    18   ar
    14    15    16   ar
    15     3     4    1
    16     3     5    1
    17     7     5    2
    18    18    17   ar
    19     5     6    1
    20    16    17   ar
    21    16    19    1
    22    20    19   ar
    23    20    21   ar
    24    19    25   ar
    25    21    22   ar
    26    25    23   ar
    27    22    23   ar
    28    23    24    1
