@<TRIPOS>MOLECULE
3vw9_HPJ_A_1.pdb
 28 31 0 0 0
SMALL
GASTEIGER

@<TRIPOS>ATOM
      1  C4         5.6130  -10.7480  -24.6640 C.3   203  HPJ203      0.0566
      2  C14        9.7490  -12.1760  -28.2440 C.ar  203  HPJ203      0.0386
      3  C5         5.2810  -10.5450  -26.1660 C.3   203  HPJ203      0.1101
      4  C11        7.2330  -11.6170  -27.2870 C.ar  203  HPJ203      0.1438
      5  C7         5.3370  -12.6620  -27.4930 C.ar  203  HPJ203      0.0771
      6  C8         6.2500  -13.3940  -28.1340 C.ar  203  HPJ203      0.0217
      7  C9         7.4300  -12.7650  -28.0510 C.ar  203  HPJ203      0.0357
      8  C10        8.7220  -13.0980  -28.4770 C.ar  203  HPJ203      0.0061
      9  C13        9.4790  -11.0440  -27.4650 C.ar  203  HPJ203      0.1020
     10  C3         4.9530  -11.9970  -24.0440 C.3   203  HPJ203      0.1443
     11  C1         2.8650  -13.0760  -23.7180 C.3   203  HPJ203      0.1741
     12  O2         3.5280  -11.8320  -23.9930 O.3   203  HPJ203     -0.3510
     13  N6         5.9400  -11.5870  -26.9870 N.ar  203  HPJ203     -0.3114
     14  N12        8.2550  -10.7870  -27.0010 N.ar  203  HPJ203     -0.2267
     15  C15       11.0720  -12.4630  -28.6030 C.ar  203  HPJ203      0.1071
     16  C16       11.4590  -12.8890  -29.8730 C.ar  203  HPJ203      0.0210
     17  N17       12.0630  -12.3360  -27.6070 N.ar  203  HPJ203     -0.0917
     18  O18       11.7860  -11.8910  -26.3050 O.3   203  HPJ203     -0.1603
     19  C20       13.4030  -12.6430  -27.8780 C.ar  203  HPJ203      0.2963
     20  O21       14.2160  -12.4940  -26.9410 O.2   203  HPJ203     -0.2638
     21  C22       13.7770  -13.0590  -29.1660 C.ar  203  HPJ203      0.0639
     22  C23       12.8170  -13.1490  -30.1900 C.ar  203  HPJ203      0.0064
     23  C24       13.1880  -13.5830  -31.4890 C.ar  203  HPJ203      0.0002
     24  C25       12.3010  -14.3370  -32.2790 C.ar  203  HPJ203      0.0000
     25  C26       12.7100  -14.7920  -33.5450 C.ar  203  HPJ203      0.0000
     26  C27       13.9870  -14.4920  -34.0400 C.ar  203  HPJ203      0.0000
     27  C28       14.8670  -13.7200  -33.2830 C.ar  203  HPJ203      0.0000
     28  C29       14.4580  -13.2700  -32.0150 C.ar  203  HPJ203      0.0000
@<TRIPOS>BOND
     1    26    25   ar
     2    26    27   ar
     3    25    24   ar
     4    27    28   ar
     5    24    23   ar
     6    28    23   ar
     7    23    22    1
     8    22    16   ar
     9    22    21   ar
    10    16    15   ar
    11    21    19   ar
    12    15     2    1
    13    15    17   ar
    14     8     2   ar
    15     8     7   ar
    16     2     9   ar
    17     6     7   ar
    18     6     5   ar
    19     7     4   ar
    20    19    17   ar
    21    19    20    2
    22    17    18    1
    23     5    13   ar
    24     9    14   ar
    25     4    14   ar
    26     4    13   ar
    27    13     3    1
    28     3     1    1
    29     1    10    1
    30    10    12    1
    31    12    11    1
