@<TRIPOS>MOLECULE
3vwj_NAG_A_1.pdb
 14 14 0 0 0
SMALL
GASTEIGER

@<TRIPOS>ATOM
      1  C1       -12.5700   48.5350    5.0680 C.3   301  NAG301      0.1665
      2  C2       -11.9060   49.8700    5.3950 C.3   301  NAG301      0.1576
      3  C3       -10.4710   49.6650    5.8630 C.3   301  NAG301      0.2069
      4  C4       -10.4870   48.6960    7.0400 C.3   301  NAG301      0.2134
      5  C5       -11.1180   47.3860    6.5790 C.3   301  NAG301      0.1809
      6  C6       -11.1480   46.3690    7.7110 C.3   301  NAG301      0.2141
      7  C7       -12.8490   51.7840    4.2480 C.2   301  NAG301      0.2420
      8  C8       -13.0950   52.4560    2.9250 C.3   301  NAG301      0.0964
      9  N2       -11.9760   50.7720    4.2600 N.am  301  NAG301     -0.2019
     10  O3        -9.9190   50.9070    6.2380 O.3   301  NAG301     -0.2184
     11  O4        -9.1910   48.4680    7.5500 O.3   301  NAG301     -0.2176
     12  O5       -12.4460   47.6280    6.1520 O.3   301  NAG301     -0.3489
     13  O6       -12.0670   46.8130    8.6900 O.3   301  NAG301     -0.2176
     14  O7       -13.4410   52.1580    5.2650 O.2   301  NAG301     -0.2733
@<TRIPOS>BOND
     1     8     7    1
     2     7     9   am
     3     7    14    2
     4     9     2    1
     5     1     2    1
     6     1    12    1
     7     2     3    1
     8     3    10    1
     9     3     4    1
    10    12     5    1
    11     5     4    1
    12     5     6    1
    13     4    11    1
    14     6    13    1
