@<TRIPOS>MOLECULE
3vwk_NAG_A_1.pdb
 14 14 0 0 0
SMALL
GASTEIGER

@<TRIPOS>ATOM
      1  C1        12.1460  -40.2780   36.5800 C.3   301  NAG301      0.1665
      2  C2        11.3040  -39.0470   36.2420 C.3   301  NAG301      0.1576
      3  C3         9.9370  -39.4220   35.6710 C.3   301  NAG301      0.2069
      4  C4        10.1200  -40.3900   34.5030 C.3   301  NAG301      0.2134
      5  C5        10.9730  -41.5710   34.9570 C.3   301  NAG301      0.1809
      6  C6        11.1650  -42.5860   33.8270 C.3   301  NAG301      0.2141
      7  C7        12.0030  -37.1460   37.5510 C.2   301  NAG301      0.2420
      8  C8        12.1010  -36.5670   38.9380 C.3   301  NAG301      0.0964
      9  N2        11.1790  -38.1860   37.4070 N.am  301  NAG301     -0.2019
     10  O3         9.2710  -38.2490   35.2440 O.3   301  NAG301     -0.2184
     11  O4         8.8820  -40.8440   33.9790 O.3   301  NAG301     -0.2176
     12  O5        12.2290  -41.1050   35.4320 O.3   301  NAG301     -0.3489
     13  O6        11.7870  -41.9760   32.7130 O.3   301  NAG301     -0.2176
     14  O7        12.6640  -36.6820   36.6100 O.2   301  NAG301     -0.2733
@<TRIPOS>BOND
     1    13     6    1
     2     6     5    1
     3    11     4    1
     4     4     5    1
     5     4     3    1
     6     5    12    1
     7    10     3    1
     8    12     1    1
     9     3     2    1
    10     2     1    1
    11     2     9    1
    12    14     7    2
    13     9     7   am
    14     7     8    1
