@<TRIPOS>MOLECULE
3vws_VWS_A_1.pdb
 24 26 0 0 0
SMALL
GASTEIGER

@<TRIPOS>ATOM
      1 CL1        36.7950   61.6280   14.1380 Cl    1003  VWS1003    -0.0822
      2  C5        35.3500   62.4450   13.5400 C.ar  1003  VWS1003     0.0578
      3  C4        35.5820   63.7580   13.1470 C.ar  1003  VWS1003     0.0128
      4  C3        34.5240   64.5220   12.6650 C.ar  1003  VWS1003     0.0211
      5  C6        34.0630   61.8430   13.4470 C.ar  1003  VWS1003     0.0128
      6  C2        32.9920   62.6320   12.9460 C.ar  1003  VWS1003     0.0211
      7  C1        33.2330   64.0060   12.5480 C.ar  1003  VWS1003     0.1271
      8  S1        32.1290   65.0580   12.0050 S.O2  1003  VWS1003     0.0928
      9  O1        32.1950   65.5620   10.6460 O.2   1003  VWS1003    -0.1483
     10  O2        31.0920   64.1400   11.5530 O.2   1003  VWS1003    -0.1483
     11  N1        31.1860   65.6660   13.1420 N.pl3 1003  VWS1003    -0.0965
     12  C12       30.8340   65.2000   14.3800 C.ar  1003  VWS1003     0.0912
     13  C7        30.1130   63.9830   14.5600 C.ar  1003  VWS1003     0.0212
     14  C8        29.7240   63.5680   15.8640 C.ar  1003  VWS1003     0.0389
     15  C11       31.1710   66.0150   15.5170 C.ar  1003  VWS1003     0.0214
     16  C10       30.7740   65.6000   16.8230 C.ar  1003  VWS1003     0.0449
     17  C13       30.8980   66.0980   18.1610 C.ar  1003  VWS1003     0.1130
     18  C15       31.6110   67.3900   18.5440 C.2   1003  VWS1003     0.3905
     19  O4        32.1090   68.1640   17.6910 O.co2 1003  VWS1003    -0.2404
     20  O5        31.7330   67.6640   19.7640 O.co2 1003  VWS1003    -0.2404
     21  C9        30.0620   64.3920   16.9780 C.ar  1003  VWS1003     0.1451
     22  O3        29.7760   64.1600   18.2480 O.2   1003  VWS1003    -0.4575
     23  C14       30.2570   65.1930   19.0260 C.ar  1003  VWS1003     0.1296
     24  C16       30.0100   65.0910   20.5270 C.3   1003  VWS1003     0.0727
@<TRIPOS>BOND
     1     9     8    2
     2    10     8    2
     3     8     7    1
     4     8    11    1
     5     7     4   ar
     6     7     6   ar
     7     4     3   ar
     8     6     5   ar
     9    11    12    1
    10     3     2   ar
    11     5     2   ar
    12     2     1    1
    13    12    13   ar
    14    12    15   ar
    15    13    14   ar
    16    15    16   ar
    17    14    21   ar
    18    16    21   ar
    19    16    17   ar
    20    21    22   ar
    21    19    18   ar
    22    17    18    1
    23    17    23   ar
    24    22    23   ar
    25    18    20   ar
    26    23    24    1
