@<TRIPOS>MOLECULE
3vwx_GSH_A_1.pdb
 20 19 0 0 0
SMALL
GASTEIGER

@<TRIPOS>ATOM
      1  N1       -59.0750   24.9430    6.1630 N.3   500  GSH500     -0.1208
      2  CA1      -58.5220   26.2490    5.7270 C.3   500  GSH500      0.1948
      3  C1       -58.2730   26.3000    4.2580 C.2   500  GSH500      0.3819
      4  O11      -58.0480   25.2140    3.6470 O.co2 500  GSH500     -0.2441
      5  O12      -58.3340   27.4400    3.6520 O.co2 500  GSH500     -0.2441
      6  CB1      -57.2970   26.5600    6.5590 C.3   500  GSH500      0.0402
      7  CG1      -56.9540   28.0350    6.5010 C.3   500  GSH500      0.0889
      8  CD1      -55.8800   28.4390    7.5290 C.2   500  GSH500      0.2418
      9  OE1      -55.8580   27.9160    8.6500 O.2   500  GSH500     -0.2733
     10  N2       -55.0190   29.3710    7.0690 N.am  500  GSH500     -0.1968
     11  CA2      -53.9860   29.9920    8.0030 C.3   500  GSH500      0.1843
     12  C2       -54.5660   31.1730    8.6400 C.2   500  GSH500      0.2627
     13  O2       -55.3680   31.9380    7.9850 O.2   500  GSH500     -0.2714
     14  CB2      -52.7460   30.3230    7.2290 C.3   500  GSH500      0.0997
     15  SG2      -51.8440   28.8910    6.5220 S.3   500  GSH500     -0.0797
     16  N3       -54.1120   31.4880    9.8760 N.am  500  GSH500     -0.1917
     17  CA3      -54.5740   32.7050   10.5690 C.3   500  GSH500      0.2285
     18  C3       -55.6290   32.4240   11.5950 C.2   500  GSH500      0.3865
     19  O31      -56.1430   31.2860   11.5860 O.co2 500  GSH500     -0.2437
     20  O32      -55.9100   33.2990   12.4160 O.co2 500  GSH500     -0.2437
@<TRIPOS>BOND
     1     4     3   ar
     2     5     3   ar
     3     3     2    1
     4     2     1    1
     5     2     6    1
     6     7     6    1
     7     7     8    1
     8    15    14    1
     9    10     8   am
    10    10    11    1
    11    14    11    1
    12     8     9    2
    13    13    12    2
    14    11    12    1
    15    12    16   am
    16    16    17    1
    17    17    18    1
    18    19    18   ar
    19    18    20   ar
