@<TRIPOS>MOLECULE
3vxi_ASC_A_1.pdb
 12 12 0 0 0
SMALL
GASTEIGER

@<TRIPOS>ATOM
      1  C1        -2.5180    7.7510   27.9770 C.2   502  ASC502      0.3843
      2  C2        -3.8410    7.3490   28.1890 C.2   502  ASC502      0.3085
      3  C3        -4.3260    8.1150   29.2280 C.2   502  ASC502      0.2606
      4  C4        -3.2230    9.0270   29.7220 C.3   502  ASC502      0.2661
      5  C5        -2.7810    8.5740   31.1240 C.3   502  ASC502      0.2322
      6  C6        -1.5000    9.3130   31.5350 C.3   502  ASC502      0.2190
      7  O1        -1.7390    7.3070   27.1490 O.2   502  ASC502     -0.2411
      8  O2        -4.5410    6.3710   27.5220 O.2   502  ASC502     -0.2764
      9  O3        -5.5720    8.0910   29.7520 O.2   502  ASC502     -0.2838
     10  O4        -2.1220    8.7480   28.8350 O.3   502  ASC502     -0.4360
     11  O5        -2.5540    7.1470   31.1440 O.3   502  ASC502     -0.2159
     12  O6        -1.1340    9.0170   32.8910 O.3   502  ASC502     -0.2174
@<TRIPOS>BOND
     1     7     1    2
     2     8     2    1
     3     1     2    1
     4     1    10    1
     5     2     3    2
     6    10     4    1
     7     3     4    1
     8     3     9    1
     9     4     5    1
    10     5    11    1
    11     5     6    1
    12     6    12    1
