@<TRIPOS>MOLECULE
3vxi_HEM_A_1.pdb
 43 50 0 0 0
SMALL
GASTEIGER

@<TRIPOS>ATOM
      1  CHA        2.0640    7.7360   16.5780 C.2   501  HEM501      0.0000
      2  CHB        3.1910    7.9560   11.8830 C.2   501  HEM501      0.0000
      3  CHC        0.9760    3.7140   11.1710 C.2   501  HEM501      0.0000
      4  CHD       -0.2010    3.5000   15.8490 C.2   501  HEM501      0.0000
      5  C1A        2.5280    8.1860   15.3720 C.ar  501  HEM501      0.0000
      6  C2A        3.1990    9.4450   15.1400 C.ar  501  HEM501      0.0000
      7  C3A        3.5240    9.4820   13.8410 C.ar  501  HEM501      0.0000
      8  C4A        3.0530    8.2670   13.2180 C.ar  501  HEM501      0.0000
      9  CMA        4.2240   10.6260   13.0870 C.3   501  HEM501      0.0000
     10  CAA        3.4630   10.5560   16.1850 C.3   501  HEM501      0.0000
     11  CBA        4.7010   10.2880   17.0380 C.3   501  HEM501      0.0000
     12  CGA        4.3640    9.6080   18.3440 C.2   501  HEM501      0.0000
     13  O1A        3.3720    9.9960   19.0050 O.co2 501  HEM501      0.0000
     14  O2A        5.1010    8.6970   18.7350 O.co2 501  HEM501      0.0000
     15  C1B        2.6910    6.8300   11.2610 C.2   501  HEM501      0.0000
     16  C2B        2.8370    6.4750    9.8640 C.2   501  HEM501      0.0000
     17  C3B        2.2290    5.2950    9.6750 C.2   501  HEM501      0.0000
     18  C4B        1.6910    4.8690   10.9440 C.2   501  HEM501      0.0000
     19  CMB        3.5550    7.3300    8.7970 C.3   501  HEM501      0.0000
     20  CAB        2.1090    4.4870    8.3670 C.2   501  HEM501      0.0000
     21  CBB        2.9910    4.6120    7.3570 C.2   501  HEM501      0.0000
     22  C1C        0.3960    3.3260   12.3660 C.ar  501  HEM501      0.0000
     23  C2C       -0.4630    2.1730   12.5600 C.ar  501  HEM501      0.0000
     24  C3C       -0.7980    2.1270   13.8610 C.ar  501  HEM501      0.0000
     25  C4C       -0.1320    3.2290   14.5100 C.ar  501  HEM501      0.0000
     26  CMC       -0.8730    1.2060   11.4270 C.3   501  HEM501      0.0000
     27  CAC       -1.6720    1.1200   14.6180 C.2   501  HEM501      0.0000
     28  CBC       -2.7140    0.5420   13.9990 C.2   501  HEM501      0.0000
     29  C1D        0.3720    4.5670   16.4740 C.2   501  HEM501      0.0000
     30  C2D        0.3820    4.7350   17.9070 C.2   501  HEM501      0.0000
     31  C3D        1.0800    6.0390   18.1280 C.2   501  HEM501      0.0000
     32  C4D        1.4320    6.5450   16.8230 C.2   501  HEM501      0.0000
     33  CMD       -0.1660    3.8180   19.0070 C.3   501  HEM501      0.0000
     34  CAD        1.3330    6.6760   19.4920 C.3   501  HEM501      0.0000
     35  CBD        0.0440    7.3920   19.8820 C.3   501  HEM501      0.0000
     36  CGD        0.1300    7.9610   21.2720 C.2   501  HEM501      0.0000
     37  O1D       -0.2700    9.1510   21.4160 O.co2 501  HEM501      0.0000
     38  O2D        0.5590    7.2560   22.2200 O.co2 501  HEM501      0.0000
     39  NA         2.4490    7.4890   14.1800 N.ar  501  HEM501      0.0000
     40  NB         1.9810    5.8320   11.8960 N.2   501  HEM501      0.0000
     41  NC         0.5620    3.9680   13.5780 N.ar  501  HEM501      0.0000
     42  ND         1.0240    5.6350   15.8520 N.2   501  HEM501      0.0000
     43 FE          1.4790    5.7610   13.8640 Fe    501  HEM501      0.0000
@<TRIPOS>BOND
     1    21    20    2
     2    20    17    1
     3    19    16    1
     4    17    16    2
     5    17    18    1
     6    16    15    1
     7    18     3    2
     8    18    40    1
     9     3    22    1
    10    15     2    1
    11    15    40    2
    12    26    23    1
    13     2     8    2
    14    40    43    1
    15    22    23   ar
    16    22    41   ar
    17    23    24   ar
    18     9     7    1
    19     8     7   ar
    20     8    39   ar
    21    41    43    1
    22    41    25   ar
    23     7     6   ar
    24    24    25   ar
    25    24    27    1
    26    43    39    1
    27    43    42    1
    28    28    27    2
    29    39     5   ar
    30    25     4    1
    31     6     5   ar
    32     6    10    1
    33     5     1    2
    34     4    29    2
    35    42    29    1
    36    42    32    2
    37    10    11    1
    38    29    30    1
    39     1    32    1
    40    32    31    1
    41    11    12    1
    42    30    31    2
    43    30    33    1
    44    31    34    1
    45    12    14   ar
    46    12    13   ar
    47    34    35    1
    48    35    36    1
    49    36    37   ar
    50    36    38   ar
