@<TRIPOS>MOLECULE
3vxj_3DM_A_1.pdb
 11 11 0 0 0
SMALL
GASTEIGER

@<TRIPOS>ATOM
      1  O1        -3.6130    7.1830   27.1040 O.3   503  3DM503     -0.2801
      2  C1        -4.6840    7.6550   27.8320 C.ar  503  3DM503      0.2627
      3  C2        -5.8890    6.9460   27.8960 C.ar  503  3DM503      0.1805
      4  O2        -5.9970    5.7630   27.2100 O.3   503  3DM503     -0.4681
      5  C7        -7.3160    5.2480   26.9690 C.3   503  3DM503      0.2526
      6  C3        -6.9430    7.4670   28.6600 C.ar  503  3DM503      0.0404
      7  C4        -6.8030    8.6890   29.3250 C.ar  503  3DM503      0.0064
      8  C5        -5.6020    9.3880   29.2650 C.ar  503  3DM503      0.0404
      9  C6        -4.5470    8.8700   28.5130 C.ar  503  3DM503      0.1805
     10  O3        -3.3450    9.5130   28.4100 O.3   503  3DM503     -0.4681
     11  C8        -3.2940   10.9010   28.8350 C.3   503  3DM503      0.2526
@<TRIPOS>BOND
     1     5     4    1
     2     1     2    1
     3     4     3    1
     4     2     3   ar
     5     2     9   ar
     6     3     6   ar
     7    10     9    1
     8    10    11    1
     9     9     8   ar
    10     6     7   ar
    11     8     7   ar
