@<TRIPOS>MOLECULE
3vxj_HEM_A_1.pdb
 43 50 0 0 0
SMALL
GASTEIGER

@<TRIPOS>ATOM
      1  CHA        1.1840    7.6430   16.6080 C.2   501  HEM501      0.0000
      2  CHB        2.5670    7.9090   11.9840 C.2   501  HEM501      0.0000
      3  CHC        0.3000    3.7470   11.0190 C.2   501  HEM501      0.0000
      4  CHD       -1.0670    3.4380   15.6460 C.2   501  HEM501      0.0000
      5  C1A        1.7250    8.0940   15.4360 C.ar  501  HEM501      0.0000
      6  C2A        2.4250    9.3470   15.2630 C.ar  501  HEM501      0.0000
      7  C3A        2.7980    9.4210   13.9730 C.ar  501  HEM501      0.0000
      8  C4A        2.3720    8.2080   13.3130 C.ar  501  HEM501      0.0000
      9  CMA        3.5750   10.5600   13.2860 C.3   501  HEM501      0.0000
     10  CAA        2.6150   10.4090   16.3690 C.3   501  HEM501      0.0000
     11  CBA        3.8660   10.2360   17.2330 C.3   501  HEM501      0.0000
     12  CGA        3.7870    9.0840   18.2070 C.2   501  HEM501      0.0000
     13  O1A        3.0280    9.1440   19.1980 O.co2 501  HEM501      0.0000
     14  O2A        4.5340    8.0880   17.9980 O.co2 501  HEM501      0.0000
     15  C1B        2.0890    6.7990   11.3160 C.2   501  HEM501      0.0000
     16  C2B        2.2950    6.5010    9.9150 C.2   501  HEM501      0.0000
     17  C3B        1.6680    5.3400    9.6470 C.2   501  HEM501      0.0000
     18  C4B        1.0660    4.8780   10.8800 C.2   501  HEM501      0.0000
     19  CMB        3.0850    7.4080    8.9460 C.3   501  HEM501      0.0000
     20  CAB        1.5960    4.5710    8.3110 C.2   501  HEM501      0.0000
     21  CBB        2.5170    4.7180    7.3560 C.2   501  HEM501      0.0000
     22  C1C       -0.3040    3.3300   12.1780 C.ar  501  HEM501      0.0000
     23  C2C       -1.1640    2.1700   12.3150 C.ar  501  HEM501      0.0000
     24  C3C       -1.5570    2.0920   13.5960 C.ar  501  HEM501      0.0000
     25  C4C       -0.9460    3.1990   14.3000 C.ar  501  HEM501      0.0000
     26  CMC       -1.5200    1.2160   11.1590 C.3   501  HEM501      0.0000
     27  CAC       -2.4700    1.0380   14.2760 C.2   501  HEM501      0.0000
     28  CBC       -3.5300    0.5120   13.6470 C.2   501  HEM501      0.0000
     29  C1D       -0.5290    4.5000   16.3260 C.2   501  HEM501      0.0000
     30  C2D       -0.5970    4.6470   17.7590 C.2   501  HEM501      0.0000
     31  C3D        0.0840    5.9470   18.0530 C.2   501  HEM501      0.0000
     32  C4D        0.5100    6.4640   16.7770 C.2   501  HEM501      0.0000
     33  CMD       -1.2340    3.7220   18.8090 C.3   501  HEM501      0.0000
     34  CAD        0.2390    6.5530   19.4560 C.3   501  HEM501      0.0000
     35  CBD       -1.0710    7.2570   19.7960 C.3   501  HEM501      0.0000
     36  CGD       -1.0400    7.8490   21.1790 C.2   501  HEM501      0.0000
     37  O1D       -1.3600    9.0620   21.3040 O.co2 501  HEM501      0.0000
     38  O2D       -0.7070    7.1300   22.1480 O.co2 501  HEM501      0.0000
     39  NA         1.6930    7.4440   14.2280 N.ar  501  HEM501      0.0000
     40  NB         1.3010    5.8020   11.8780 N.2   501  HEM501      0.0000
     41  NC        -0.2280    3.9510   13.4030 N.ar  501  HEM501      0.0000
     42  ND         0.1610    5.5760   15.7720 N.2   501  HEM501      0.0000
     43 FE          0.6730    5.7260   13.7970 Fe    501  HEM501      0.0000
@<TRIPOS>BOND
     1    21    20    2
     2    20    17    1
     3    19    16    1
     4    17    16    2
     5    17    18    1
     6    16    15    1
     7    18     3    2
     8    18    40    1
     9     3    22    1
    10    26    23    1
    11    15    40    2
    12    15     2    1
    13    40    43    1
    14     2     8    2
    15    22    23   ar
    16    22    41   ar
    17    23    24   ar
    18     9     7    1
    19     8     7   ar
    20     8    39   ar
    21    41    43    1
    22    41    25   ar
    23    24    27    1
    24    24    25   ar
    25    28    27    2
    26    43    39    1
    27    43    42    1
    28     7     6   ar
    29    39     5   ar
    30    25     4    1
    31     6     5   ar
    32     6    10    1
    33     5     1    2
    34     4    29    2
    35    42    29    1
    36    42    32    2
    37    29    30    1
    38    10    11    1
    39     1    32    1
    40    32    31    1
    41    11    12    1
    42    30    31    2
    43    30    33    1
    44    14    12   ar
    45    31    34    1
    46    12    13   ar
    47    34    35    1
    48    35    36    1
    49    36    37   ar
    50    36    38   ar
