@<TRIPOS>MOLECULE
3vyd_VYD_A_1.pdb
 31 33 0 0 0
SMALL
GASTEIGER

@<TRIPOS>ATOM
      1  C1       173.4250  199.5370   92.5130 C.ar  402  VYD402      0.0013
      2  C2       172.9670  198.3170   92.0460 C.ar  402  VYD402      0.0009
      3  C3       174.3350  199.6000   93.5500 C.ar  402  VYD402      0.0158
      4  C4       173.4130  197.1340   92.6030 C.ar  402  VYD402      0.0127
      5  C5       174.7820  198.4350   94.1190 C.ar  402  VYD402      0.0644
      6  C6       174.3210  197.2340   93.6410 C.ar  402  VYD402      0.0713
      7  C7       175.2650  198.3740   96.4510 C.2   402  VYD402      0.2458
      8  C8       178.9890  201.4900  101.8850 C.2   402  VYD402      0.2423
      9  C9       175.7000  199.4700   97.3210 C.3   402  VYD402      0.1590
     10  C10      178.1270  201.0980   99.6590 C.3   402  VYD402      0.0134
     11  C11      178.9580  203.3530  100.3970 C.3   402  VYD402      0.0978
     12  C12      178.0350  203.1630   98.2450 C.3   402  VYD402      0.0901
     13  C13      176.8210  199.3340   94.8850 C.3   402  VYD402      0.1128
     14  C14      179.1560  201.8600  100.4720 C.3   402  VYD402      0.0956
     15  C15      178.1960  201.6490   98.2470 C.3   402  VYD402      0.0339
     16  C16      177.7330  199.1800   96.0530 C.3   402  VYD402      0.0645
     17  C17      178.9210  200.0020   95.6500 C.3   402  VYD402      0.0178
     18  C18      178.1190  197.7400   96.3090 C.3   402  VYD402      0.0178
     19  C19      182.4440  198.6520  104.1840 C.3   402  VYD402      0.0001
     20  C20      182.7910  201.1520  104.0170 C.3   402  VYD402      0.0001
     21  C21      177.1290  201.1010   97.3410 C.3   402  VYD402      0.0739
     22  C22      180.4700  200.1870  104.2150 C.3   402  VYD402      0.0234
     23  C23      180.0950  201.6250  104.0350 C.3   402  VYD402      0.1151
     24  C24      181.9370  200.0310  104.5930 C.3   402  VYD402      0.0018
     25  N25      179.1210  203.7670   99.0110 N.3   402  VYD402     -0.2175
     26  N26      175.6990  198.4930   95.1510 N.am  402  VYD402     -0.2554
     27  N27      177.1310  199.6510   97.2980 N.3   402  VYD402     -0.2659
     28  N28      180.1060  201.8080  102.6110 N.am  402  VYD402     -0.2054
     29  O29      174.5790  197.5140   96.9500 O.2   402  VYD402     -0.2730
     30  O30      177.9730  200.9680  102.3030 O.2   402  VYD402     -0.2733
     31 CL        174.9130  195.8230   94.3650 Cl    402  VYD402     -0.0809
@<TRIPOS>BOND
     1     2     1   ar
     2     2     4   ar
     3     1     3   ar
     4     4     6   ar
     5     3     5   ar
     6     6     5   ar
     7     6    31    1
     8     5    26    1
     9    13    26    1
    10    13    16    1
    11    26     7   am
    12    17    16    1
    13    16    18    1
    14    16    27    1
    15     7    29    2
    16     7     9    1
    17    27     9    1
    18    27    21    1
    19    21    15    1
    20    12    15    1
    21    12    25    1
    22    15    10    1
    23    25    11    1
    24    10    14    1
    25    11    14    1
    26    14     8    1
    27     8    30    2
    28     8    28   am
    29    28    23    1
    30    20    24    1
    31    23    22    1
    32    19    24    1
    33    22    24    1
