@<TRIPOS>MOLECULE
3vye_VYE_A_1.pdb
 30 32 0 0 0
SMALL
GASTEIGER

@<TRIPOS>ATOM
      1  C1       179.7930  202.1500  100.7210 C.3   402  VYE402      0.0969
      2  C2       179.4240  203.6160  100.5170 C.3   402  VYE402      0.0979
      3  N3       179.5100  204.0200   99.1220 N.3   402  VYE402     -0.2161
      4  C4       178.6230  203.2160   98.2830 C.3   402  VYE402      0.1046
      5  C5       178.9560  201.7290   98.3620 C.3   402  VYE402      0.0758
      6  C6       178.9910  201.2090   99.8010 C.3   402  VYE402      0.0280
      7  N7       178.1080  200.9350   97.4740 N.3   402  VYE402     -0.2658
      8  C8       176.7920  200.5940   97.9520 C.3   402  VYE402      0.1590
      9  C9       175.8500  200.0060   96.8830 C.2   402  VYE402      0.2458
     10  N10      176.4170  199.6350   95.6740 N.am  402  VYE402     -0.2554
     11  C11      177.8600  199.7850   95.3910 C.3   402  VYE402      0.1128
     12  C12      178.7460  199.9750   96.6020 C.3   402  VYE402      0.0645
     13  O13      174.6600  199.8850   97.1190 O.2   402  VYE402     -0.2730
     14  C14      180.1180  200.5000   96.1500 C.3   402  VYE402      0.0178
     15  C15      178.9310  198.6410   97.3400 C.3   402  VYE402      0.0178
     16  C16      175.6030  199.1090   94.6860 C.ar  402  VYE402      0.0644
     17  C17      175.3040  197.7630   94.5850 C.ar  402  VYE402      0.0713
     18  C18      174.4870  197.2520   93.5920 C.ar  402  VYE402      0.0127
     19  C19      173.9500  198.1350   92.6610 C.ar  402  VYE402      0.0009
     20  C20      174.2380  199.4970   92.7400 C.ar  402  VYE402      0.0013
     21  C21      175.0670  199.9860   93.7540 C.ar  402  VYE402      0.0158
     22 CL1       175.9620  196.6730   95.7350 Cl    402  VYE402     -0.0809
     23  C23      179.6450  201.7510  102.1970 C.2   402  VYE402      0.2424
     24  O24      178.7060  201.0650  102.5920 O.2   402  VYE402     -0.2733
     25  N25      180.6350  202.2230  102.9770 N.am  402  VYE402     -0.2054
     26  C26      180.6000  201.9030  104.3970 C.3   402  VYE402      0.1151
     27  C27      181.0380  200.4520  104.6060 C.3   402  VYE402      0.0234
     28  C28      182.5190  200.3000  104.9620 C.3   402  VYE402      0.0018
     29  C29      183.0970  198.9570  104.5150 C.3   402  VYE402      0.0001
     30  C30      183.3890  201.4870  104.5340 C.3   402  VYE402      0.0001
@<TRIPOS>BOND
     1    19    20   ar
     2    19    18   ar
     3    20    21   ar
     4    18    17   ar
     5    21    16   ar
     6    17    16   ar
     7    17    22    1
     8    16    10    1
     9    11    10    1
    10    11    12    1
    11    10     9   am
    12    14    12    1
    13    12    15    1
    14    12     7    1
    15     9    13    2
    16     9     8    1
    17     7     8    1
    18     7     5    1
    19     4     5    1
    20     4     3    1
    21     5     6    1
    22     3     2    1
    23     6     1    1
    24     2     1    1
    25     1    23    1
    26    23    24    2
    27    23    25   am
    28    25    26    1
    29    26    27    1
    30    29    28    1
    31    30    28    1
    32    27    28    1
