@<TRIPOS>MOLECULE
3vyf_VYF_A_1.pdb
 34 36 0 0 0
SMALL
GASTEIGER

@<TRIPOS>ATOM
      1  C1       179.8850  202.0820  100.5240 C.3   402  VYF402      0.0969
      2  C2       179.4540  203.5470  100.4220 C.3   402  VYF402      0.0979
      3  N3       179.4900  204.0490   99.0530 N.3   402  VYF402     -0.2161
      4  C4       178.6080  203.2680   98.1940 C.3   402  VYF402      0.1046
      5  C5       179.0040  201.7930   98.1480 C.3   402  VYF402      0.0758
      6  C6       179.1320  201.1730   99.5450 C.3   402  VYF402      0.0280
      7  N7       178.1850  201.0140   97.2100 N.3   402  VYF402     -0.2658
      8  C8       177.0670  200.3720   97.8600 C.3   402  VYF402      0.1590
      9  C9       176.0720  199.8370   96.8320 C.2   402  VYF402      0.2458
     10  N10      176.6240  199.3500   95.6740 N.am  402  VYF402     -0.2554
     11  C11      178.0870  199.3410   95.4370 C.3   402  VYF402      0.1128
     12  C12      178.9670  200.0260   96.4880 C.3   402  VYF402      0.0645
     13  O13      174.8700  199.8560   97.0530 O.2   402  VYF402     -0.2730
     14  C14      179.5060  198.9670   97.4550 C.3   402  VYF402      0.0178
     15  C15      180.1380  200.7160   95.7870 C.3   402  VYF402      0.0178
     16  C16      175.7860  198.8470   94.6910 C.ar  402  VYF402      0.0644
     17  C17      175.4350  197.5080   94.6050 C.ar  402  VYF402      0.0713
     18  C18      174.5960  197.0330   93.6150 C.ar  402  VYF402      0.0127
     19  C19      174.1000  197.9240   92.6710 C.ar  402  VYF402      0.0009
     20  C20      174.4440  199.2740   92.7400 C.ar  402  VYF402      0.0013
     21  C21      175.2910  199.7360   93.7460 C.ar  402  VYF402      0.0158
     22 CL1       176.0490  196.3930   95.7740 Cl    402  VYF402     -0.0809
     23  C23      179.6900  201.5850  101.9580 C.2   402  VYF402      0.2423
     24  O24      178.7440  200.8760  102.2710 O.2   402  VYF402     -0.2733
     25  N25      180.6510  202.0050  102.8020 N.am  402  VYF402     -0.2072
     26  C26      180.5520  201.5850  104.1890 C.3   402  VYF402      0.0953
     27  C27      181.2660  200.2400  104.3790 C.3   402  VYF402      0.0217
     28  C28      181.0680  202.6920  105.1090 C.3   402  VYF402      0.0217
     29  C29      180.3550  204.0290  104.8870 C.3   402  VYF402      0.0017
     30  C30      181.0950  205.2050  105.5240 C.3   402  VYF402      0.0001
     31  C31      178.8760  203.9850  105.2710 C.3   402  VYF402      0.0001
     32  C32      182.7050  200.3670  104.8860 C.3   402  VYF402      0.0017
     33  C33      183.2750  199.0320  105.3630 C.3   402  VYF402      0.0001
     34  C34      183.6260  201.0770  103.8950 C.3   402  VYF402      0.0001
@<TRIPOS>BOND
     1    19    20   ar
     2    19    18   ar
     3    20    21   ar
     4    18    17   ar
     5    21    16   ar
     6    17    16   ar
     7    17    22    1
     8    16    10    1
     9    11    10    1
    10    11    12    1
    11    10     9   am
    12    15    12    1
    13    12     7    1
    14    12    14    1
    15     9    13    2
    16     9     8    1
    17     7     8    1
    18     7     5    1
    19     5     4    1
    20     5     6    1
    21     4     3    1
    22     3     2    1
    23     6     1    1
    24     2     1    1
    25     1    23    1
    26    23    24    2
    27    23    25   am
    28    25    26    1
    29    34    32    1
    30    26    27    1
    31    26    28    1
    32    27    32    1
    33    32    33    1
    34    29    28    1
    35    29    31    1
    36    29    30    1
