@<TRIPOS>MOLECULE
3vym_HEC_A_1.pdb
 43 50 0 0 0
SMALL
GASTEIGER

@<TRIPOS>ATOM
      1 FE         47.5740  -24.1610   -0.3750 Fe    101  HEC101      0.0000
      2  CHA       44.5920  -25.8450    0.2290 C.2   101  HEC101      0.0000
      3  CHB       48.3760  -24.4980    2.8850 C.2   101  HEC101      0.0000
      4  CHC       50.6000  -22.8940   -1.0240 C.2   101  HEC101      0.0000
      5  CHD       46.4960  -23.3990   -3.5720 C.2   101  HEC101      0.0000
      6  NA        46.6370  -25.0350    1.2650 N.2   101  HEC101      0.0000
      7  C1A       45.4520  -25.6750    1.3020 C.2   101  HEC101      0.0000
      8  C2A       45.2560  -26.1840    2.6590 C.2   101  HEC101      0.0000
      9  C3A       46.3120  -25.8320    3.4150 C.2   101  HEC101      0.0000
     10  C4A       47.2100  -25.1140    2.5190 C.2   101  HEC101      0.0000
     11  CMA       46.6070  -26.1130    4.9440 C.3   101  HEC101      0.0000
     12  CAA       43.9980  -27.0250    3.0290 C.3   101  HEC101      0.0000
     13  CBA       44.1190  -28.4800    2.5310 C.3   101  HEC101      0.0000
     14  CGA       42.8530  -29.2650    2.8220 C.2   101  HEC101      0.0000
     15  O1A       41.8530  -28.6770    3.3640 O.co2 101  HEC101      0.0000
     16  O2A       42.8630  -30.4400    2.4900 O.co2 101  HEC101      0.0000
     17  NB        49.1800  -23.7790    0.7260 N.ar  101  HEC101      0.0000
     18  C1B       49.3570  -23.9810    2.0670 C.ar  101  HEC101      0.0000
     19  C2B       50.7190  -23.6230    2.4690 C.ar  101  HEC101      0.0000
     20  C3B       51.3240  -23.1390    1.3480 C.ar  101  HEC101      0.0000
     21  C4B       50.3530  -23.2600    0.2820 C.ar  101  HEC101      0.0000
     22  CMB       51.2380  -23.6620    3.9470 C.3   101  HEC101      0.0000
     23  CAB       52.8030  -22.6360    1.0490 C.3   101  HEC101      0.0000
     24  CBB       53.8260  -23.6690    1.5770 C.3   101  HEC101      0.0000
     25  NC        48.3980  -23.2510   -1.9640 N.2   101  HEC101      0.0000
     26  C1C       49.7040  -22.8710   -2.0670 C.2   101  HEC101      0.0000
     27  C2C       49.9310  -22.2610   -3.3520 C.2   101  HEC101      0.0000
     28  C3C       48.8290  -22.5790   -4.1000 C.2   101  HEC101      0.0000
     29  C4C       47.8210  -23.1010   -3.2200 C.2   101  HEC101      0.0000
     30  CMC       51.3690  -21.8450   -3.7740 C.3   101  HEC101      0.0000
     31  CAC       48.3870  -22.2650   -5.5530 C.3   101  HEC101      0.0000
     32  CBC       49.4080  -22.0860   -6.6900 C.3   101  HEC101      0.0000
     33  ND        45.8630  -24.5450   -1.4510 N.ar  101  HEC101      0.0000
     34  C1D       45.6410  -24.1190   -2.7870 C.ar  101  HEC101      0.0000
     35  C2D       44.3520  -24.5470   -3.2320 C.ar  101  HEC101      0.0000
     36  C3D       43.7760  -25.3150   -2.0540 C.ar  101  HEC101      0.0000
     37  C4D       44.7620  -25.2630   -1.0010 C.ar  101  HEC101      0.0000
     38  CMD       43.7610  -24.2890   -4.6330 C.3   101  HEC101      0.0000
     39  CAD       42.4180  -26.0210   -1.9550 C.3   101  HEC101      0.0000
     40  CBD       42.7130  -27.4420   -2.4200 C.3   101  HEC101      0.0000
     41  CGD       41.4180  -28.1800   -2.4170 C.2   101  HEC101      0.0000
     42  O1D       41.4580  -29.3080   -1.9370 O.co2 101  HEC101      0.0000
     43  O2D       40.3820  -27.6450   -2.9270 O.co2 101  HEC101      0.0000
@<TRIPOS>BOND
     1    32    31    1
     2    31    28    1
     3    38    35    1
     4    28    27    2
     5    28    29    1
     6    30    27    1
     7     5    29    1
     8     5    34    2
     9    27    26    1
    10    35    34   ar
    11    35    36   ar
    12    29    25    2
    13    43    41   ar
    14    34    33   ar
    15    40    41    1
    16    40    39    1
    17    41    42   ar
    18    26    25    1
    19    26     4    2
    20    36    39    1
    21    36    37   ar
    22    25     1    1
    23    33    37   ar
    24    33     1    1
    25     4    21    1
    26    37     2    2
    27     1    17    1
    28     1     6    1
    29     2     7    1
    30    21    17   ar
    31    21    20   ar
    32    17    18   ar
    33    23    20    1
    34    23    24    1
    35     6     7    2
    36     6    10    1
    37     7     8    1
    38    20    19   ar
    39    18    19   ar
    40    18     3    1
    41    19    22    1
    42    16    14   ar
    43    10     3    2
    44    10     9    1
    45    13    14    1
    46    13    12    1
    47     8    12    1
    48     8     9    2
    49    14    15   ar
    50     9    11    1
