@<TRIPOS>MOLECULE
3vyw_SAM_A_1.pdb
 27 29 0 0 0
SMALL
GASTEIGER

@<TRIPOS>ATOM
      1  N          4.7110   -2.2390   -0.6320 N.3   501  SAM501     -0.1208
      2  CA         4.6660   -3.3010   -1.5650 C.3   501  SAM501      0.1952
      3  C          5.1990   -2.7110   -2.8120 C.2   501  SAM501      0.3819
      4  O          5.4910   -3.3700   -3.7790 O.co2 501  SAM501     -0.2441
      5  OXT        5.3880   -1.5310   -2.8340 O.co2 501  SAM501     -0.2441
      6  CB         3.2370   -3.7960   -1.5340 C.3   501  SAM501      0.0414
      7  CG         3.0960   -4.6710   -0.2830 C.3   501  SAM501      0.0503
      8  SD         1.6250   -5.3320    0.0270 S.3   501  SAM501     -0.1761
      9  CE         0.4960   -4.1650   -0.1000 C.3   501  SAM501      0.0590
     10  C5'        1.5270   -5.8820    1.5880 C.3   501  SAM501      0.0806
     11  C4'        2.7950   -6.5120    2.1790 C.3   501  SAM501      0.1622
     12  O4'        2.7300   -6.4690    3.5910 O.3   501  SAM501     -0.3153
     13  C3'        2.9810   -7.9780    1.8500 C.3   501  SAM501      0.2168
     14  O3'        4.3370   -8.2320    1.5580 O.3   501  SAM501     -0.2175
     15  C2'        2.6370   -8.6890    3.1290 C.3   501  SAM501      0.2569
     16  O2'        3.3440   -9.8940    3.2300 O.3   501  SAM501     -0.2130
     17  C1'        3.0940   -7.7100    4.1580 C.3   501  SAM501      0.3185
     18  N9         2.5350   -7.9210    5.5110 N.pl3 501  SAM501     -0.1439
     19  C8         1.2850   -8.1320    5.8480 C.3   501  SAM501      0.3377
     20  N7         1.1380   -8.2600    7.1520 N.2   501  SAM501     -0.2095
     21  C5         2.3150   -8.1350    7.6890 C.2   501  SAM501      0.2526
     22  C6         2.8650   -8.1650    9.0370 C.2   501  SAM501      0.4393
     23  N6         2.1120   -8.3660   10.1040 N.pl3 501  SAM501      0.2180
     24  N1         4.1480   -7.9900    9.1730 N.2   501  SAM501      0.0021
     25  C2         4.9240   -7.7800    8.1520 C.3   501  SAM501      0.5254
     26  N3         4.4970   -7.7540    6.9260 N.2   501  SAM501     -0.0055
     27  C4         3.2280   -7.9210    6.6160 C.2   501  SAM501      0.3518
@<TRIPOS>BOND
     1     4     3   ar
     2     5     3   ar
     3     3     2    1
     4     2     6    1
     5     2     1    1
     6     6     7    1
     7     7     8    1
     8     9     8    1
     9     8    10    1
    10    14    13    1
    11    10    11    1
    12    13    11    1
    13    13    15    1
    14    11    12    1
    15    15    16    1
    16    15    17    1
    17    12    17    1
    18    17    18    1
    19    18    19    1
    20    18    27    1
    21    19    20    1
    22    27    26    2
    23    27    21    1
    24    26    25    1
    25    20    21    2
    26    21    22    1
    27    25    24    1
    28    22    24    2
    29    22    23    1
