@<TRIPOS>MOLECULE
3vzv_VZV_A_1.pdb
 38 42 0 0 0
SMALL
GASTEIGER

@<TRIPOS>ATOM
      1  O43       10.1510   -3.5540  -32.2010 O.2   200  VZV200     -0.2739
      2  C42        9.2080   -3.9500  -31.5020 C.2   200  VZV200      0.2377
      3  N5         8.2350   -4.7920  -31.9980 N.am  200  VZV200     -0.2723
      4  C4         8.1770   -5.2340  -33.3980 C.3   200  VZV200      0.1520
      5  C6         7.7870   -3.9400  -34.2390 C.2   200  VZV200      0.2438
      6  O10        7.9820   -4.0040  -35.4730 O.2   200  VZV200     -0.2731
      7  N7         7.2710   -2.7160  -33.6980 N.am  200  VZV200     -0.2747
      8  C9         5.9070   -2.5370  -33.0190 C.3   200  VZV200      0.1150
      9  C8         8.1050   -1.4560  -33.8040 C.3   200  VZV200      0.1150
     10  C3         7.0850   -6.2890  -33.3440 C.3   200  VZV200      0.0310
     11  C2         6.8330   -6.6030  -31.8580 C.3   200  VZV200      0.0237
     12  C1         7.0540   -5.2500  -31.2180 C.3   200  VZV200      0.0939
     13  C37        9.1520   -3.3520  -30.1050 C.3   200  VZV200      0.1488
     14  C38       10.2610   -3.4980  -29.0450 C.3   200  VZV200      0.0939
     15  C39       10.9650   -4.8370  -28.6520 C.3   200  VZV200      0.0196
     16  C41       10.5100   -6.1860  -29.2050 C.3   200  VZV200      0.0017
     17  C40       12.4810   -4.6530  -28.8210 C.3   200  VZV200      0.0017
     18  N35        9.5080   -2.9420  -27.8980 N.pl3 200  VZV200     -0.2846
     19  C31        9.9030   -2.7800  -26.5390 C.3   200  VZV200      0.1214
     20  C24        9.3540   -3.9140  -25.6910 C.ar  200  VZV200     -0.0021
     21  C23       10.1780   -4.3570  -24.6700 C.ar  200  VZV200     -0.0017
     22  C22        9.7020   -5.3560  -23.8720 C.ar  200  VZV200      0.0111
     23  C25        8.0940   -4.4820  -25.9540 C.ar  200  VZV200     -0.0017
     24  C26        7.6220   -5.5060  -25.1400 C.ar  200  VZV200      0.0111
     25  C21        8.4410   -5.9200  -24.1030 C.ar  200  VZV200      0.0577
     26 CL2         7.9610   -7.1870  -22.9740 Cl    200  VZV200     -0.0822
     27  S36        8.0750   -2.1260  -29.7810 S.3   200  VZV200     -0.0702
     28  C34        8.6840   -1.9040  -28.1970 C.2   200  VZV200      0.1553
     29  N33        8.5370   -1.0180  -27.3510 N.2   200  VZV200     -0.2486
     30  C32        9.3900   -1.3490  -26.1780 C.3   200  VZV200      0.1255
     31  C44       10.5900   -0.3800  -26.1020 C.3   200  VZV200      0.0310
     32  C15        8.6360   -1.3260  -24.8030 C.ar  200  VZV200     -0.0003
     33  C16        9.4350   -1.2800  -23.6510 C.ar  200  VZV200     -0.0016
     34  C11        8.8800   -1.2840  -22.3890 C.ar  200  VZV200      0.0111
     35  C14        7.2350   -1.3900  -24.6720 C.ar  200  VZV200     -0.0016
     36  C13        6.6910   -1.3960  -23.4050 C.ar  200  VZV200      0.0111
     37  C12        7.5130   -1.3420  -22.2760 C.ar  200  VZV200      0.0577
     38 CL1         6.8510   -1.3150  -20.6410 Cl    200  VZV200     -0.0822
@<TRIPOS>BOND
     1     6     5    2
     2     5     7   am
     3     5     4    1
     4     9     7    1
     5     7     8    1
     6     4    10    1
     7     4     3    1
     8    10    11    1
     9     1     2    2
    10     3     2   am
    11     3    12    1
    12    11    12    1
    13     2    13    1
    14    13    27    1
    15    13    14    1
    16    27    28    1
    17    16    15    1
    18    14    15    1
    19    14    18    1
    20    17    15    1
    21    28    18    1
    22    28    29    2
    23    18    19    1
    24    29    30    1
    25    19    30    1
    26    19    20    1
    27    30    31    1
    28    30    32    1
    29    23    20   ar
    30    23    24   ar
    31    20    21   ar
    32    24    25   ar
    33    32    35   ar
    34    32    33   ar
    35    35    36   ar
    36    21    22   ar
    37    25    22   ar
    38    25    26    1
    39    33    34   ar
    40    36    37   ar
    41    34    37   ar
    42    37    38    1
