@<TRIPOS>MOLECULE
3vzw_GAL_X_1.pdb
 12 12 0 0 0
SMALL
GASTEIGER

@<TRIPOS>ATOM
      1  C1        25.0160   15.6240    7.4280 C.3   401  GAL401      0.3024
      2  C2        25.7680   16.9300    7.1720 C.3   401  GAL401      0.2434
      3  C3        25.7790   17.7830    8.4430 C.3   401  GAL401      0.2199
      4  C4        24.3840   17.9400    9.0260 C.3   401  GAL401      0.2144
      5  C5        23.6910   16.5730    9.1180 C.3   401  GAL401      0.1836
      6  C6        22.2610   16.7100    9.6520 C.3   401  GAL401      0.2142
      7  O1        24.9670   14.8400    6.2340 O.3   401  GAL401     -0.1869
      8  O2        27.1130   16.6160    6.8220 O.3   401  GAL401     -0.2148
      9  O3        26.2800   19.0800    8.1000 O.3   401  GAL401     -0.2174
     10  O4        23.5950   18.7580    8.1590 O.3   401  GAL401     -0.2176
     11  O5        23.6770   15.9220    7.8440 O.3   401  GAL401     -0.3236
     12  O6        21.5360   15.5150   10.0070 O.3   401  GAL401     -0.2176
@<TRIPOS>BOND
     1     7     1    1
     2     8     2    1
     3     2     1    1
     4     2     3    1
     5     1    11    1
     6    11     5    1
     7     9     3    1
     8    10     4    1
     9     3     4    1
    10     4     5    1
    11     5     6    1
    12     6    12    1
