@<TRIPOS>MOLECULE
3vzy_1GP_B_1.pdb
 10 9 0 0 0
SMALL
GASTEIGER

@<TRIPOS>ATOM
      1  C3        -4.1160   -7.5410   34.5240 C.3   301  1GP301      0.2174
      2  O3        -2.0900   -6.0630   34.6930 O.3   301  1GP301     -0.2176
      3  C2        -3.5270   -6.0970   34.6970 C.3   301  1GP301      0.2147
      4  O2        -3.9120   -8.0010   33.1770 O.3   301  1GP301     -0.2175
      5  C1        -4.0570   -5.4350   36.0110 C.3   301  1GP301      0.1892
      6  O1P       -3.4740   -6.1420   37.1170 O.3   301  1GP301     -0.2674
      7  O2P       -5.6840   -7.1300   38.2430 O.2   301  1GP301     -0.2224
      8  O3P       -3.5100   -6.9340   39.6480 O.3   301  1GP301     -0.1145
      9  O4P       -4.6930   -4.8830   38.8970 O.3   301  1GP301     -0.1145
     10  P         -4.3760   -6.3160   38.4990 P.3   301  1GP301      0.5327
@<TRIPOS>BOND
     1     4     1    1
     2     1     3    1
     3     2     3    1
     4     3     5    1
     5     5     6    1
     6     6    10    1
     7     7    10    2
     8    10     9    1
     9    10     8    1
