@<TRIPOS>MOLECULE
3vzz_FPS_B_1.pdb
 24 23 0 0 0
SMALL
GASTEIGER

@<TRIPOS>ATOM
      1  C1        -2.9440  -11.2980   30.7810 C.3   301  FPS301      0.0942
      2  S1        -4.5940  -10.5610   31.2010 S.3   301  FPS301     -0.0237
      3  C2        -2.7000  -11.6050   29.3140 C.2   301  FPS301     -0.0224
      4  C3        -2.3660  -12.8150   28.8080 C.2   301  FPS301     -0.0470
      5  C4        -2.1830  -14.0630   29.6480 C.3   301  FPS301      0.0261
      6  C5        -2.1780  -12.8700   27.3330 C.3   301  FPS301      0.0264
      7  C6        -2.0990  -14.2590   26.6550 C.3   301  FPS301      0.0297
      8  C7        -2.5720  -13.9540   25.2870 C.2   301  FPS301     -0.0342
      9  C8        -1.9020  -13.9710   24.1680 C.2   301  FPS301     -0.0478
     10  C10       -2.7300  -13.5780   22.9470 C.3   301  FPS301      0.0263
     11  C9        -0.4250  -14.3260   24.0530 C.3   301  FPS301      0.0260
     12  C11       -2.7620  -14.6260   21.8980 C.3   301  FPS301      0.0297
     13  C12       -3.0160  -13.9230   20.5960 C.2   301  FPS301     -0.0342
     14  C13       -4.1130  -14.1060   19.8830 C.2   301  FPS301     -0.0478
     15  C14       -5.2180  -15.0580   20.3340 C.3   301  FPS301      0.0260
     16  C15       -4.2560  -13.3360   18.5720 C.3   301  FPS301      0.0260
     17  PA        -4.4360   -9.9560   33.1600 P.3   301  FPS301      0.4273
     18  O1A       -5.7760   -9.4220   33.6770 O.3   301  FPS301     -0.1309
     19  O2A       -3.3760   -8.8200   33.2390 O.2   301  FPS301     -0.2431
     20  O3A       -3.9850  -11.2560   34.0730 O.3   301  FPS301     -0.1955
     21  PB        -5.0470  -12.3760   34.7510 P.3   301  FPS301      0.5394
     22  O1B       -6.3930  -12.4750   33.9830 O.2   301  FPS301     -0.2220
     23  O2B       -4.3880  -13.7950   34.6930 O.3   301  FPS301     -0.1143
     24  O3B       -5.4130  -11.8920   36.2110 O.3   301  FPS301     -0.1143
@<TRIPOS>BOND
     1    16    14    1
     2    14    15    1
     3    14    13    2
     4    13    12    1
     5    12    10    1
     6    10     9    1
     7    11     9    1
     8     9     8    2
     9     8     7    1
    10     7     6    1
    11     6     4    1
    12     4     3    2
    13     4     5    1
    14     3     1    1
    15     1     2    1
    16     2    17    1
    17    17    19    2
    18    17    18    1
    19    17    20    1
    20    22    21    2
    21    20    21    1
    22    23    21    1
    23    21    24    1
