@<TRIPOS>MOLECULE
3w00_FPS_B_1.pdb
 24 23 0 0 0
SMALL
GASTEIGER

@<TRIPOS>ATOM
      1  C1        -2.5590  -11.8470   31.3040 C.3   301  FPS301      0.0942
      2  S1        -4.3310  -11.4080   31.5320 S.3   301  FPS301     -0.0237
      3  C2        -2.2400  -12.0200   29.8070 C.2   301  FPS301     -0.0224
      4  C3        -2.3950  -13.1470   29.0950 C.2   301  FPS301     -0.0470
      5  C4        -2.9310  -14.4410   29.7210 C.3   301  FPS301      0.0261
      6  C5        -2.0090  -13.0720   27.6250 C.3   301  FPS301      0.0264
      7  C6        -2.0740  -14.4010   26.8060 C.3   301  FPS301      0.0297
      8  C7        -2.6070  -14.0910   25.4060 C.2   301  FPS301     -0.0342
      9  C8        -1.9340  -14.1170   24.2440 C.2   301  FPS301     -0.0478
     10  C10       -2.7310  -13.7500   23.0100 C.3   301  FPS301      0.0263
     11  C9        -0.4580  -14.4750   24.1120 C.3   301  FPS301      0.0260
     12  C11       -2.7640  -14.7900   21.8960 C.3   301  FPS301      0.0297
     13  C12       -2.9710  -14.0070   20.6180 C.2   301  FPS301     -0.0342
     14  C13       -4.0420  -14.0330   19.8480 C.2   301  FPS301     -0.0478
     15  C14       -5.2760  -14.8850   20.1370 C.3   301  FPS301      0.0260
     16  C15       -4.0260  -13.1650   18.6200 C.3   301  FPS301      0.0260
     17  PA        -5.0790  -11.0950   33.3940 P.3   301  FPS301      0.4273
     18  O1A       -6.5640  -10.7620   33.1950 O.2   301  FPS301     -0.2431
     19  O2A       -4.3850   -9.9020   34.0030 O.3   301  FPS301     -0.1309
     20  O3A       -4.8950  -12.3730   34.4240 O.3   301  FPS301     -0.1955
     21  PB        -5.9250  -12.7970   35.6490 P.3   301  FPS301      0.5394
     22  O1B       -7.2670  -13.1900   35.0070 O.2   301  FPS301     -0.2220
     23  O2B       -5.4040  -14.0110   36.4340 O.3   301  FPS301     -0.1143
     24  O3B       -6.1600  -11.6020   36.6030 O.3   301  FPS301     -0.1143
@<TRIPOS>BOND
     1    16    14    1
     2    14    15    1
     3    14    13    2
     4    13    12    1
     5    12    10    1
     6    10     9    1
     7    11     9    1
     8     9     8    2
     9     8     7    1
    10     7     6    1
    11     6     4    1
    12     4     5    1
    13     4     3    2
    14     3     1    1
    15     1     2    1
    16     2    17    1
    17    18    17    2
    18    17    19    1
    19    17    20    1
    20    20    21    1
    21    22    21    2
    22    21    23    1
    23    21    24    1
