@<TRIPOS>MOLECULE
3w00_1GP_B_1.pdb
 10 9 0 0 0
SMALL
GASTEIGER

@<TRIPOS>ATOM
      1  C3        -2.7260   -6.9300   34.8620 C.3   302  1GP302      0.2174
      2  O3        -5.0170   -7.5060   35.6610 O.3   302  1GP302     -0.2176
      3  C2        -3.6840   -7.1300   36.0450 C.3   302  1GP302      0.2147
      4  O2        -2.7980   -8.0530   33.9850 O.3   302  1GP302     -0.2175
      5  C1        -3.6280   -5.8220   36.8920 C.3   302  1GP302      0.1892
      6  O1P       -3.0110   -6.0890   38.1680 O.3   302  1GP302     -0.2674
      7  O2P       -4.4420   -8.0530   38.8910 O.2   302  1GP302     -0.2224
      8  O3P       -3.3300   -6.6670   40.7530 O.3   302  1GP302     -0.1145
      9  O4P       -5.1250   -5.7750   39.3100 O.3   302  1GP302     -0.1145
     10  P         -3.9330   -6.6670   39.3060 P.3   302  1GP302      0.5327
@<TRIPOS>BOND
     1     4     1    1
     2     1     3    1
     3     2     3    1
     4     3     5    1
     5     5     6    1
     6     6    10    1
     7     7    10    2
     8    10     9    1
     9    10     8    1
