@<TRIPOS>MOLECULE
3w05_PMS_A_1.pdb
 10 10 0 0 0
SMALL
GASTEIGER

@<TRIPOS>ATOM
      1  C        -25.9740   15.7040  -19.9300 C.3   401  PMS401      0.1742
      2  S        -24.4540   16.0110  -19.1680 S.3   401  PMS401     -0.0138
      3  C1       -27.1120   16.1980  -19.0540 C.ar  401  PMS401      0.0010
      4  C2       -27.7600   17.4040  -19.3040 C.ar  401  PMS401     -0.0026
      5  C3       -28.7600   17.8590  -18.4470 C.ar  401  PMS401     -0.0003
      6  C4       -29.1450   17.1140  -17.3330 C.ar  401  PMS401     -0.0000
      7  C5       -28.5020   15.9020  -17.1010 C.ar  401  PMS401     -0.0003
      8  C6       -27.4980   15.4600  -17.9540 C.ar  401  PMS401     -0.0026
      9  O2S      -24.3720   17.6350  -18.8770 O.3   401  PMS401     -0.0778
     10  O1S      -24.0950   15.1100  -18.0570 O.3   401  PMS401     -0.0778
@<TRIPOS>BOND
     1     1     2    1
     2     1     3    1
     3     4     3   ar
     4     4     5   ar
     5     2     9    1
     6     2    10    1
     7     3     8   ar
     8     5     6   ar
     9     8     7   ar
    10     6     7   ar
