@<TRIPOS>MOLECULE
3w07_U5P_A_1.pdb
 25 26 0 0 0
SMALL
GASTEIGER

@<TRIPOS>ATOM
      1  N1        16.6130   40.2200   35.8650 N.am  301  U5P301     -0.1840
      2  C2        15.6600   39.4660   36.5320 C.1   301  U5P301      0.2842
      3  N3        14.3640   39.8100   36.3480 N.2   301  U5P301     -0.2452
      4  C4        13.9080   40.8370   35.5420 C.1   301  U5P301      0.2182
      5  C5        14.9010   41.5900   34.8970 C.2   301  U5P301      0.1242
      6  C6        16.2180   41.2370   34.9620 C.2   301  U5P301      0.0925
      7  O2        15.9700   38.5160   37.2280 O.2   301  U5P301     -0.1919
      8  O4        12.6730   41.0020   35.4750 O.2   301  U5P301     -0.2085
      9  C1'       18.0240   39.8990   35.9710 C.3   301  U5P301      0.1786
     10  C2'       18.6140   39.9020   37.3700 C.3   301  U5P301      0.2235
     11  O2'       19.1030   41.1590   37.7370 O.3   301  U5P301     -0.2163
     12  C3'       19.7430   38.8950   37.2210 C.3   301  U5P301      0.2085
     13  C4'       19.1560   37.8860   36.2720 C.3   301  U5P301      0.1229
     14  O3'       20.8410   39.5530   36.5940 O.3   301  U5P301     -0.2180
     15  O4'       18.2600   38.6160   35.4180 O.3   301  U5P301     -0.3457
     16  C5'       18.4400   36.7360   36.9580 C.3   301  U5P301      0.0885
     17  O5'       19.4600   35.9430   37.5150 O.3   301  U5P301     -0.2809
     18  P         19.1290   34.6010   38.3520 P.3   301  U5P301      0.5320
     19  O1P       17.8180   34.8100   39.0860 O.3   301  U5P301     -0.1145
     20  O2P       20.3270   34.4950   39.2570 O.3   301  U5P301     -0.1145
     21  O3P       19.0400   33.4700   37.3670 O.2   301  U5P301     -0.2224
     22  H1'       18.5210   40.5520   35.4350 H     301  U5P301      0.0852
     23  H4'       19.8790   37.5180   35.7220 H     301  U5P301      0.0652
     24 H5'1       17.8460   37.0670   37.6510 H     301  U5P301      0.0592
     25 H5'2       17.9190   36.2260   36.3190 H     301  U5P301      0.0592
@<TRIPOS>BOND
     1     5     6    2
     2     5     4    1
     3     6     1    1
     4    15     9    1
     5    15    13    1
     6    22     9    1
     7     8     4    2
     8     4     3    2
     9    23    13    1
    10     1     9    1
    11     1     2   am
    12     9    10    1
    13    13    16    1
    14    13    12    1
    15    25    16    1
    16     3     2    2
    17     2     7    2
    18    14    12    1
    19    16    17    1
    20    16    24    1
    21    12    10    1
    22    21    18    2
    23    10    11    1
    24    17    18    1
    25    18    19    1
    26    18    20    1
