@<TRIPOS>MOLECULE
3w08_HEM_A_1.pdb
 43 50 0 0 0
SMALL
GASTEIGER

@<TRIPOS>ATOM
      1  CHA       -6.1100   -1.6090   35.2330 C.2   501  HEM501      0.0000
      2  CHB       -5.3910   -6.2480   36.5580 C.2   501  HEM501      0.0000
      3  CHC       -2.8640   -6.7970   32.4920 C.2   501  HEM501      0.0000
      4  CHD       -5.0810   -2.9100   30.6380 C.2   501  HEM501      0.0000
      5  C1A       -6.0480   -2.7730   35.9870 C.2   501  HEM501      0.0000
      6  C2A       -6.4380   -2.9140   37.3770 C.2   501  HEM501      0.0000
      7  C3A       -6.2380   -4.2360   37.7240 C.2   501  HEM501      0.0000
      8  C4A       -5.7270   -4.9120   36.5680 C.2   501  HEM501      0.0000
      9  CMA       -6.4720   -4.9390   39.0810 C.3   501  HEM501      0.0000
     10  CAA       -6.9610   -1.7730   38.2800 C.3   501  HEM501      0.0000
     11  CBA       -5.7370   -1.2710   39.0370 C.3   501  HEM501      0.0000
     12  CGA       -6.1240   -0.1740   40.0210 C.2   501  HEM501      0.0000
     13  O1A       -5.9100   -0.4280   41.2410 O.co2 501  HEM501      0.0000
     14  O2A       -6.5920    0.9090   39.5360 O.co2 501  HEM501      0.0000
     15  C1B       -4.5430   -6.8150   35.6340 C.ar  501  HEM501      0.0000
     16  C2B       -3.7780   -8.0550   35.7650 C.ar  501  HEM501      0.0000
     17  C3B       -3.0820   -8.1640   34.5920 C.ar  501  HEM501      0.0000
     18  C4B       -3.3810   -7.0060   33.7510 C.ar  501  HEM501      0.0000
     19  CMB       -3.7680   -9.0680   36.9620 C.3   501  HEM501      0.0000
     20  CAB       -2.1260   -9.2470   34.1550 C.2   501  HEM501      0.0000
     21  CBB       -1.3810   -9.8400   35.0800 C.2   501  HEM501      0.0000
     22  C1C       -3.2780   -5.8390   31.5940 C.2   501  HEM501      0.0000
     23  C2C       -2.8720   -5.7600   30.2070 C.2   501  HEM501      0.0000
     24  C3C       -3.5380   -4.6980   29.6920 C.2   501  HEM501      0.0000
     25  C4C       -4.3080   -4.0650   30.7490 C.2   501  HEM501      0.0000
     26  CMC       -1.8670   -6.7040   29.4520 C.3   501  HEM501      0.0000
     27  CAC       -3.4040   -4.2180   28.2710 C.2   501  HEM501      0.0000
     28  CBC       -4.3560   -3.6190   27.6200 C.2   501  HEM501      0.0000
     29  C1D       -5.4920   -2.1740   31.7280 C.ar  501  HEM501      0.0000
     30  C2D       -5.9320   -0.7880   31.6680 C.ar  501  HEM501      0.0000
     31  C3D       -6.2390   -0.4280   33.0550 C.ar  501  HEM501      0.0000
     32  C4D       -5.9430   -1.6000   33.8800 C.ar  501  HEM501      0.0000
     33  CMD       -6.1050    0.0810   30.4040 C.3   501  HEM501      0.0000
     34  CAD       -6.7270    0.9180   33.5780 C.3   501  HEM501      0.0000
     35  CBD       -8.2180    0.8720   33.7570 C.3   501  HEM501      0.0000
     36  CGD       -8.7000    2.2370   34.2280 C.2   501  HEM501      0.0000
     37  O1D       -8.1900    2.6810   35.2490 O.co2 501  HEM501      0.0000
     38  O2D       -9.6260    2.8030   33.5770 O.co2 501  HEM501      0.0000
     39  NA        -5.6210   -4.0000   35.5000 N.2   501  HEM501      0.0000
     40  NB        -4.2680   -6.2280   34.4350 N.ar  501  HEM501      0.0000
     41  NC        -4.1500   -4.8190   31.8930 N.2   501  HEM501      0.0000
     42  ND        -5.4760   -2.5760   33.0290 N.ar  501  HEM501      0.0000
     43 FE         -4.9180   -4.4310   33.6740 Fe    501  HEM501      0.0000
@<TRIPOS>BOND
     1    28    27    2
     2    27    24    1
     3    26    23    1
     4    24    23    2
     5    24    25    1
     6    23    22    1
     7    33    30    1
     8     4    25    1
     9     4    29    2
    10    25    41    2
    11    22    41    1
    12    22     3    2
    13    30    29   ar
    14    30    31   ar
    15    29    42   ar
    16    41    43    1
    17     3    18    1
    18    42    43    1
    19    42    32   ar
    20    31    34    1
    21    31    32   ar
    22    38    36   ar
    23    34    35    1
    24    43    40    1
    25    43    39    1
    26    18    40   ar
    27    18    17   ar
    28    35    36    1
    29    32     1    2
    30    20    17    1
    31    20    21    2
    32    36    37   ar
    33    40    15   ar
    34    17    16   ar
    35     1     5    1
    36    39     5    2
    37    39     8    1
    38    15    16   ar
    39    15     2    1
    40    16    19    1
    41     5     6    1
    42     2     8    2
    43     8     7    1
    44     6     7    2
    45     6    10    1
    46     7     9    1
    47    10    11    1
    48    11    12    1
    49    14    12   ar
    50    12    13   ar
