@<TRIPOS>MOLECULE
3w2o_03P_A_1.pdb
 38 41 0 0 0
SMALL
GASTEIGER

@<TRIPOS>ATOM
      1  N1       -52.1510    2.1220  -22.8700 N.2   1101  03P1101    -0.0350
      2  N3       -47.8660   -1.1650  -21.8410 N.am  1101  03P1101    -0.2035
      3  C4       -50.5690    1.1850  -18.7860 C.2   1101  03P1101     0.0633
      4  C5       -51.7780    1.8470  -18.8100 C.2   1101  03P1101     0.0325
      5  C6       -48.7720    0.2360  -20.0680 C.3   1101  03P1101     0.1150
      6  C7       -47.9830    0.1950  -21.3570 C.3   1101  03P1101     0.1365
      7  C8       -47.1420   -1.4080  -22.9260 C.2   1101  03P1101     0.2439
      8  C10      -50.0240    1.3660  -24.5580 C.ar  1101  03P1101     0.1842
      9  C13      -49.8610    1.9510  -27.3330 C.ar  1101  03P1101     0.1560
     10  C15      -49.7870    0.3510  -25.4890 C.ar  1101  03P1101     0.0476
     11  C17      -50.4560    1.0930  -30.6780 C.ar  1101  03P1101     0.0375
     12  C20      -47.9420   -0.1420  -30.7920 C.ar  1101  03P1101     0.0744
     13  C21      -48.2450    0.7630  -29.7700 C.ar  1101  03P1101     0.0413
     14  C22      -46.5730   -0.7950  -30.8410 C.3   1101  03P1101     0.4187
     15  C24      -44.5230   -0.3080  -22.4320 C.3   1101  03P1101     0.0334
     16  F2       -46.1250   -1.0680  -29.6150 F     1101  03P1101    -0.1659
     17  F        -46.6170   -1.9150  -31.5580 F     1101  03P1101    -0.1659
     18  F1       -45.7220    0.0380  -31.4200 F     1101  03P1101    -0.1659
     19  C19      -48.9080   -0.4120  -31.7680 C.ar  1101  03P1101     0.0041
     20  C18      -50.1610    0.2010  -31.7110 C.ar  1101  03P1101     0.0031
     21  C16      -49.5020    1.3810  -29.6990 C.ar  1101  03P1101     0.1453
     22  O1       -49.7910    2.2800  -28.6820 O.3   1101  03P1101    -0.4526
     23  C12      -50.1080    2.9710  -26.4140 C.ar  1101  03P1101     0.0956
     24 CL        -50.3160    4.6520  -27.0380 Cl    1101  03P1101    -0.0789
     25  C11      -50.1760    2.6820  -25.0400 C.ar  1101  03P1101     0.0589
     26  C14      -49.7060    0.6330  -26.8590 C.ar  1101  03P1101     0.0420
     27  N4       -50.1010    1.0380  -23.2180 N.pl3 1101  03P1101    -0.0082
     28  C1       -51.0320    1.5180  -22.3550 C.2   1101  03P1101     0.3628
     29  C        -53.1400    2.6330  -22.1080 C.3   1101  03P1101     0.3914
     30  C3       -50.9470    1.4420  -20.9520 C.3   1101  03P1101     0.2238
     31  C2       -51.9750    1.9830  -20.2100 C.2   1101  03P1101     0.0895
     32  N        -53.0580    2.5730  -20.7680 N.2   1101  03P1101    -0.2207
     33  N2       -50.0630    0.9450  -20.0260 N.pl3 1101  03P1101    -0.2917
     34  O        -47.3620   -0.8710  -24.0020 O.2   1101  03P1101    -0.2733
     35  C9       -45.9910   -2.3740  -22.7610 C.3   1101  03P1101     0.1171
     36  C23      -44.6500   -1.6960  -23.0550 C.3   1101  03P1101     0.1355
     37  O2       -43.6160   -2.4950  -22.4780 O.3   1101  03P1101    -0.2252
     38  C25      -44.4170   -1.6260  -24.5630 C.3   1101  03P1101     0.0334
@<TRIPOS>BOND
     1    19    20   ar
     2    19    12   ar
     3    20    11   ar
     4    17    14    1
     5    18    14    1
     6    14    12    1
     7    14    16    1
     8    12    13   ar
     9    11    21   ar
    10    13    21   ar
    11    21    22    1
    12    22     9    1
    13     9    26   ar
    14     9    23   ar
    15    24    23    1
    16    26    10   ar
    17    23    25   ar
    18    10     8   ar
    19    25     8   ar
    20    38    36    1
    21     8    27    1
    22    34     7    2
    23    27    28    1
    24    36    35    1
    25    36    37    1
    26    36    15    1
    27     7    35    1
    28     7     2   am
    29     1    28    2
    30     1    29    1
    31    28    30    1
    32    29    32    1
    33     2     6    1
    34     6     5    1
    35    30    31    1
    36    30    33    1
    37    32    31    2
    38    31     4    1
    39     5    33    1
    40    33     3    1
    41     4     3    2
