@<TRIPOS>MOLECULE
3w2q_HKI_A_1.pdb
 40 43 0 0 0
SMALL
GASTEIGER

@<TRIPOS>ATOM
      1  CAJ        1.6540   24.0130   52.9560 C.1   1101  HKI1101     0.1033
      2  CAL        1.4380   32.8040   50.9840 C.ar  1101  HKI1101     0.0029
      3  CAK        0.7120   33.1510   49.8680 C.ar  1101  HKI1101     0.0207
      4  CAO       -0.6920   25.3770   50.5860 C.ar  1101  HKI1101     0.0197
      5  CAP       -0.3220   26.6740   50.2790 C.ar  1101  HKI1101     0.0391
      6  CAN        1.5180   31.4700   51.3170 C.ar  1101  HKI1101     0.0185
      7  CAS       -0.2430   20.2390   50.6080 C.ar  1101  HKI1101     0.0225
      8  CAT        1.4860   18.6010   51.9670 C.ar  1101  HKI1101     0.0574
      9  CAR        1.5860   24.7340   50.4600 C.ar  1101  HKI1101     0.0310
     10  CAM        0.1010   32.1580   49.1370 C.ar  1101  HKI1101     0.0986
     11  CAQ        2.4140   21.7490   53.2910 C.ar  1101  HKI1101     0.1104
     12  CBL        1.5910   22.6310   52.6340 C.ar  1101  HKI1101     0.1027
     13  CBR        0.6610   20.7900   51.4970 C.ar  1101  HKI1101     0.0351
     14  CBQ        1.5360   19.9630   52.1990 C.ar  1101  HKI1101     0.0857
     15  CBI        0.2560   24.3780   50.6770 C.ar  1101  HKI1101     0.0715
     16  CBM       -0.2890   18.8740   50.3880 C.ar  1101  HKI1101     0.1073
     17  CBP        0.6790   22.1640   51.7100 C.ar  1101  HKI1101     0.0830
     18  CBN        1.0090   26.9990   50.0810 C.ar  1101  HKI1101     0.1496
     19  CBO        0.5890   18.0550   51.0710 C.ar  1101  HKI1101     0.1552
     20  CBJ        1.9850   26.0320   50.1740 C.ar  1101  HKI1101     0.0928
     21  CBK        0.8740   30.5420   50.5260 C.ar  1101  HKI1101     0.1026
     22  CBH       -2.5910   18.6340   49.7030 C.2   1101  HKI1101     0.2457
     23  CAA        1.4020   14.5190   51.1490 C.3   1101  HKI1101     0.0512
     24  CAB       -7.8310   18.6070   48.7490 C.3   1101  HKI1101     0.0897
     25  CAC       -7.7170   17.6040   46.6680 C.3   1101  HKI1101     0.0897
     26  CAV        0.9620   29.0940   50.8960 C.3   1101  HKI1101     0.2508
     27  CAX       -3.5540   17.6700   49.0670 C.3   1101  HKI1101     0.0886
     28  CBT       -5.0110   18.1230   49.1960 C.3   1101  HKI1101     0.0270
     29  CAY       -5.7260   17.7130   47.9130 C.3   1101  HKI1101     0.0727
     30  CAU        1.6900   16.0010   51.2810 C.3   1101  HKI1101     0.2056
     31  NAD        1.6220   25.1290   53.3000 N.1   1101  HKI1101    -0.1907
     32  NBA        2.4160   20.4320   53.0930 N.ar  1101  HKI1101    -0.2429
     33  NAZ        0.1640   30.8560   49.4370 N.ar  1101  HKI1101    -0.2445
     34  NBC       -0.1760   23.0610   51.0220 N.pl3 1101  HKI1101    -0.2117
     35  NBB       -1.2370   18.3410   49.4770 N.am  1101  HKI1101    -0.1761
     36  NBU       -6.9590   18.4390   47.5950 N.3   1101  HKI1101    -0.2703
     37  OAG       -3.0180   19.5790   50.3580 O.2   1101  HKI1101    -0.2730
     38  OBE        1.3970   28.2990   49.7800 O.3   1101  HKI1101    -0.4681
     39  OBD        0.5230   16.6890   50.8330 O.3   1101  HKI1101    -0.4741
     40 CLA         3.6570   26.4980   49.9210 Cl    1101  HKI1101    -0.0790
@<TRIPOS>BOND
     1    25    36    1
     2    36    29    1
     3    36    24    1
     4    29    28    1
     5    27    28    1
     6    27    22    1
     7    10    33   ar
     8    10     3   ar
     9    33    21   ar
    10    35    22   am
    11    35    16    1
    12    22    37    2
    13    38    18    1
    14    38    26    1
    15     3     2   ar
    16    40    20    1
    17    18    20   ar
    18    18     5   ar
    19    20     9   ar
    20     5     4   ar
    21    16     7   ar
    22    16    19   ar
    23     9    15   ar
    24    21    26    1
    25    21     6   ar
    26     4    15   ar
    27     7    13   ar
    28    15    34    1
    29    39    19    1
    30    39    30    1
    31     2     6   ar
    32    34    17    1
    33    19     8   ar
    34    23    30    1
    35    13    17   ar
    36    13    14   ar
    37    17    12   ar
    38     8    14   ar
    39    14    32   ar
    40    12     1    1
    41    12    11   ar
    42     1    31    3
    43    32    11   ar
