@<TRIPOS>MOLECULE
3w2s_W2R_A_1.pdb
 40 44 0 0 0
SMALL
GASTEIGER

@<TRIPOS>ATOM
      1  C1         7.3170    4.6510    7.2570 C.ar  1101  W2R1101     0.0045
      2  C2         6.0730    4.8240    6.6950 C.ar  1101  W2R1101     0.0169
      3  C3         5.9920    1.1650   11.2350 C.ar  1101  W2R1101     0.0476
      4  C4         7.7200    3.3840    7.6270 C.ar  1101  W2R1101     0.0376
      5  C5         6.2520    1.5790    9.9470 C.ar  1101  W2R1101     0.0420
      6  C6         8.3250   -1.4620   17.1090 C.2   1101  W2R1101     0.0325
      7  C7         5.6160    2.4880    6.8580 C.ar  1101  W2R1101     0.0541
      8  C8         7.0150   -0.9560   10.7700 C.ar  1101  W2R1101     0.0589
      9  C9         7.0010   -1.8240   17.1680 C.2   1101  W2R1101     0.0633
     10  C10        9.5940   -0.0680   14.0500 C.3   1101  W2R1101     0.3914
     11  C11        8.5660   -0.9470   15.8110 C.2   1101  W2R1101     0.0895
     12  C12        7.3830   -0.9980   15.0920 C.3   1101  W2R1101     0.2238
     13  C13        5.2180    3.7600    6.4970 C.ar  1101  W2R1101     0.0780
     14  C14        6.3790   -0.1030   11.6520 C.ar  1101  W2R1101     0.1842
     15  C15        6.8570    2.3270    7.4250 C.ar  1101  W2R1101     0.1466
     16  C16        6.9030    0.7120    9.0860 C.ar  1101  W2R1101     0.1560
     17  C17        7.2720   -0.5470    9.4860 C.ar  1101  W2R1101     0.0956
     18  C18        7.3340   -0.5620   13.7760 C.2   1101  W2R1101     0.3628
     19  C19        2.8990    3.1250    6.1010 C.2   1101  W2R1101     0.3434
     20  C20       -1.9640    2.0650    4.3190 C.3   1101  W2R1101     0.0001
     21  C21       -0.7930    1.1360    4.5380 C.3   1101  W2R1101     0.0018
     22  C22       -1.9500    3.2040    5.3170 C.3   1101  W2R1101     0.0018
     23  C23        0.5170    1.9020    4.4730 C.3   1101  W2R1101     0.0217
     24  C24       -0.6270    3.9430    5.2800 C.3   1101  W2R1101     0.0217
     25  C25        0.5200    2.9830    5.5380 C.3   1101  W2R1101     0.0970
     26  C26        5.0420   -1.8330   15.6810 C.3   1101  W2R1101     0.1237
     27  C27        4.1150   -0.6950   16.1030 C.3   1101  W2R1101     0.1636
     28  C28        3.2150    1.9740   13.9120 C.3   1101  W2R1101     0.2140
     29  C29        3.3640    1.3260   15.2570 C.3   1101  W2R1101     0.1777
     30  N30        9.7240   -0.4730   15.3180 N.2   1101  W2R1101    -0.2207
     31  N31        8.5000   -0.0970   13.2880 N.2   1101  W2R1101    -0.0350
     32  N32        6.4460   -1.5330   15.9510 N.pl3 1101  W2R1101    -0.2910
     33  N33        6.1650   -0.5630   12.9540 N.pl3 1101  W2R1101    -0.0082
     34  N34        3.9710    3.9730    5.9170 N.am  1101  W2R1101    -0.1609
     35  N35        1.7670    3.7130    5.6040 N.am  1101  W2R1101    -0.1887
     36  O36        2.9310    1.9970    6.5960 O.2   1101  W2R1101    -0.2488
     37  O37        2.4280    1.1120   13.1130 O.3   1101  W2R1101    -0.2176
     38  O38        7.2340    1.0460    7.7850 O.3   1101  W2R1101    -0.4526
     39  O39        4.2700    0.2510   15.0550 O.3   1101  W2R1101    -0.3492
     40 CL1         8.0750   -1.5550    8.3270 Cl    1101  W2R1101    -0.0789
@<TRIPOS>BOND
     1    20    21    1
     2    20    22    1
     3    23    21    1
     4    23    25    1
     5    24    22    1
     6    24    25    1
     7    25    35    1
     8    35    19   am
     9    34    19   am
    10    34    13    1
    11    19    36    2
    12    13     2   ar
    13    13     7   ar
    14     2     1   ar
    15     7    15   ar
    16     1     4   ar
    17    15     4   ar
    18    15    38    1
    19    38    16    1
    20    40    17    1
    21    16    17   ar
    22    16     5   ar
    23    17     8   ar
    24     5     3   ar
    25     8    14   ar
    26     3    14   ar
    27    14    33    1
    28    33    18    1
    29    37    28    1
    30    31    18    2
    31    31    10    1
    32    18    12    1
    33    28    29    1
    34    10    30    1
    35    39    29    1
    36    39    27    1
    37    12    11    1
    38    12    32    1
    39    30    11    2
    40    26    32    1
    41    26    27    1
    42    11     6    1
    43    32     9    1
    44     6     9    2
