@<TRIPOS>MOLECULE
3w2z_CYC_A_1.pdb
 43 46 0 0 0
SMALL
GASTEIGER

@<TRIPOS>ATOM
      1  CHA       -2.7100   35.2550    3.5460 C.3   201  CYC201      0.1170
      2  NA        -3.3710   33.4230    5.1460 N.2   201  CYC201     -0.4104
      3  C1A       -2.6600   33.9780    4.1450 C.2   201  CYC201      0.1114
      4  C2A       -1.7040   33.0430    3.7340 C.2   201  CYC201      0.0024
      5  C3A       -1.9110   31.8990    4.5070 C.2   201  CYC201      0.0021
      6  C4A       -2.9660   32.1600    5.3950 C.2   201  CYC201      0.1114
      7  CMA       -1.0950   30.5910    4.3860 C.3   201  CYC201      0.0331
      8  CAA       -0.6890   33.2650    2.5870 C.3   201  CYC201      0.0402
      9  CBA        0.7770   33.1680    2.8860 C.3   201  CYC201      0.1188
     10  CGA        1.4320   32.9150    1.5160 C.2   201  CYC201      0.3652
     11  O1A        1.3680   31.7440    1.0190 O.co2 201  CYC201     -0.2456
     12  O2A        1.9640   33.9250    0.9930 O.co2 201  CYC201     -0.2456
     13  CHB       -3.5150   31.2370    6.2980 C.3   201  CYC201      0.1181
     14  NB        -1.6980   30.0710    7.5350 N.2   201  CYC201     -0.3375
     15  C1B       -2.9350   30.2200    7.0530 C.2   201  CYC201      0.1254
     16  C2B       -3.7110   29.1160    7.4680 C.2   201  CYC201      0.0128
     17  C3B       -2.8850   28.2820    8.2250 C.2   201  CYC201      0.0706
     18  C4B       -1.6420   28.9350    8.2500 C.1   201  CYC201      0.2000
     19  CMB       -5.0740   28.8790    7.1560 C.3   201  CYC201      0.0339
     20  CAB       -3.2260   26.9250    8.8850 C.3   201  CYC201      0.0390
     21  CBB       -2.4970   25.7920    8.1450 C.3   201  CYC201      0.0058
     22  OB        -0.6380   28.5340    8.8510 O.2   201  CYC201     -0.2096
     23  NC        -6.9460   36.3240    7.0570 N.2   201  CYC201     -0.3448
     24  C1C       -7.8440   36.1810    8.0320 C.1   201  CYC201      0.1788
     25  C2C       -8.8890   37.3020    8.0740 C.3   201  CYC201      0.1246
     26  C3C       -8.4770   38.1370    6.8720 C.3   201  CYC201      0.0660
     27  C4C       -7.1840   37.4350    6.3460 C.2   201  CYC201      0.1070
     28  CMC      -10.3100   36.7420    7.8940 C.3   201  CYC201      0.0192
     29  CAC       -8.3400   39.6490    7.1500 C.3   201  CYC201      0.0078
     30  CBC       -8.8440   40.4800    5.9640 C.3   201  CYC201      0.0005
     31  OC        -7.8170   35.2450    8.8230 O.2   201  CYC201     -0.2142
     32  CHD       -6.5110   37.9810    5.2500 C.3   201  CYC201      0.1138
     33  ND        -4.7270   36.2590    4.7020 N.2   201  CYC201     -0.4104
     34  C1D       -5.3780   37.4410    4.6220 C.2   201  CYC201      0.1111
     35  C2D       -4.7220   38.2130    3.6560 C.2   201  CYC201      0.0021
     36  C3D       -3.6510   37.4780    3.1540 C.2   201  CYC201      0.0024
     37  C4D       -3.6860   36.2340    3.8330 C.2   201  CYC201      0.1114
     38  CMD       -5.1220   39.6480    3.2330 C.3   201  CYC201      0.0331
     39  CAD       -2.6660   37.9280    2.0650 C.3   201  CYC201      0.0402
     40  CBD       -1.7080   38.9720    2.5970 C.3   201  CYC201      0.1188
     41  CGD       -0.8550   38.3770    3.7040 C.2   201  CYC201      0.3652
     42  O1D       -1.1610   38.6910    4.8680 O.co2 201  CYC201     -0.2456
     43  O2D        0.0840   37.6150    3.3640 O.co2 201  CYC201     -0.2456
@<TRIPOS>BOND
     1    12    10   ar
     2    11    10   ar
     3    10     9    1
     4    39    40    1
     5    39    36    1
     6     8     9    1
     7     8     4    1
     8    40    41    1
     9    36    35    2
    10    36    37    1
    11    38    35    1
    12    43    41   ar
    13     1    37    1
    14     1     3    1
    15    35    34    1
    16    41    42   ar
    17     4     3    1
    18     4     5    2
    19    37    33    2
    20     3     2    2
    21     7     5    1
    22     5     6    1
    23    34    33    2
    24    34    32    1
    25     2     6    2
    26    32    27    1
    27     6    13    1
    28    30    29    1
    29    13    15    1
    30    27    26    1
    31    27    23    2
    32    26    29    1
    33    26    25    1
    34    15    16    1
    35    15    14    2
    36    23    24    2
    37    19    16    1
    38    16    17    2
    39    14    18    2
    40    28    25    1
    41    24    25    1
    42    24    31    2
    43    21    20    1
    44    17    18    1
    45    17    20    1
    46    18    22    2
