@<TRIPOS>MOLECULE
3w32_W32_A_1.pdb
 39 42 0 0 0
SMALL
GASTEIGER

@<TRIPOS>ATOM
      1  C1        17.5230   28.9900    5.7980 C.ar  1101  W321101     0.0031
      2  C2        16.2910   28.4180    6.0800 C.ar  1101  W321101     0.0041
      3  C3        17.3990   32.4000   11.0690 C.ar  1101  W321101     0.0476
      4  C4        17.7660   30.2650    6.2690 C.ar  1101  W321101     0.0375
      5  C5        17.6200   31.9950    9.7720 C.ar  1101  W321101     0.0420
      6  C6        15.6050   30.4080    7.2680 C.ar  1101  W321101     0.0413
      7  C7        15.7860   33.9910   10.3130 C.ar  1101  W321101     0.0589
      8  C8        12.7480   33.5660   13.3790 C.3   1101  W321101     0.3999
      9  C9        14.9420   34.4920   14.5740 C.3   1101  W321101     0.2153
     10  C10       15.3700   29.1340    6.8090 C.ar  1101  W321101     0.0744
     11  C11       16.4800   33.3980   11.3520 C.ar  1101  W321101     0.1841
     12  C12       16.8300   30.9650    6.9940 C.ar  1101  W321101     0.1453
     13  C13       16.9230   32.5970    8.7430 C.ar  1101  W321101     0.1560
     14  C14       15.9950   33.5920    9.0090 C.ar  1101  W321101     0.0956
     15  C15       13.6990   34.5620   15.1920 C.1   1101  W321101     0.0219
     16  C16       14.9890   33.9350   13.3050 C.2   1101  W321101     0.3567
     17  C17       16.1630   35.0290   15.1700 C.2   1101  W321101     0.0009
     18  C18       16.4430   35.1960   16.4650 C.2   1101  W321101     0.0322
     19  C19       17.7340   35.8640   16.8100 C.2   1101  W321101     0.2606
     20  C20       15.5660   34.8150   17.5820 C.3   1101  W321101     0.0578
     21  C21       14.3100   35.6400   17.4090 C.3   1101  W321101     0.1408
     22  C22       23.0390   35.0530   18.7000 C.3   1101  W321101     0.1761
     23  C23       20.0480   36.3220   16.1570 C.3   1101  W321101     0.1407
     24  C24       20.7350   35.5380   17.2580 C.3   1101  W321101     0.1742
     25  C25       14.0380   28.5220    7.1200 C.3   1101  W321101     0.4187
     26  N26       12.5980   34.0910   14.5900 N.2   1101  W321101    -0.1691
     27  N27       13.8910   33.4610   12.6950 N.2   1101  W321101    -0.0349
     28  N28       13.3910   35.0600   16.4560 N.2   1101  W321101    -0.2228
     29  N29       16.2480   33.8570   12.6500 N.pl3 1101  W321101    -0.0088
     30  N30       18.7330   35.7910   15.8670 N.am  1101  W321101    -0.2001
     31  O31       17.8350   36.4820   17.8600 O.2   1101  W321101    -0.2687
     32  O32       23.0660   36.4370   16.4890 O.2   1101  W321101    -0.1729
     33  O33       21.9970   37.4430   18.5570 O.2   1101  W321101    -0.1729
     34  O34       17.1180   32.2490    7.4240 O.3   1101  W321101    -0.4526
     35  F35       14.0970   27.6110    8.1150 F     1101  W321101    -0.1659
     36  F36       13.1660   29.4380    7.5620 F     1101  W321101    -0.1659
     37  F37       13.5590   27.8560    6.0390 F     1101  W321101    -0.1659
     38  S38       22.2760   36.3050   17.7000 S.O2  1101  W321101    -0.0065
     39 CL1        15.1370   34.3430    7.7020 Cl    1101  W321101    -0.0789
@<TRIPOS>BOND
     1     1     2   ar
     2     1     4   ar
     3    37    25    1
     4     2    10   ar
     5     4    12   ar
     6    10    25    1
     7    10     6   ar
     8    12     6   ar
     9    12    34    1
    10    25    36    1
    11    25    35    1
    12    34    13    1
    13    39    14    1
    14    13    14   ar
    15    13     5   ar
    16    14     7   ar
    17     5     3   ar
    18     7    11   ar
    19     3    11   ar
    20    11    29    1
    21    29    16    1
    22    27    16    2
    23    27     8    1
    24    16     9    1
    25     8    26    1
    26     9    17    1
    27     9    15    1
    28    26    15    2
    29    17    18    2
    30    15    28    2
    31    30    23    1
    32    30    19   am
    33    23    24    1
    34    28    21    1
    35    18    19    1
    36    18    20    1
    37    32    38    2
    38    19    31    2
    39    24    38    1
    40    21    20    1
    41    38    33    2
    42    38    22    1
