@<TRIPOS>MOLECULE
3w33_W19_A_1.pdb
 35 39 0 0 0
SMALL
GASTEIGER

@<TRIPOS>ATOM
      1  C1        18.1380   29.6370    6.3460 C.ar  1101  W191101     0.0036
      2  C2        17.5280   32.8280   11.2660 C.ar  1101  W191101     0.0476
      3  C3        18.0650   30.9560    6.7410 C.ar  1101  W191101     0.0375
      4  C4        17.5790   32.4710    9.9370 C.ar  1101  W191101     0.0420
      5  C5        17.0580   28.7870    6.4820 C.ar  1101  W191101     0.0067
      6  C6        14.5340   30.9960    7.9760 C.ar  1101  W191101     0.0105
      7  C7        15.9490   34.5580   10.7240 C.ar  1101  W191101     0.0589
      8  C8        13.6320   29.9650    8.0080 C.ar  1101  W191101     0.0355
      9  C9        13.2060   33.8790   13.8920 C.3   1101  W191101     0.3999
     10  C10       15.8170   30.6690    7.4450 C.ar  1101  W191101     0.0411
     11  C11       15.4160   34.8310   15.0410 C.3   1101  W191101     0.2153
     12  C12       16.7100   33.8780   11.6700 C.ar  1101  W191101     0.1841
     13  C13       16.9090   31.4830    7.2940 C.ar  1101  W191101     0.1457
     14  C14       16.8110   33.1500    9.0120 C.ar  1101  W191101     0.1560
     15  C15       15.9180   29.3400    7.0420 C.ar  1101  W191101     0.0324
     16  C16       15.9940   34.1970    9.3990 C.ar  1101  W191101     0.0956
     17  C17       14.1950   34.8430   15.7160 C.1   1101  W191101     0.0219
     18  C18       15.4230   34.3190   13.7540 C.2   1101  W191101     0.3567
     19  C19       16.6660   35.4100   15.5710 C.2   1101  W191101     0.0009
     20  C20       17.0560   35.4950   16.8450 C.2   1101  W191101     0.0322
     21  C21       18.3500   36.1810   17.1170 C.2   1101  W191101     0.2607
     22  C22       16.2420   34.9900   17.9680 C.3   1101  W191101     0.0578
     23  C23       14.9810   35.8450   17.9060 C.3   1101  W191101     0.1408
     24  C24       20.2410   37.0910   15.8830 C.3   1101  W191101     0.1509
     25  C25       21.6500   36.6330   16.1700 C.3   1101  W191101     0.2054
     26  N26       13.0870   34.3590   15.1270 N.2   1101  W191101    -0.1691
     27  N27       14.3310   33.8280   13.1710 N.2   1101  W191101    -0.0349
     28  N28       13.9540   35.3000   17.0250 N.2   1101  W191101    -0.2228
     29  N29       16.6390   34.2990   13.0000 N.pl3 1101  W191101    -0.0088
     30  N30       19.2900   36.0320   16.1340 N.am  1101  W191101    -0.1991
     31  O31       18.5380   36.8390   18.1370 O.2   1101  W191101    -0.2687
     32  O32       21.7000   36.2510   17.5370 O.3   1101  W191101    -0.2184
     33  O33       16.8660   32.8250    7.6660 O.3   1101  W191101    -0.4526
     34  S34       14.4040   28.5880    7.3480 S.2   1101  W191101    -0.0863
     35 CL1        15.0450   35.0360    8.2210 Cl    1101  W191101    -0.0789
@<TRIPOS>BOND
     1     1     5   ar
     2     1     3   ar
     3     5    15   ar
     4     3    13   ar
     5    15    34   ar
     6    15    10   ar
     7    13    10   ar
     8    13    33    1
     9    34     8   ar
    10    10     6   ar
    11    33    14    1
    12     6     8   ar
    13    35    16    1
    14    14    16   ar
    15    14     4   ar
    16    16     7   ar
    17     4     2   ar
    18     7    12   ar
    19     2    12   ar
    20    12    29    1
    21    29    18    1
    22    27    18    2
    23    27     9    1
    24    18    11    1
    25     9    26    1
    26    11    19    1
    27    11    17    1
    28    26    17    2
    29    19    20    2
    30    17    28    2
    31    24    30    1
    32    24    25    1
    33    30    21   am
    34    25    32    1
    35    20    21    1
    36    20    22    1
    37    28    23    1
    38    21    31    2
    39    23    22    1
