@<TRIPOS>MOLECULE
3w3d_ATP_A_1.pdb
 31 33 0 0 0
SMALL
GASTEIGER

@<TRIPOS>ATOM
      1  PG       -13.5220   14.9150   39.2900 P.3   401  ATP401      0.5373
      2  O1G      -12.7970   13.9080   38.4930 O.2   401  ATP401     -0.2221
      3  O2G      -14.9500   14.6460   39.5120 O.3   401  ATP401     -0.1143
      4  O3G      -12.8310   15.3340   40.5000 O.3   401  ATP401     -0.1143
      5  PB       -14.8210   17.1430   37.8300 P.3   401  ATP401      0.2277
      6  O1B      -14.1410   18.4080   37.4410 O.2   401  ATP401     -0.5168
      7  O2B      -15.8850   17.1560   38.8680 O.3   401  ATP401     -0.4368
      8  O3B      -13.5380   16.2810   38.3830 O.3   401  ATP401     -0.2258
      9  PA       -16.7370   16.5430   35.8250 P.3   401  ATP401      0.2189
     10  O1A      -17.2610   17.9130   35.8640 O.2   401  ATP401     -0.5170
     11  O2A      -17.6330   15.4140   36.2370 O.3   401  ATP401     -0.4371
     12  O3A      -15.3120   16.3810   36.5260 O.3   401  ATP401     -0.2700
     13  O5'      -16.3760   16.2280   34.3080 O.3   401  ATP401     -0.3112
     14  C5'      -15.3420   16.8920   33.5840 C.3   401  ATP401      0.1813
     15  C4'      -14.8740   15.9200   32.5450 C.3   401  ATP401      0.1821
     16  O4'      -16.0150   15.4600   31.7710 O.3   401  ATP401     -0.3135
     17  C3'      -13.8840   16.5700   31.6330 C.3   401  ATP401      0.2184
     18  O3'      -12.8600   15.6320   31.2750 O.3   401  ATP401     -0.2174
     19  C2'      -14.8010   16.9020   30.4840 C.3   401  ATP401      0.2570
     20  O2'      -14.0280   16.9650   29.3350 O.3   401  ATP401     -0.2130
     21  C1'      -15.6530   15.7040   30.4250 C.3   401  ATP401      0.3186
     22  N9       -16.7910   15.8740   29.5420 N.pl3 401  ATP401     -0.1439
     23  C8       -17.8390   16.7140   29.6710 C.3   401  ATP401      0.3377
     24  N7       -18.8100   16.4490   28.8560 N.2   401  ATP401     -0.2095
     25  C5       -18.3310   15.3670   28.1050 C.2   401  ATP401      0.2526
     26  C6       -18.8470   14.6560   27.0190 C.2   401  ATP401      0.4393
     27  N6       -19.9970   15.0250   26.4810 N.pl3 401  ATP401      0.2180
     28  N1       -18.2570   13.4910   26.6740 N.2   401  ATP401      0.0021
     29  C2       -17.1260   13.1670   27.2620 C.3   401  ATP401      0.5254
     30  N3       -16.4490   13.8370   28.1760 N.2   401  ATP401     -0.0055
     31  C4       -17.1380   14.9390   28.5840 C.2   401  ATP401      0.3518
@<TRIPOS>BOND
     1    27    26    1
     2    28    26    2
     3    28    29    1
     4    26    25    1
     5    29    30    1
     6    25    31    1
     7    25    24    2
     8    30    31    2
     9    31    22    1
    10    24    23    1
    11    20    19    1
    12    22    23    1
    13    22    21    1
    14    21    19    1
    15    21    16    1
    16    19    17    1
    17    18    17    1
    18    17    15    1
    19    16    15    1
    20    15    14    1
    21    14    13    1
    22    13     9    1
    23     9    10    2
    24     9    11    1
    25     9    12    1
    26    12     5    1
    27     6     5    2
    28     5     8    1
    29     5     7    1
    30     8     1    1
    31     2     1    2
    32     1     3    1
    33     1     4    1
