@<TRIPOS>MOLECULE
3w3s_SSA_A_1.pdb
 29 31 0 0 0
SMALL
GASTEIGER

@<TRIPOS>ATOM
      1  N10      -52.2110   32.3750  105.2860 N.3   2002  SSA2002    -0.1202
      2  CA       -51.8640   33.7450  105.5770 C.3   2002  SSA2002     0.2036
      3  CB       -52.4940   34.5460  104.5190 C.3   2002  SSA2002     0.2104
      4  OG       -53.8430   34.4530  104.4850 O.3   2002  SSA2002    -0.2182
      5  C9       -52.4170   34.2240  106.8630 C.2   2002  SSA2002     0.2825
      6  O9       -53.4720   33.7630  107.2690 O.2   2002  SSA2002    -0.2700
      7  N8       -51.7120   35.2540  107.6170 N.am  2002  SSA2002    -0.0576
      8  S1       -52.3030   35.8520  109.0370 S.3   2002  SSA2002     0.0852
      9  O1S      -52.3560   34.8950  110.1150 O.3   2002  SSA2002    -0.0508
     10  O2S      -51.3980   36.8810  109.4710 O.3   2002  SSA2002    -0.0508
     11  O5'      -53.6220   36.4440  108.6910 O.3   2002  SSA2002    -0.2230
     12  C5'      -53.7380   37.0620  107.4060 C.3   2002  SSA2002     0.2064
     13  C4'      -54.5610   38.3320  107.4550 C.3   2002  SSA2002     0.1842
     14  O4'      -55.9540   38.0220  107.7660 O.3   2002  SSA2002    -0.3135
     15  C3'      -54.1600   39.3450  108.5190 C.3   2002  SSA2002     0.2185
     16  O3'      -53.0520   40.1390  108.1370 O.3   2002  SSA2002    -0.2174
     17  C2'      -55.4390   40.1410  108.7070 C.3   2002  SSA2002     0.2570
     18  O2'      -55.6020   41.0700  107.6480 O.3   2002  SSA2002    -0.2130
     19  C1'      -56.5030   39.0410  108.5710 C.3   2002  SSA2002     0.3186
     20  N9       -56.8550   38.4730  109.8610 N.pl3 2002  SSA2002    -0.1439
     21  C8       -56.3550   37.3560  110.4820 C.3   2002  SSA2002     0.3377
     22  N7       -56.8660   37.1350  111.6740 N.2   2002  SSA2002    -0.2095
     23  C5       -57.7650   38.1700  111.8360 C.2   2002  SSA2002     0.2526
     24  C6       -58.6340   38.5160  112.8900 C.2   2002  SSA2002     0.4393
     25  N6       -58.7510   37.7950  114.0100 N.pl3 2002  SSA2002     0.2180
     26  N1       -59.3930   39.6340  112.7370 N.2   2002  SSA2002     0.0021
     27  C2       -59.2540   40.3480  111.5820 C.3   2002  SSA2002     0.5254
     28  N3       -58.4680   40.1050  110.5300 N.2   2002  SSA2002    -0.0055
     29  C4       -57.7560   39.0060  110.7270 C.2   2002  SSA2002     0.3518
@<TRIPOS>BOND
     1     4     3    1
     2     3     2    1
     3     1     2    1
     4     2     5    1
     5     5     6    2
     6     5     7   am
     7    12    13    1
     8    12    11    1
     9    13    14    1
    10    13    15    1
    11     7     8    1
    12    18    17    1
    13    14    19    1
    14    16    15    1
    15    15    17    1
    16    19    17    1
    17    19    20    1
    18    11     8    1
    19     8    10    1
    20     8     9    1
    21    20    21    1
    22    20    29    1
    23    21    22    1
    24    28    29    2
    25    28    27    1
    26    29    23    1
    27    27    26    1
    28    22    23    2
    29    23    24    1
    30    26    24    2
    31    24    25    1
