@<TRIPOS>MOLECULE
3w4u_HEM_A_1.pdb
 43 50 0 0 0
SMALL
GASTEIGER

@<TRIPOS>ATOM
      1  CHA       24.1130   16.0640   18.1420 C.2   201  HEM201      0.0000
      2  CHB       24.5360   14.0650   22.5130 C.2   201  HEM201      0.0000
      3  CHC       29.2720   15.1570   22.5940 C.2   201  HEM201      0.0000
      4  CHD       28.8570   17.1470   18.1960 C.2   201  HEM201      0.0000
      5  C1A       23.8130   15.5490   19.3700 C.2   201  HEM201      0.0000
      6  C2A       22.5100   15.0800   19.7650 C.2   201  HEM201      0.0000
      7  C3A       22.5570   14.3980   20.9760 C.2   201  HEM201      0.0000
      8  C4A       23.9800   14.5670   21.3470 C.2   201  HEM201      0.0000
      9  CMA       21.3910   13.6550   21.6840 C.3   201  HEM201      0.0000
     10  CAA       21.2570   15.3250   18.9430 C.3   201  HEM201      0.0000
     11  CBA       21.0850   14.1860   17.9640 C.3   201  HEM201      0.0000
     12  CGA       19.7230   14.2480   17.3140 C.2   201  HEM201      0.0000
     13  O1A       19.1470   15.3670   17.3040 O.co2 201  HEM201      0.0000
     14  O2A       19.2510   13.1890   16.8230 O.co2 201  HEM201      0.0000
     15  C1B       25.8420   14.1600   22.8960 C.ar  201  HEM201      0.0000
     16  C2B       26.3340   13.6570   24.1610 C.ar  201  HEM201      0.0000
     17  C3B       27.6480   14.0050   24.2160 C.ar  201  HEM201      0.0000
     18  C4B       27.9780   14.7010   22.9660 C.ar  201  HEM201      0.0000
     19  CMB       25.5050   12.8230   25.1330 C.3   201  HEM201      0.0000
     20  CAB       28.6270   13.6010   25.1260 C.3   201  HEM201      0.0000
     21  CBB       28.3580   13.2210   26.4720 C.3   201  HEM201      0.0000
     22  C1C       29.5380   15.8320   21.4010 C.2   201  HEM201      0.0000
     23  C2C       30.8520   16.4160   21.1100 C.2   201  HEM201      0.0000
     24  C3C       30.7350   17.1070   19.9140 C.2   201  HEM201      0.0000
     25  C4C       29.2960   16.9060   19.5020 C.2   201  HEM201      0.0000
     26  CMC       32.0170   16.2690   22.0880 C.3   201  HEM201      0.0000
     27  CAC       31.6380   17.8530   19.1940 C.2   201  HEM201      0.0000
     28  CBC       32.2530   18.9460   19.7500 C.2   201  HEM201      0.0000
     29  C1D       27.5620   16.9140   17.7730 C.ar  201  HEM201      0.0000
     30  C2D       26.9930   17.4950   16.5400 C.ar  201  HEM201      0.0000
     31  C3D       25.6730   17.1660   16.5210 C.ar  201  HEM201      0.0000
     32  C4D       25.3920   16.4370   17.7440 C.ar  201  HEM201      0.0000
     33  CMD       27.7690   18.3360   15.5420 C.3   201  HEM201      0.0000
     34  CAD       24.7080   17.4280   15.3890 C.3   201  HEM201      0.0000
     35  CBD       24.2390   18.8360   15.5430 C.3   201  HEM201      0.0000
     36  CGD       23.2330   19.2660   14.4490 C.2   201  HEM201      0.0000
     37  O1D       22.0220   19.4160   14.7680 O.co2 201  HEM201      0.0000
     38  O2D       23.6730   19.4690   13.2920 O.co2 201  HEM201      0.0000
     39  NA        24.7110   15.2350   20.3630 N.2   201  HEM201      0.0000
     40  NB        26.8410   14.7960   22.1480 N.ar  201  HEM201      0.0000
     41  NC        28.6170   16.1530   20.4070 N.2   201  HEM201      0.0000
     42  ND        26.5480   16.3300   18.5140 N.ar  201  HEM201      0.0000
     43 FE         26.7160   15.5410   20.2950 Fe    201  HEM201      0.0000
@<TRIPOS>BOND
     1    38    36   ar
     2    36    37   ar
     3    36    35    1
     4    34    35    1
     5    34    31    1
     6    33    30    1
     7    31    30   ar
     8    31    32   ar
     9    30    29   ar
    10    14    12   ar
    11    13    12   ar
    12    12    11    1
    13    32     1    2
    14    32    42   ar
    15    29     4    2
    16    29    42   ar
    17    11    10    1
    18     1     5    1
    19     4    25    1
    20    42    43    1
    21    10     6    1
    22    27    28    2
    23    27    24    1
    24     5     6    1
    25     5    39    2
    26    25    24    1
    27    25    41    2
    28     6     7    2
    29    24    23    2
    30    43    39    1
    31    43    41    1
    32    43    40    1
    33    39     8    1
    34    41    22    1
    35     7     8    1
    36     7     9    1
    37    23    22    1
    38    23    26    1
    39     8     2    2
    40    22     3    2
    41    40    15   ar
    42    40    18   ar
    43     2    15    1
    44     3    18    1
    45    15    16   ar
    46    18    17   ar
    47    16    17   ar
    48    16    19    1
    49    17    20    1
    50    20    21    1
