@<TRIPOS>MOLECULE
3w55_1FM_A_1.pdb
 26 27 0 0 0
SMALL
GASTEIGER

@<TRIPOS>ATOM
      1  C2        17.5780   38.0050   45.2320 C.3   401  1FM401      0.1828
      2  C3        17.3670   39.1160   44.3650 C.2   401  1FM401     -0.0019
      3  C11       18.8550   37.4200   45.2680 C.2   401  1FM401      0.1905
      4  C14       18.4340   39.5990   43.5970 C.2   401  1FM401      0.0337
      5  C15       19.6950   39.0090   43.6670 C.2   401  1FM401      0.1413
      6  O15       15.2730   37.8420   45.9850 O.3   401  1FM401     -0.4518
      7  C16       19.8960   37.9160   44.5000 C.2   401  1FM401      0.0752
      8  C17       15.3380   39.8540   43.1080 C.2   401  1FM401     -0.0237
      9  C18       12.9280   38.1820   45.7230 C.3   401  1FM401      0.0441
     10  C23       16.0740   39.8070   44.2400 C.2   401  1FM401     -0.0077
     11  C24       12.9240   39.4980   42.4050 C.3   401  1FM401      0.1936
     12  C26       16.5490   37.3750   46.1400 C.2   401  1FM401      0.3280
     13  C31       13.9730   37.6700   46.7100 C.3   401  1FM401      0.1690
     14  C34       13.8970   40.3680   43.1480 C.3   401  1FM401      0.0620
     15  O38       16.8310   36.5160   46.9810 O.2   401  1FM401     -0.2493
     16  C39       11.4560   39.7640   42.5150 C.3   401  1FM401      0.2389
     17  C40       11.4100   38.5000   43.3410 C.2   401  1FM401      0.1833
     18  O40       11.9540   37.4750   42.9850 O.2   401  1FM401     -0.2933
     19  C41       10.6660   38.5160   44.6400 C.3   401  1FM401      0.0674
     20  C42       11.4710   37.7740   45.7100 C.3   401  1FM401      0.0115
     21  O42       13.3050   38.9910   41.2070 O.3   401  1FM401     -0.2196
     22  O44       10.8980   40.9310   43.0710 O.3   401  1FM401     -0.2124
     23  O46       19.1290   36.4610   45.9730 O.2   401  1FM401     -0.2903
     24  O48       20.7280   39.5140   42.9000 O.2   401  1FM401     -0.4713
     25  C59       21.9810   39.5700   43.5770 C.3   401  1FM401      0.2525
     26  C62       13.9330   38.3370   48.0830 C.3   401  1FM401      0.0473
@<TRIPOS>BOND
     1    21    11    1
     2    11    16    1
     3    11    14    1
     4    16    22    1
     5    16    17    1
     6    24    25    1
     7    24     5    1
     8    18    17    2
     9     8    14    1
    10     8    10    2
    11    17    19    1
    12     4     5    1
    13     4     2    2
    14     5     7    2
    15    10     2    1
    16     2     1    1
    17     7     3    1
    18    19    20    1
    19     1     3    1
    20     1    12    1
    21     3    23    2
    22    20     9    1
    23     9    13    1
    24     6    12    1
    25     6    13    1
    26    12    15    2
    27    13    26    1
