@<TRIPOS>MOLECULE
3w5a_TM1_A_1.pdb
 38 42 0 0 0
SMALL
GASTEIGER

@<TRIPOS>ATOM
      1  N1        69.5580   24.3710  107.0350 N.2   1001  TM11001     0.0021
      2  C2        69.1070   23.1800  107.5910 C.3   1001  TM11001     0.5254
      3  N3        69.2290   21.9890  106.9170 N.2   1001  TM11001    -0.0055
      4  C4        69.8010   21.8740  105.6510 C.2   1001  TM11001     0.3518
      5  C5        70.2690   23.0360  105.0460 C.2   1001  TM11001     0.2526
      6  C6        70.1590   24.3300  105.7340 C.2   1001  TM11001     0.4393
      7  N6        70.6110   25.4400  105.1490 N.pl3 1001  TM11001     0.2180
      8  N7        70.7760   22.7580  103.8610 N.2   1001  TM11001    -0.2095
      9  C8        70.6350   21.4380  103.7060 C.3   1001  TM11001     0.3377
     10  N9        70.0440   20.9090  104.7900 N.pl3 1001  TM11001    -0.1440
     11  PA        73.7020   18.6370  100.8700 P.3   1001  TM11001     0.5327
     12  C1'       69.6960   19.3980  105.0120 C.3   1001  TM11001     0.3152
     13  O1A       74.1130   17.8630   99.5780 O.2   1001  TM11001    -0.2224
     14  C1F       67.1910   17.1700  104.1540 C.3   1001  TM11001     0.2592
     15  C2'       68.6200   18.9100  103.9990 C.3   1001  TM11001     0.2201
     16  O2'       67.3040   18.6070  104.5440 O.3   1001  TM11001    -0.3208
     17  O2A       74.9110   19.3500  101.3950 O.3   1001  TM11001    -0.1145
     18  C2F       65.9160   17.1740  103.2530 C.3   1001  TM11001     0.2466
     19  N2F       65.7550   17.9880  102.0050 N.pl3 1001  TM11001     0.0420
     20  O2F       66.5710   18.7530  101.4900 O.2   1001  TM11001    -0.1305
     21  C3'       69.2540   17.8020  103.2440 C.3   1001  TM11001     0.1814
     22  O3'       68.4340   16.6180  103.4710 O.3   1001  TM11001    -0.3250
     23  O3A       72.5590   19.6430  100.4930 O.3   1001  TM11001    -0.1145
     24  C3F       64.8090   16.3920  103.5910 C.2   1001  TM11001     0.0324
     25  O3F       64.7000   17.9420  101.3280 O.2   1001  TM11001    -0.1305
     26  C4'       70.6200   17.5560  103.6550 C.3   1001  TM11001     0.1790
     27  O4'       70.7680   18.5340  104.6780 O.3   1001  TM11001    -0.3137
     28  C4F       64.6830   15.5460  104.6780 C.2   1001  TM11001     0.1423
     29  N4F       63.6170   14.8100  104.9740 N.pl3 1001  TM11001     0.0575
     30  O4F       62.9520   14.9850  105.9700 O.2   1001  TM11001    -0.1261
     31  C5'       71.7030   17.6720  102.4510 C.3   1001  TM11001     0.1858
     32  O5'       73.1210   17.5840  101.9990 O.3   1001  TM11001    -0.2675
     33  C5F       65.7900   15.4770  105.5570 C.2   1001  TM11001     0.0484
     34  O5F       63.2420   13.9130  104.2730 O.2   1001  TM11001    -0.1261
     35  C6F       67.0710   16.2390  105.3710 C.2   1001  TM11001     0.1752
     36  N6F       68.0350   16.0200  106.3840 N.pl3 1001  TM11001     0.0584
     37  O6F       67.8110   15.2570  107.3110 O.2   1001  TM11001    -0.1263
     38  O7F       69.0970   16.5170  106.4450 O.2   1001  TM11001    -0.1263
@<TRIPOS>BOND
     1    13    11    2
     2    23    11    1
     3    11    17    1
     4    11    32    1
     5    25    19    2
     6    20    19    2
     7    32    31    1
     8    19    18    1
     9    31    26    1
    10    21    22    1
    11    21    26    1
    12    21    15    1
    13    18    24    1
    14    18    14    1
    15    22    14    1
    16    24    28    2
    17    26    27    1
    18     9     8    1
    19     9    10    1
    20     8     5    2
    21    15    16    1
    22    15    12    1
    23    14    16    1
    24    14    35    1
    25    34    29    2
    26    27    12    1
    27    28    29    1
    28    28    33    1
    29    10    12    1
    30    10     4    1
    31    29    30    2
    32     5     4    1
    33     5     6    1
    34     7     6    1
    35    35    33    2
    36    35    36    1
    37     4     3    2
    38     6     1    2
    39    36    38    2
    40    36    37    2
    41     3     2    1
    42     1     2    1
