@<TRIPOS>MOLECULE
3w5b_TM1_A_1.pdb
 38 42 0 0 0
SMALL
GASTEIGER

@<TRIPOS>ATOM
      1  N1        83.5660  -11.6910   64.6960 N.2   1004  TM11004     0.0021
      2  C2        83.9470  -12.8820   65.3000 C.3   1004  TM11004     0.5254
      3  N3        83.3010  -14.0600   65.0260 N.2   1004  TM11004    -0.0055
      4  C4        82.2270  -14.1700   64.1380 C.2   1004  TM11004     0.3518
      5  C5        81.7900  -12.9980   63.4980 C.2   1004  TM11004     0.2526
      6  C6        82.4730  -11.7140   63.7700 C.2   1004  TM11004     0.4393
      7  N6        82.0650  -10.5880   63.1550 N.pl3 1004  TM11004     0.2180
      8  N7        80.7680  -13.2700   62.6930 N.2   1004  TM11004    -0.2095
      9  C8        80.5560  -14.5810   62.8170 C.3   1004  TM11004     0.3377
     10  N9        81.4430  -15.1280   63.6950 N.pl3 1004  TM11004    -0.1440
     11  PA        80.1330  -17.0850   58.7150 P.3   1004  TM11004     0.5327
     12  C1'       81.5160  -16.6410   64.1080 C.3   1004  TM11004     0.3152
     13  O1A       79.0160  -17.5570   57.7170 O.2   1004  TM11004    -0.2224
     14  C1F       79.5590  -19.0780   65.6170 C.3   1004  TM11004     0.2592
     15  C2'       80.1090  -17.2170   64.4790 C.3   1004  TM11004     0.2201
     16  O2'       79.8820  -17.6270   65.8520 O.3   1004  TM11004    -0.3208
     17  O2A       81.3090  -16.5350   57.9480 O.3   1004  TM11004    -0.1145
     18  C2F       78.1010  -19.1970   66.1670 C.3   1004  TM11004     0.2466
     19  N2F       76.9290  -18.4120   65.6420 N.pl3 1004  TM11004     0.0420
     20  O2F       76.9220  -17.5820   64.7490 O.2   1004  TM11004    -0.1305
     21  C3'       79.8390  -18.2880   63.4850 C.3   1004  TM11004     0.1814
     22  O3'       79.6930  -19.5190   64.2010 O.3   1004  TM11004    -0.3250
     23  O3A       79.5100  -15.9860   59.6610 O.3   1004  TM11004    -0.1145
     24  C3F       77.8050  -20.0930   67.2000 C.2   1004  TM11004     0.0324
     25  O3F       75.7760  -18.5450   66.1010 O.2   1004  TM11004    -0.1305
     26  C4'       80.8700  -18.4490   62.5310 C.3   1004  TM11004     0.1790
     27  O4'       81.8010  -17.4490   62.9690 O.3   1004  TM11004    -0.3137
     28  C4F       78.6940  -20.9380   67.8530 C.2   1004  TM11004     0.1423
     29  N4F       78.3670  -21.7850   68.8470 N.pl3 1004  TM11004     0.0575
     30  O4F       78.6280  -21.6080   70.0180 O.2   1004  TM11004    -0.1261
     31  C5'       80.3180  -18.3450   61.0250 C.3   1004  TM11004     0.1858
     32  O5'       80.5870  -18.3830   59.5880 O.3   1004  TM11004    -0.2675
     33  C5F       80.0630  -20.8910   67.4040 C.2   1004  TM11004     0.0484
     34  O5F       77.7770  -22.7990   68.6430 O.2   1004  TM11004    -0.1261
     35  C6F       80.5730  -19.9820   66.2950 C.2   1004  TM11004     0.1752
     36  N6F       81.9730  -20.0690   65.9820 N.pl3 1004  TM11004     0.0584
     37  O6F       82.7140  -20.8200   66.5730 O.2   1004  TM11004    -0.1263
     38  O7F       82.5710  -19.4580   65.1660 O.2   1004  TM11004    -0.1263
@<TRIPOS>BOND
     1    13    11    2
     2    17    11    1
     3    11    32    1
     4    11    23    1
     5    32    31    1
     6    31    26    1
     7    26    27    1
     8    26    21    1
     9     8     9    1
    10     8     5    2
    11     9    10    1
    12    27    12    1
    13     7     6    1
    14    21    22    1
    15    21    15    1
    16     5     6    1
    17     5     4    1
    18    10    12    1
    19    10     4    1
    20     6     1    2
    21    12    15    1
    22     4     3    2
    23    22    14    1
    24    15    16    1
    25     1     2    1
    26    20    19    2
    27     3     2    1
    28    38    36    2
    29    14    16    1
    30    14    18    1
    31    14    35    1
    32    19    25    2
    33    19    18    1
    34    36    35    1
    35    36    37    2
    36    18    24    1
    37    35    33    2
    38    24    28    2
    39    33    28    1
    40    28    29    1
    41    34    29    2
    42    29    30    2
