@<TRIPOS>MOLECULE
3xim_SOR_A_1.pdb
 12 11 0 0 0
SMALL
GASTEIGER

@<TRIPOS>ATOM
      1  C1        30.4210   43.9210  171.7270 C.3   397  SOR397      0.2175
      2  C2        31.6950   43.6880  170.8510 C.3   397  SOR397      0.2175
      3  C3        31.7660   42.1810  170.5020 C.3   397  SOR397      0.2175
      4  C4        33.0930   41.7030  169.8940 C.3   397  SOR397      0.2175
      5  C5        33.3900   40.1980  170.0980 C.3   397  SOR397      0.2175
      6  C6        34.7460   39.7820  169.4510 C.3   397  SOR397      0.2175
      7  O1        30.2060   45.3020  171.9850 O.3   397  SOR397     -0.2175
      8  O2        31.5340   44.4890  169.6750 O.3   397  SOR397     -0.2175
      9  O3        30.6430   41.8170  169.7160 O.3   397  SOR397     -0.2175
     10  O4        33.3740   42.1570  168.5690 O.3   397  SOR397     -0.2175
     11  O5        33.4590   39.8580  171.4830 O.3   397  SOR397     -0.2175
     12  O6        34.4790   39.6500  168.0170 O.3   397  SOR397     -0.2175
@<TRIPOS>BOND
     1    12     6    1
     2    10     4    1
     3     6     5    1
     4     8     2    1
     5     9     3    1
     6     4     5    1
     7     4     3    1
     8     5    11    1
     9     3     2    1
    10     2     1    1
    11     1     7    1
