@<TRIPOS>MOLECULE
3xis_XYS_A_1.pdb
 10 10 0 0 0
SMALL
GASTEIGER

@<TRIPOS>ATOM
      1  C1        12.0990   31.2850   46.4540 C.3   393  XYS393      0.3024
      2  C2        12.0550   32.7890   46.0680 C.3   393  XYS393      0.2434
      3  C3        13.1090   32.9380   44.9560 C.3   393  XYS393      0.2199
      4  C4        14.4890   32.7820   45.5320 C.3   393  XYS393      0.2143
      5  C5        14.5370   31.5940   46.4580 C.3   393  XYS393      0.1804
      6  O1        11.2440   30.3860   45.7260 O.3   393  XYS393     -0.1869
      7  O2        10.7780   33.1590   45.5700 O.3   393  XYS393     -0.2148
      8  O3        12.8830   34.2000   44.3510 O.3   393  XYS393     -0.2174
      9  O4        15.5440   32.8310   44.6160 O.3   393  XYS393     -0.2176
     10  O5        13.4000   30.8760   46.6340 O.3   393  XYS393     -0.3237
@<TRIPOS>BOND
     1     8     3    1
     2     9     4    1
     3     3     4    1
     4     3     2    1
     5     4     5    1
     6     7     2    1
     7     6     1    1
     8     2     1    1
     9     1    10    1
    10     5    10    1
