@<TRIPOS>MOLECULE
3ypi_PGH_A_1.pdb
 10 9 0 0 0
SMALL
GASTEIGER

@<TRIPOS>ATOM
      1  C1        90.6150   43.4860   50.3290 C.2   249  PGH249      0.1177
      2  C2        91.9140   43.3010   49.5650 C.3   249  PGH249      0.2044
      3  N2        90.6350   42.9340   51.5410 N.am  249  PGH249     -0.2004
      4  O2        89.4500   42.9430   52.3320 O.3   249  PGH249     -0.4026
      5  O1        89.6220   44.0900   49.8590 O.2   249  PGH249     -0.5374
      6  O1P       91.7620   43.6610   48.1850 O.3   249  PGH249     -0.2633
      7  O2P       93.6110   42.1770   48.0130 O.3   249  PGH249     -0.1145
      8  O3P       93.8610   44.4080   47.0190 O.3   249  PGH249     -0.1145
      9  O4P       92.3800   42.6570   45.9570 O.2   249  PGH249     -0.2224
     10  P         92.9770   43.1730   47.1990 P.3   249  PGH249      0.5330
@<TRIPOS>BOND
     1     9    10    2
     2     8    10    1
     3    10     7    1
     4    10     6    1
     5     6     2    1
     6     2     1    1
     7     5     1    2
     8     1     3   am
     9     3     4    1
