@<TRIPOS>MOLECULE
3zby_HEM_A_1.pdb
 43 50 0 0 0
SMALL
GASTEIGER

@<TRIPOS>ATOM
      1  CHA      -19.4100   -6.0950 -113.3410 C.2   1402  HEM1402     0.0000
      2  CHB      -17.8670   -3.1510 -117.0050 C.2   1402  HEM1402     0.0000
      3  CHC      -22.1830   -0.9450 -117.1420 C.2   1402  HEM1402     0.0000
      4  CHD      -23.4740   -3.3870 -113.1250 C.2   1402  HEM1402     0.0000
      5  C1A      -18.6180   -5.4880 -114.3150 C.ar  1402  HEM1402     0.0000
      6  C2A      -17.2430   -5.8640 -114.6390 C.ar  1402  HEM1402     0.0000
      7  C3A      -16.8060   -4.9930 -115.6540 C.ar  1402  HEM1402     0.0000
      8  C4A      -17.8950   -4.1210 -115.9980 C.ar  1402  HEM1402     0.0000
      9  CMA      -15.4210   -4.9740 -116.3230 C.3   1402  HEM1402     0.0000
     10  CAA      -16.3970   -6.9270 -113.9200 C.3   1402  HEM1402     0.0000
     11  CBA      -16.4500   -8.1860 -114.8070 C.3   1402  HEM1402     0.0000
     12  CGA      -15.1980   -9.0280 -114.5560 C.2   1402  HEM1402     0.0000
     13  O1A      -14.3370   -8.7410 -113.6650 O.co2 1402  HEM1402     0.0000
     14  O2A      -15.1020  -10.0410 -115.2590 O.co2 1402  HEM1402     0.0000
     15  C1B      -18.8990   -2.2710 -117.3390 C.2   1402  HEM1402     0.0000
     16  C2B      -18.8860   -1.3690 -118.4600 C.2   1402  HEM1402     0.0000
     17  C3B      -20.1130   -0.8190 -118.4920 C.2   1402  HEM1402     0.0000
     18  C4B      -20.9040   -1.3270 -117.3910 C.2   1402  HEM1402     0.0000
     19  CMB      -17.6550   -1.1700 -119.4510 C.3   1402  HEM1402     0.0000
     20  CAB      -20.7120    0.2620 -119.4090 C.2   1402  HEM1402     0.0000
     21  CBB      -20.0830    0.4870 -120.5940 C.2   1402  HEM1402     0.0000
     22  C1C      -22.9500   -1.4160 -116.0860 C.ar  1402  HEM1402     0.0000
     23  C2C      -24.3310   -1.0590 -115.7900 C.ar  1402  HEM1402     0.0000
     24  C3C      -24.6360   -1.7320 -114.6040 C.ar  1402  HEM1402     0.0000
     25  C4C      -23.5090   -2.5490 -114.2090 C.ar  1402  HEM1402     0.0000
     26  CMC      -25.2390   -0.0720 -116.6320 C.3   1402  HEM1402     0.0000
     27  CAC      -25.9620   -1.7520 -113.7680 C.2   1402  HEM1402     0.0000
     28  CBC      -26.8540   -0.7800 -113.8380 C.2   1402  HEM1402     0.0000
     29  C1D      -22.5180   -4.3680 -112.7690 C.2   1402  HEM1402     0.0000
     30  C2D      -22.6450   -5.3230 -111.7000 C.2   1402  HEM1402     0.0000
     31  C3D      -21.3680   -6.1750 -111.8260 C.2   1402  HEM1402     0.0000
     32  C4D      -20.6100   -5.6570 -112.9360 C.2   1402  HEM1402     0.0000
     33  CMD      -23.8330   -5.4710 -110.6910 C.3   1402  HEM1402     0.0000
     34  CAD      -20.9560   -7.3090 -110.9470 C.3   1402  HEM1402     0.0000
     35  CBD      -21.3630   -8.5830 -111.6990 C.3   1402  HEM1402     0.0000
     36  CGD      -20.8200   -9.7930 -110.9210 C.2   1402  HEM1402     0.0000
     37  O1D      -19.9190   -9.6720 -110.0270 O.co2 1402  HEM1402     0.0000
     38  O2D      -21.3860  -10.8820 -111.1880 O.co2 1402  HEM1402     0.0000
     39  NA       -18.9970   -4.5120 -115.2310 N.ar  1402  HEM1402     0.0000
     40  NB       -20.1310   -2.2260 -116.7210 N.2   1402  HEM1402     0.0000
     41  NC       -22.4920   -2.3160 -115.1280 N.ar  1402  HEM1402     0.0000
     42  ND       -21.3540   -4.6070 -113.4910 N.2   1402  HEM1402     0.0000
     43 FE        -20.7830   -3.4540 -115.1970 Fe    1402  HEM1402     0.0000
@<TRIPOS>BOND
     1    21    20    2
     2    19    16    1
     3    20    17    1
     4    17    16    2
     5    17    18    1
     6    16    15    1
     7    18     3    2
     8    18    40    1
     9    15     2    1
    10    15    40    2
    11     3    22    1
    12     2     8    2
    13    40    43    1
    14    26    23    1
    15     9     7    1
    16    22    23   ar
    17    22    41   ar
    18     8     7   ar
    19     8    39   ar
    20    23    24   ar
    21     7     6   ar
    22    14    12   ar
    23    39    43    1
    24    39     5   ar
    25    43    41    1
    26    43    42    1
    27    41    25   ar
    28    11    12    1
    29    11    10    1
    30     6     5   ar
    31     6    10    1
    32    24    25   ar
    33    24    27    1
    34    12    13   ar
    35     5     1    2
    36    25     4    1
    37    28    27    2
    38    42    32    2
    39    42    29    1
    40     1    32    1
    41     4    29    2
    42    32    31    1
    43    29    30    1
    44    31    30    2
    45    31    34    1
    46    30    33    1
    47    35    34    1
    48    35    36    1
    49    38    36   ar
    50    36    37   ar
