@<TRIPOS>MOLECULE
3zcg_HEM_A_1.pdb
 43 50 0 0 0
SMALL
GASTEIGER

@<TRIPOS>ATOM
      1  CHA      -16.8300  -27.6670  -17.3570 C.2   251  HEM251      0.0000
      2  CHB      -14.2020  -28.5190  -21.3740 C.2   251  HEM251      0.0000
      3  CHC      -10.9750  -25.2160  -19.9370 C.2   251  HEM251      0.0000
      4  CHD      -13.6410  -24.1670  -16.0560 C.2   251  HEM251      0.0000
      5  C1A      -16.4010  -28.1610  -18.5710 C.ar  251  HEM251      0.0000
      6  C2A      -17.0860  -29.1510  -19.3660 C.ar  251  HEM251      0.0000
      7  C3A      -16.3620  -29.3900  -20.4700 C.ar  251  HEM251      0.0000
      8  C4A      -15.1890  -28.5620  -20.4160 C.ar  251  HEM251      0.0000
      9  CMA      -16.6940  -30.3730  -21.6100 C.3   251  HEM251      0.0000
     10  CAA      -18.4230  -29.8130  -18.9820 C.3   251  HEM251      0.0000
     11  CBA      -19.6050  -28.8860  -19.2410 C.3   251  HEM251      0.0000
     12  CGA      -20.8480  -29.5870  -18.7400 C.2   251  HEM251      0.0000
     13  O1A      -21.1560  -30.6970  -19.2510 O.co2 251  HEM251      0.0000
     14  O2A      -21.5410  -29.0590  -17.8330 O.co2 251  HEM251      0.0000
     15  C1B      -13.0580  -27.7650  -21.2840 C.2   251  HEM251      0.0000
     16  C2B      -11.8900  -27.8870  -22.1240 C.2   251  HEM251      0.0000
     17  C3B      -10.9890  -26.9970  -21.7140 C.2   251  HEM251      0.0000
     18  C4B      -11.5630  -26.2590  -20.6070 C.2   251  HEM251      0.0000
     19  CMB      -11.7170  -28.8950  -23.2790 C.3   251  HEM251      0.0000
     20  CAB       -9.5920  -26.7910  -22.3250 C.2   251  HEM251      0.0000
     21  CBB       -8.5510  -26.6830  -21.4910 C.2   251  HEM251      0.0000
     22  C1C      -11.4700  -24.5810  -18.8280 C.ar  251  HEM251      0.0000
     23  C2C      -10.8830  -23.4180  -18.2100 C.ar  251  HEM251      0.0000
     24  C3C      -11.6310  -23.1250  -17.1340 C.ar  251  HEM251      0.0000
     25  C4C      -12.6850  -24.1070  -17.0330 C.ar  251  HEM251      0.0000
     26  CMC       -9.6450  -22.6860  -18.7760 C.3   251  HEM251      0.0000
     27  CAC      -11.4470  -22.0100  -16.0900 C.2   251  HEM251      0.0000
     28  CBC      -10.2250  -21.6680  -15.6630 C.2   251  HEM251      0.0000
     29  C1D      -14.6650  -25.0820  -15.9930 C.2   251  HEM251      0.0000
     30  C2D      -15.5170  -25.2870  -14.8490 C.2   251  HEM251      0.0000
     31  C3D      -16.5110  -26.3640  -15.2420 C.2   251  HEM251      0.0000
     32  C4D      -16.1710  -26.7140  -16.6040 C.2   251  HEM251      0.0000
     33  CMD      -15.4120  -24.5560  -13.5020 C.3   251  HEM251      0.0000
     34  CAD      -17.6300  -26.9430  -14.3560 C.3   251  HEM251      0.0000
     35  CBD      -18.9570  -26.2670  -14.6680 C.3   251  HEM251      0.0000
     36  CGD      -20.0350  -26.7770  -13.7340 C.2   251  HEM251      0.0000
     37  O1D      -19.7280  -27.3600  -12.6500 O.co2 251  HEM251      0.0000
     38  O2D      -21.2280  -26.5960  -14.0890 O.co2 251  HEM251      0.0000
     39  NA       -15.2370  -27.8250  -19.2410 N.ar  251  HEM251      0.0000
     40  NB       -12.8230  -26.7590  -20.3590 N.2   251  HEM251      0.0000
     41  NC       -12.5620  -24.9800  -18.0910 N.ar  251  HEM251      0.0000
     42  ND       -15.0660  -25.9500  -17.0190 N.2   251  HEM251      0.0000
     43 FE        -13.8500  -26.4410  -18.6300 Fe    251  HEM251      0.0000
@<TRIPOS>BOND
     1    19    16    1
     2    20    17    1
     3    20    21    2
     4    16    17    2
     5    16    15    1
     6    17    18    1
     7     9     7    1
     8     2    15    1
     9     2     8    2
    10    15    40    2
    11    18    40    1
    12    18     3    2
    13     7     8   ar
    14     7     6   ar
    15     8    39   ar
    16    40    43    1
    17     3    22    1
    18     6    10    1
    19     6     5   ar
    20    13    12   ar
    21    11    10    1
    22    11    12    1
    23    39    43    1
    24    39     5   ar
    25    22    23   ar
    26    22    41   ar
    27    26    23    1
    28    12    14   ar
    29    43    41    1
    30    43    42    1
    31     5     1    2
    32    23    24   ar
    33    41    25   ar
    34     1    32    1
    35    24    25   ar
    36    24    27    1
    37    25     4    1
    38    42    32    2
    39    42    29    1
    40    32    31    1
    41    27    28    2
    42     4    29    2
    43    29    30    1
    44    31    30    2
    45    31    34    1
    46    30    33    1
    47    35    34    1
    48    35    36    1
    49    38    36   ar
    50    36    37   ar
