@<TRIPOS>MOLECULE
3zch_HEM_A_1.pdb
 43 50 0 0 0
SMALL
GASTEIGER

@<TRIPOS>ATOM
      1  CHA       13.3940   58.3460   20.1140 C.2   251  HEM251      0.0000
      2  CHB       12.5030   55.7600   16.1090 C.2   251  HEM251      0.0000
      3  CHC       15.7420   52.4240   17.5530 C.2   251  HEM251      0.0000
      4  CHD       16.8590   55.1260   21.3790 C.2   251  HEM251      0.0000
      5  C1A       12.8760   57.9360   18.9020 C.ar  251  HEM251      0.0000
      6  C2A       11.8530   58.6170   18.1420 C.ar  251  HEM251      0.0000
      7  C3A       11.6040   57.9080   17.0380 C.ar  251  HEM251      0.0000
      8  C4A       12.4570   56.7400   17.0640 C.ar  251  HEM251      0.0000
      9  CMA       10.5850   58.2550   15.9350 C.3   251  HEM251      0.0000
     10  CAA       11.1690   59.9420   18.5430 C.3   251  HEM251      0.0000
     11  CBA       12.0930   61.1310   18.2870 C.3   251  HEM251      0.0000
     12  CGA       11.3730   62.3650   18.7810 C.2   251  HEM251      0.0000
     13  O1A       10.2490   62.6410   18.2750 O.co2 251  HEM251      0.0000
     14  O2A       11.9110   63.0600   19.6820 O.co2 251  HEM251      0.0000
     15  C1B       13.2360   54.5940   16.1930 C.2   251  HEM251      0.0000
     16  C2B       13.1190   53.4500   15.3140 C.2   251  HEM251      0.0000
     17  C3B       13.9840   52.5200   15.7240 C.2   251  HEM251      0.0000
     18  C4B       14.7200   53.0520   16.8620 C.2   251  HEM251      0.0000
     19  CMB       12.1230   53.3220   14.1480 C.3   251  HEM251      0.0000
     20  CAB       14.1800   51.1360   15.0840 C.2   251  HEM251      0.0000
     21  CBB       14.3110   50.0660   15.8880 C.2   251  HEM251      0.0000
     22  C1C       16.4060   52.8930   18.6620 C.ar  251  HEM251      0.0000
     23  C2C       17.5670   52.2970   19.3090 C.ar  251  HEM251      0.0000
     24  C3C       17.8770   53.0640   20.3740 C.ar  251  HEM251      0.0000
     25  C4C       16.9060   54.1400   20.4270 C.ar  251  HEM251      0.0000
     26  CMC       18.2750   51.0340   18.7730 C.3   251  HEM251      0.0000
     27  CAC       18.9930   52.9280   21.4370 C.2   251  HEM251      0.0000
     28  CBC       19.4500   51.7380   21.8420 C.2   251  HEM251      0.0000
     29  C1D       15.9510   56.1570   21.4560 C.2   251  HEM251      0.0000
     30  C2D       15.7430   56.9890   22.6240 C.2   251  HEM251      0.0000
     31  C3D       14.6630   57.9900   22.2360 C.2   251  HEM251      0.0000
     32  C4D       14.3290   57.6700   20.8670 C.2   251  HEM251      0.0000
     33  CMD       16.4370   56.8970   23.9910 C.3   251  HEM251      0.0000
     34  CAD       14.0620   59.0990   23.1310 C.3   251  HEM251      0.0000
     35  CBD       14.6610   60.4350   22.7140 C.3   251  HEM251      0.0000
     36  CGD       14.2120   61.5500   23.6430 C.2   251  HEM251      0.0000
     37  O1D       13.6620   61.2610   24.7400 O.co2 251  HEM251      0.0000
     38  O2D       14.3980   62.7410   23.2660 O.co2 251  HEM251      0.0000
     39  NA        13.2230   56.7920   18.2150 N.ar  251  HEM251      0.0000
     40  NB        14.2240   54.3140   17.1130 N.2   251  HEM251      0.0000
     41  NC        16.0400   54.0050   19.3710 N.ar  251  HEM251      0.0000
     42  ND        15.1070   56.5900   20.4460 N.2   251  HEM251      0.0000
     43 FE         14.5590   55.3210   18.8490 Fe    251  HEM251      0.0000
@<TRIPOS>BOND
     1    19    16    1
     2    20    17    1
     3    20    21    2
     4    16    17    2
     5    16    15    1
     6    17    18    1
     7     9     7    1
     8     2    15    1
     9     2     8    2
    10    15    40    2
    11    18    40    1
    12    18     3    2
    13     7     8   ar
    14     7     6   ar
    15     8    39   ar
    16    40    43    1
    17     3    22    1
    18     6    10    1
    19     6     5   ar
    20    39    43    1
    21    39     5   ar
    22    13    12   ar
    23    11    10    1
    24    11    12    1
    25    22    23   ar
    26    22    41   ar
    27    26    23    1
    28    12    14   ar
    29    43    41    1
    30    43    42    1
    31     5     1    2
    32    23    24   ar
    33    41    25   ar
    34     1    32    1
    35    24    25   ar
    36    24    27    1
    37    25     4    1
    38    42    32    2
    39    42    29    1
    40    32    31    1
    41     4    29    2
    42    27    28    2
    43    29    30    1
    44    31    30    2
    45    31    34    1
    46    30    33    1
    47    35    34    1
    48    35    36    1
    49    38    36   ar
    50    36    37   ar
