@<TRIPOS>MOLECULE
3zcm_PX3_A_1.pdb
 36 39 0 0 0
SMALL
GASTEIGER

@<TRIPOS>ATOM
      1  C1       -10.8930   48.1550    5.3330 C.ar  1214  PX31214     0.0001
      2  C2       -11.7900   48.9270    4.6560 C.ar  1214  PX31214    -0.0003
      3  C3        -9.8130   47.5900    4.6300 C.ar  1214  PX31214     0.0043
      4  C4       -11.6690   49.1610    3.2890 C.ar  1214  PX31214    -0.0028
      5  C5       -11.2410   45.3710   -1.9760 C.ar  1214  PX31214     0.0006
      6  C6        -8.9010   43.4660    1.1440 C.ar  1214  PX31214     0.0006
      7  C7        -7.3220   44.5990   -0.1860 C.ar  1214  PX31214     0.0006
      8  C8       -12.0260   44.7280   -2.9670 C.ar  1214  PX31214     0.0399
      9  C9        -9.4670   42.7970    0.0560 C.ar  1214  PX31214     0.0366
     10  C10       -7.8340   43.9460   -1.2790 C.ar  1214  PX31214     0.0366
     11  C11       -9.6590   47.8250    3.2520 C.ar  1214  PX31214     0.0524
     12  C12      -13.2210   45.6770   -0.5820 C.ar  1214  PX31214     0.1141
     13  C13       -7.8420   44.3610    1.0620 C.ar  1214  PX31214    -0.0004
     14  C14      -10.6110   48.6020    2.6010 C.ar  1214  PX31214    -0.0017
     15  C24       -7.2550   45.0440    2.3000 C.3   1214  PX31214     0.1418
     16  C15      -11.8240   45.8420   -0.7750 C.ar  1214  PX31214     0.0034
     17  C16      -13.3820   44.6100   -2.7580 C.ar  1214  PX31214     0.1766
     18  C17      -13.9660   45.0340   -1.5750 C.ar  1214  PX31214     0.1825
     19  C18       -8.8680   43.0320   -1.1640 C.ar  1214  PX31214     0.1387
     20  C19       -9.4700   49.3970   -2.2580 C.2   1214  PX31214    -0.0035
     21  C20      -10.6970   49.5860   -1.7970 C.2   1214  PX31214    -0.0088
     22  C21       -8.5080   47.1890    2.5700 C.2   1214  PX31214     0.2648
     23  C22      -13.9040   46.0730    0.7090 C.2   1214  PX31214     0.3905
     24  C23      -15.5600   44.0510   -2.8000 C.3   1214  PX31214     0.4294
     25  C25      -10.2610   41.4010   -2.1600 C.3   1214  PX31214     0.2525
     26  C26      -10.5300   48.9440    1.1250 C.3   1214  PX31214     0.0998
     27  C27      -10.9180   46.5170    0.2450 C.3   1214  PX31214     0.1000
     28  C28      -11.6140   48.6050   -1.1130 C.3   1214  PX31214     0.0994
     29  N32       -8.2540   45.9010    2.8980 N.am  1214  PX31214    -0.1968
     30  N33      -11.3140   48.0110    0.2420 N.3   1214  PX31214    -0.2613
     31  O34      -14.8130   45.3070    1.0870 O.co2 1214  PX31214    -0.2404
     32  O35       -7.7910   47.7660    1.7560 O.2   1214  PX31214    -0.2684
     33  O36      -13.4570   47.0170    1.4250 O.co2 1214  PX31214    -0.2404
     34  O37      -14.3120   44.0520   -3.5810 O.3   1214  PX31214    -0.4346
     35  O38      -15.3310   44.8360   -1.6000 O.3   1214  PX31214    -0.4344
     36  O39       -9.3040   42.4690   -2.3520 O.3   1214  PX31214    -0.4714
@<TRIPOS>BOND
     1    34    24    1
     2    34    17    1
     3     8    17   ar
     4     8     5   ar
     5    24    35    1
     6    17    18   ar
     7    36    25    1
     8    36    19    1
     9    20    21    2
    10     5    16   ar
    11    21    28    1
    12    35    18    1
    13    18    12   ar
    14    10    19   ar
    15    10     7   ar
    16    19     9   ar
    17    28    30    1
    18    16    12   ar
    19    16    27    1
    20    12    23    1
    21     7    13   ar
    22     9     6   ar
    23    30    27    1
    24    30    26    1
    25    23    31   ar
    26    23    33   ar
    27    13     6   ar
    28    13    15    1
    29    26    14    1
    30    32    22    2
    31    15    29    1
    32    22    29   am
    33    22    11    1
    34    14    11   ar
    35    14     4   ar
    36    11     3   ar
    37     4     2   ar
    38     3     1   ar
    39     2     1   ar
