@<TRIPOS>MOLECULE
3zcw_ADP_A_1.pdb
 27 29 0 0 0
SMALL
GASTEIGER

@<TRIPOS>ATOM
      1  PB        -8.6000    0.7710   24.2160 P.3   1364  ADP1364     0.5373
      2  O1B       -9.8110    1.5510   23.7420 O.3   1364  ADP1364    -0.1143
      3  O2B       -8.2810   -0.4290   23.3610 O.2   1364  ADP1364    -0.2221
      4  O3B       -7.4320    1.6760   24.4560 O.3   1364  ADP1364    -0.1143
      5  PA        -8.8400    0.4560   27.1010 P.3   1364  ADP1364     0.2231
      6  O1A       -7.4860   -0.0760   27.3830 O.3   1364  ADP1364    -0.4370
      7  O2A       -9.2270    1.9030   27.3040 O.2   1364  ADP1364    -0.5169
      8  O3A       -9.1210    0.0860   25.5620 O.3   1364  ADP1364    -0.2261
      9  O5'       -9.8520   -0.5510   27.8150 O.3   1364  ADP1364    -0.3111
     10  C5'      -11.2570   -0.2880   27.9230 C.3   1364  ADP1364     0.1813
     11  C4'      -11.6620   -0.6220   29.3560 C.3   1364  ADP1364     0.1821
     12  O4'      -11.5090   -2.0290   29.6170 O.3   1364  ADP1364    -0.3135
     13  C3'      -10.8270    0.1320   30.4000 C.3   1364  ADP1364     0.2184
     14  O3'      -11.6500    0.4320   31.5400 O.3   1364  ADP1364    -0.2174
     15  C2'       -9.7940   -0.8930   30.8070 C.3   1364  ADP1364     0.2570
     16  O2'       -9.2550   -0.7340   32.1360 O.3   1364  ADP1364    -0.2130
     17  C1'      -10.5960   -2.1870   30.6770 C.3   1364  ADP1364     0.3186
     18  N9        -9.6950   -3.3020   30.3470 N.pl3 1364  ADP1364    -0.1439
     19  C8        -8.9230   -3.3870   29.2420 C.3   1364  ADP1364     0.3377
     20  N7        -8.2120   -4.5190   29.2750 N.2   1364  ADP1364    -0.2095
     21  C5        -8.4990   -5.1370   30.4500 C.2   1364  ADP1364     0.2526
     22  C6        -8.1120   -6.3950   31.0780 C.2   1364  ADP1364     0.4393
     23  N6        -7.2000   -7.1720   30.4520 N.pl3 1364  ADP1364     0.2180
     24  N1        -8.6670   -6.7000   32.2760 N.2   1364  ADP1364     0.0021
     25  C2        -9.5930   -5.9190   32.8650 C.3   1364  ADP1364     0.5254
     26  N3       -10.0020   -4.7410   32.3490 N.2   1364  ADP1364    -0.0055
     27  C4        -9.4940   -4.3280   31.1520 C.2   1364  ADP1364     0.3518
@<TRIPOS>BOND
     1     3     1    2
     2     2     1    1
     3     1     4    1
     4     1     8    1
     5     8     5    1
     6     5     7    2
     7     5     6    1
     8     5     9    1
     9     9    10    1
    10    10    11    1
    11    19    20    1
    12    19    18    1
    13    20    21    2
    14    11    12    1
    15    11    13    1
    16    12    17    1
    17    18    17    1
    18    18    27    1
    19    13    15    1
    20    13    14    1
    21    21    22    1
    22    21    27    1
    23    23    22    1
    24    17    15    1
    25    15    16    1
    26    22    24    2
    27    27    26    2
    28    24    25    1
    29    26    25    1
