@<TRIPOS>MOLECULE
3zcw_4A2_A_1.pdb
 33 36 0 0 0
SMALL
GASTEIGER

@<TRIPOS>ATOM
      1  FAA       -2.9620   -5.8180   12.6990 F     1366  4A21366    -0.1659
      2  CAC       -1.6840   -5.6420   12.5050 C.3   1366  4A21366     0.4183
      3  FAB       -1.0290   -6.0040   13.5880 F     1366  4A21366    -0.1659
      4  FAG       -1.3320   -6.4500   11.4950 F     1366  4A21366    -0.1659
      5  CAD       -1.3780   -4.1690   12.1960 C.ar  1366  4A21366     0.0691
      6  CAE       -0.3580   -3.5260   12.9450 C.ar  1366  4A21366     0.0036
      7  CAF       -0.0470   -2.2110   12.6690 C.ar  1366  4A21366    -0.0001
      8  CAK       -0.7440   -1.5430   11.6660 C.ar  1366  4A21366    -0.0003
      9  CAJ       -1.7450   -2.1600   10.9340 C.ar  1366  4A21366    -0.0027
     10  CAI       -2.0620   -3.4870   11.2000 C.ar  1366  4A21366     0.0019
     11  CAH       -3.1910   -4.1740   10.3780 C.3   1366  4A21366     0.1258
     12  NAP       -3.4540   -3.4850    9.0980 N.pl3 1366  4A21366    -0.2428
     13  CAO       -2.7890   -3.7480    7.9930 C.2   1366  4A21366     0.0808
     14  CAN       -1.7260   -4.6350    7.7430 C.2   1366  4A21366    -0.0037
     15  CAM       -1.2060   -4.7040    6.4490 C.3   1366  4A21366     0.0605
     16  CAW       -1.7540   -3.8730    5.4540 C.2   1366  4A21366     0.0645
     17  CAV       -1.2090   -3.9140    4.0320 C.2   1366  4A21366     0.3843
     18  OAL       -1.9160   -3.4550    3.0880 O.co2 1366  4A21366    -0.2409
     19  OBG       -0.0980   -4.4270    3.8110 O.co2 1366  4A21366    -0.2409
     20  CAX       -2.7990   -2.9870    5.7330 C.2   1366  4A21366     0.0360
     21  CAY       -3.3340   -2.9330    7.0130 C.2   1366  4A21366     0.1477
     22  NAZ       -4.3010   -2.1940    7.5680 N.2   1366  4A21366    -0.3700
     23  CBA       -4.3750   -2.5490    8.8710 C.cat 1366  4A21366     0.2663
     24  NBB       -5.2440   -2.0790    9.7660 N.pl3 1366  4A21366    -0.1700
     25  CBC       -6.0270   -0.9950    9.6720 C.ar  1366  4A21366     0.0768
     26  CBD       -5.6460    0.0950    8.9050 C.ar  1366  4A21366     0.0494
     27  CBE       -6.4800    1.2050    8.8360 C.ar  1366  4A21366     0.1751
     28  FBF       -6.1240    2.2710    8.1170 F     1366  4A21366    -0.2009
     29  CAS       -7.6710    1.2720    9.5440 C.ar  1366  4A21366     0.1660
     30  OAT       -8.4470    2.3880    9.4500 O.3   1366  4A21366    -0.4692
     31  CAU       -9.4170    2.5720   10.5220 C.3   1366  4A21366     0.2526
     32  CAR       -8.0600    0.1740   10.3020 C.ar  1366  4A21366     0.0406
     33  CAQ       -7.2370   -0.9590   10.3760 C.ar  1366  4A21366     0.0199
@<TRIPOS>BOND
     1    18    17   ar
     2    19    17   ar
     3    17    16    1
     4    16    20    2
     5    16    15    1
     6    20    21    1
     7    15    14    1
     8    21    22    2
     9    21    13    1
    10    22    23    2
    11    14    13    2
    12    13    12    1
    13    28    27    1
    14    27    26   ar
    15    27    29   ar
    16    23    12    1
    17    23    24    1
    18    26    25   ar
    19    12    11    1
    20    30    29    1
    21    30    31    1
    22    29    32   ar
    23    25    24    1
    24    25    33   ar
    25    32    33   ar
    26    11    10    1
    27     9    10   ar
    28     9     8   ar
    29    10     5   ar
    30     4     2    1
    31     8     7   ar
    32     5     2    1
    33     5     6   ar
    34     2     1    1
    35     2     3    1
    36     7     6   ar
