@<TRIPOS>MOLECULE
3zcy_HEM_A_1.pdb
 43 50 0 0 0
SMALL
GASTEIGER

@<TRIPOS>ATOM
      1  CHA       99.1240   27.5890   20.2290 C.2   251  HEM251      0.0000
      2  CHB       96.6040   28.4940   16.1870 C.2   251  HEM251      0.0000
      3  CHC       93.3400   25.1360   17.4970 C.2   251  HEM251      0.0000
      4  CHD       95.8760   24.1850   21.5170 C.2   251  HEM251      0.0000
      5  C1A       98.7110   28.1040   19.0240 C.ar  251  HEM251      0.0000
      6  C2A       99.4190   29.1240   18.2880 C.ar  251  HEM251      0.0000
      7  C3A       98.7350   29.3780   17.1710 C.ar  251  HEM251      0.0000
      8  C4A       97.5630   28.5290   17.1680 C.ar  251  HEM251      0.0000
      9  CMA       99.1070   30.3950   16.0670 C.3   251  HEM251      0.0000
     10  CAA      100.7430   29.7820   18.7340 C.3   251  HEM251      0.0000
     11  CBA      101.9350   28.8930   18.3840 C.3   251  HEM251      0.0000
     12  CGA      103.1840   29.5850   18.8940 C.2   251  HEM251      0.0000
     13  O1A      103.4900   30.7080   18.4080 O.co2 251  HEM251      0.0000
     14  O2A      103.8730   29.0360   19.7940 O.co2 251  HEM251      0.0000
     15  C1B       95.4860   27.6960   16.2030 C.2   251  HEM251      0.0000
     16  C2B       94.4340   27.7060   15.2140 C.2   251  HEM251      0.0000
     17  C3B       93.5310   26.7990   15.5800 C.2   251  HEM251      0.0000
     18  C4B       93.9780   26.1520   16.8090 C.2   251  HEM251      0.0000
     19  CMB       94.3470   28.6220   13.9800 C.3   251  HEM251      0.0000
     20  CAB       92.2380   26.4970   14.8150 C.3   251  HEM251      0.0000
     21  CBB       91.1210   26.6450   15.5330 C.3   251  HEM251      0.0000
     22  C1C       93.7580   24.5360   18.6690 C.ar  251  HEM251      0.0000
     23  C2C       93.1100   23.4230   19.3490 C.ar  251  HEM251      0.0000
     24  C3C       93.8330   23.1490   20.4530 C.ar  251  HEM251      0.0000
     25  C4C       94.9210   24.1090   20.5230 C.ar  251  HEM251      0.0000
     26  CMC       91.8630   22.6870   18.7940 C.3   251  HEM251      0.0000
     27  CAC       93.6020   22.0800   21.5390 C.2   251  HEM251      0.0000
     28  CBC       92.3740   21.6540   21.8860 C.2   251  HEM251      0.0000
     29  C1D       96.9200   25.0840   21.5900 C.2   251  HEM251      0.0000
     30  C2D       97.7460   25.2940   22.7570 C.2   251  HEM251      0.0000
     31  C3D       98.7630   26.3600   22.3710 C.2   251  HEM251      0.0000
     32  C4D       98.4510   26.6760   20.9940 C.2   251  HEM251      0.0000
     33  CMD       97.5940   24.5910   24.1150 C.3   251  HEM251      0.0000
     34  CAD       99.8840   26.9600   23.2540 C.3   251  HEM251      0.0000
     35  CBD      101.2050   26.2710   22.9220 C.3   251  HEM251      0.0000
     36  CGD      102.3040   26.7320   23.8580 C.2   251  HEM251      0.0000
     37  O1D      102.0020   27.3100   24.9340 O.co2 251  HEM251      0.0000
     38  O2D      103.4970   26.5320   23.5150 O.co2 251  HEM251      0.0000
     39  NA        97.5750   27.7590   18.3160 N.ar  251  HEM251      0.0000
     40  NB        95.1760   26.7350   17.1480 N.2   251  HEM251      0.0000
     41  NC        94.8410   24.9300   19.4210 N.ar  251  HEM251      0.0000
     42  ND        97.3730   25.9100   20.5730 N.2   251  HEM251      0.0000
     43 FE         96.1670   26.3650   18.9120 Fe    251  HEM251      0.0000
@<TRIPOS>BOND
     1    19    16    1
     2    20    21    1
     3    20    17    1
     4    16    17    2
     5    16    15    1
     6    17    18    1
     7     9     7    1
     8     2    15    1
     9     2     8    2
    10    15    40    2
    11    18    40    1
    12    18     3    2
    13    40    43    1
    14     8     7   ar
    15     8    39   ar
    16     7     6   ar
    17     3    22    1
    18     6    10    1
    19     6     5   ar
    20    39    43    1
    21    39     5   ar
    22    11    10    1
    23    11    12    1
    24    13    12   ar
    25    22    23   ar
    26    22    41   ar
    27    26    23    1
    28    12    14   ar
    29    43    41    1
    30    43    42    1
    31     5     1    2
    32    23    24   ar
    33    41    25   ar
    34     1    32    1
    35    24    25   ar
    36    24    27    1
    37    25     4    1
    38    42    32    2
    39    42    29    1
    40    32    31    1
    41     4    29    2
    42    27    28    2
    43    29    30    1
    44    31    30    2
    45    31    34    1
    46    30    33    1
    47    35    34    1
    48    35    36    1
    49    38    36   ar
    50    36    37   ar
