@<TRIPOS>MOLECULE
3zdg_XRX_A_1.pdb
 13 12 0 0 0
SMALL
GASTEIGER

@<TRIPOS>ATOM
      1  N1       -16.2360   58.6290  -23.7580 N.3   301  XRX301     -0.2715
      2  C2       -16.8710   57.8680  -20.9380 C.3   301  XRX301      0.2115
      3  O3       -15.5400   58.3850  -21.0140 O.3   301  XRX301     -0.4345
      4  C4       -15.8010   60.0590  -23.7120 C.3   301  XRX301      0.0896
      5  N5       -13.5060   58.7190  -19.9770 N.am  301  XRX301     -0.2425
      6  O6       -15.0420   57.1130  -19.2190 O.2   301  XRX301     -0.2262
      7  C7       -17.6600   58.4040  -23.3590 C.3   301  XRX301      0.0613
      8  C8       -17.8200   58.6820  -21.8420 C.3   301  XRX301      0.0634
      9  C9       -14.6860   57.9610  -20.0350 C.2   301  XRX301      0.4050
     10  C10      -15.9140   57.9460  -25.0660 C.3   301  XRX301      0.0896
     11  C11      -18.6460   59.2160  -24.2480 C.3   301  XRX301      0.0175
     12  C12      -12.4100   58.2530  -19.1130 C.3   301  XRX301      0.1183
     13  C13      -13.1870   59.8150  -20.9230 C.3   301  XRX301      0.1183
@<TRIPOS>BOND
     1    10     1    1
     2    11     7    1
     3     1     4    1
     4     1     7    1
     5     7     8    1
     6     8     2    1
     7     3     2    1
     8     3     9    1
     9    13     5    1
    10     9     5   am
    11     9     6    2
    12     5    12    1
