@<TRIPOS>MOLECULE
3zdh_XRS_A_1.pdb
 14 14 0 0 0
SMALL
GASTEIGER

@<TRIPOS>ATOM
      1  C10       54.5300   -4.0710  -53.4570 C.ar  301  XRS301      0.3008
      2  N13       53.3550   -4.6400  -53.2060 N.ar  301  XRS301     -0.1926
      3  C9        53.0420   -4.2550  -51.9180 C.ar  301  XRS301      0.1223
      4  C8        54.0570   -3.4620  -51.4380 C.ar  301  XRS301      0.1005
      5  N12       54.9980   -3.3530  -52.4440 N.ar  301  XRS301     -0.2784
      6  O14       55.2700   -4.1340  -54.5800 O.3   301  XRS301     -0.4478
      7  C6        54.6820   -4.8500  -55.6570 C.3   301  XRS301      0.2100
      8  C5        55.3980   -4.5080  -56.9800 C.3   301  XRS301      0.0634
      9  C4        56.8640   -4.9910  -57.1220 C.3   301  XRS301      0.0613
     10  N11       57.7320   -4.5380  -55.9850 N.3   301  XRS301     -0.2715
     11  C3        57.4160   -4.5710  -58.5030 C.3   301  XRS301      0.0175
     12  C2        57.8920   -3.0650  -55.8480 C.3   301  XRS301      0.0896
     13  C1        59.0300   -5.2540  -55.8990 C.3   301  XRS301      0.0896
     14  C7        56.2460   -2.6180  -52.3960 C.3   301  XRS301      0.1351
@<TRIPOS>BOND
     1    11     9    1
     2     9     8    1
     3     9    10    1
     4     8     7    1
     5    10    13    1
     6    10    12    1
     7     7     6    1
     8     6     1    1
     9     1     2   ar
    10     1     5   ar
    11     2     3   ar
    12     5    14    1
    13     5     4   ar
    14     3     4   ar
