@<TRIPOS>MOLECULE
3zdi_UGJ_A_1.pdb
 22 24 0 0 0
SMALL
GASTEIGER

@<TRIPOS>ATOM
      1  N01       -8.9880   -7.9960    7.1490 N.pl3 1386  UGJ1386    -0.1267
      2  C02       -9.7830   -6.8110    7.2390 C.ar  1386  UGJ1386     0.1074
      3  C03      -10.5620   -6.2770    6.1630 C.ar  1386  UGJ1386     0.1168
      4  S04      -11.3320   -4.8920    6.6780 S.2   1386  UGJ1386    -0.0436
      5  C05      -10.7820   -4.8220    8.2470 C.ar  1386  UGJ1386     0.1640
      6  C06       -9.9460   -5.9180    8.4420 C.ar  1386  UGJ1386     0.0513
      7  C07       -9.3480   -6.0810    9.7180 C.2   1386  UGJ1386     0.0048
      8  C08       -8.4360   -7.2130   10.0370 C.ar  1386  UGJ1386     0.0082
      9  C09       -8.9520   -8.4090   10.5150 C.ar  1386  UGJ1386     0.0006
     10  C10       -8.0980   -9.4610   10.8140 C.ar  1386  UGJ1386     0.0000
     11  C11       -6.7310   -9.3150   10.6330 C.ar  1386  UGJ1386     0.0009
     12  C12       -6.2140   -8.1190   10.1570 C.ar  1386  UGJ1386     0.0114
     13  C13       -7.0670   -7.0680    9.8560 C.ar  1386  UGJ1386     0.0574
     14 CL         -6.4210   -5.5800    9.2570 Cl    1386  UGJ1386    -0.0823
     15  C15       -9.6270   -5.1370   10.7150 C.3   1386  UGJ1386     0.1831
     16  C16       -9.0130   -5.2830   12.0670 C.1   1386  UGJ1386     0.0853
     17  N17       -8.5440   -5.3930   13.1030 N.1   1386  UGJ1386    -0.1951
     18  C18      -10.4790   -4.0590   10.4450 C.2   1386  UGJ1386     0.2150
     19  N19      -10.7690   -3.0920   11.4580 N.pl3 1386  UGJ1386    -0.0965
     20  N20      -11.0330   -3.9270    9.2280 N.2   1386  UGJ1386    -0.3804
     21  C21      -10.6670   -6.8690    4.7990 C.1   1386  UGJ1386     0.1084
     22  N22      -10.7460   -7.3230    3.7560 N.1   1386  UGJ1386    -0.1903
@<TRIPOS>BOND
     1    22    21    3
     2    21     3    1
     3     3     4   ar
     4     3     2   ar
     5     4     5   ar
     6     1     2    1
     7     2     6   ar
     8     5     6   ar
     9     5    20    2
    10     6     7    2
    11    20    18    2
    12    14    13    1
    13     7     8    1
    14     7    15    1
    15    13     8   ar
    16    13    12   ar
    17     8     9   ar
    18    12    11   ar
    19    18    15    1
    20    18    19    1
    21     9    10   ar
    22    11    10   ar
    23    15    16    1
    24    16    17    3
