@<TRIPOS>MOLECULE
3zdw_EBS_A_1.pdb
 32 35 0 0 0
SMALL
GASTEIGER

@<TRIPOS>ATOM
      1  C1        26.9620   17.4920   16.9760 C.ar  1516  EBS1516     0.0494
      2  C2        28.1820   17.6710   17.8190 C.ar  1516  EBS1516     0.0676
      3  C3        26.6770   16.2140   16.4440 C.ar  1516  EBS1516     0.0269
      4  C4        28.9930   16.5400   18.0590 C.ar  1516  EBS1516     0.0191
      5  C5        27.5260   15.1090   16.7120 C.ar  1516  EBS1516     0.1129
      6  C6        28.6790   15.2860   17.5120 C.ar  1516  EBS1516     0.0204
      7  N7        28.2350   18.9780   18.2120 N.ar  1516  EBS1516    -0.3058
      8  C8        27.1940   19.6920   17.7250 C.ar  1516  EBS1516     0.1962
      9  S9        26.0220   18.8900   16.7190 S.2   1516  EBS1516    -0.0472
     10  C10       23.5480   23.1090   19.8860 C.ar  1516  EBS1516     0.0494
     11  C11       23.3340   23.8180   18.6000 C.ar  1516  EBS1516     0.0676
     12  C12       22.6650   23.3850   20.9110 C.ar  1516  EBS1516     0.0269
     13  C13       22.2980   24.7270   18.4240 C.ar  1516  EBS1516     0.0191
     14  C14       21.6290   24.3040   20.6860 C.ar  1516  EBS1516     0.1129
     15  C15       21.4350   24.9700   19.4750 C.ar  1516  EBS1516     0.0204
     16  N16       24.2540   23.4220   17.7320 N.ar  1516  EBS1516    -0.3058
     17  C17       25.1030   22.5080   18.3240 C.ar  1516  EBS1516     0.1962
     18  S18       24.8600   22.0300   19.9910 S.2   1516  EBS1516    -0.0472
     19  N19       26.1330   21.9520   17.6240 N.2   1516  EBS1516    -0.1213
     20  N20       27.1050   21.0290   18.0670 N.2   1516  EBS1516    -0.1213
     21  C21       24.2060   24.0370   16.3930 C.3   1516  EBS1516     0.1081
     22  C22       23.4440   23.2230   15.3580 C.3   1516  EBS1516     0.0265
     23  S23       20.6110   24.6540   21.8520 S.3   1516  EBS1516     0.0421
     24  C24       29.2480   19.5900   19.0820 C.3   1516  EBS1516     0.1081
     25  C25       28.6280   19.9530   20.4160 C.3   1516  EBS1516     0.0265
     26  S26       27.1680   13.6650   16.0640 S.3   1516  EBS1516     0.0421
     27  O39       21.3740   25.2580   22.9200 O.3   1516  EBS1516    -0.0650
     28  O45       26.5220   14.0030   14.8280 O.3   1516  EBS1516    -0.0650
     29  O46       28.3560   12.8400   15.8870 O.3   1516  EBS1516    -0.0650
     30  O47       26.0170   12.8150   16.8710 O.3   1516  EBS1516    -0.0650
     31  O48       19.9940   23.4430   22.3270 O.3   1516  EBS1516    -0.0650
     32  O49       19.5060   25.6920   21.2070 O.3   1516  EBS1516    -0.0650
@<TRIPOS>BOND
     1    28    26    1
     2    22    21    1
     3    29    26    1
     4    26     5    1
     5    26    30    1
     6    21    16    1
     7     3     5   ar
     8     3     1   ar
     9     5     6   ar
    10     9     1   ar
    11     9     8   ar
    12     1     2   ar
    13     6     4   ar
    14    19    20    1
    15    19    17    2
    16     8    20    2
    17     8     7   ar
    18    16    17   ar
    19    16    11   ar
    20     2     4   ar
    21     2     7   ar
    22     7    24    1
    23    17    18   ar
    24    13    11   ar
    25    13    15   ar
    26    11    10   ar
    27    24    25    1
    28    15    14   ar
    29    10    18   ar
    30    10    12   ar
    31    14    12   ar
    32    14    23    1
    33    32    23    1
    34    23    31    1
    35    23    27    1
