@<TRIPOS>MOLECULE
3zeb_SV1_A_1.pdb
 21 22 0 0 0
SMALL
GASTEIGER

@<TRIPOS>ATOM
      1  O1         8.7320   -4.6760   48.4330 O.2   401  SV1401     -0.2497
      2  C8         8.9570   -4.8690   49.6050 C.2   401  SV1401      0.3215
      3  C7        10.1310   -5.6430   50.1450 C.3   401  SV1401      0.1360
      4  C6        11.3880   -4.8110   50.1040 C.ar  401  SV1401     -0.0078
      5  C5        11.2640   -3.4190   50.1750 C.ar  401  SV1401     -0.0022
      6  C4        12.3320   -2.5730   49.9500 C.ar  401  SV1401      0.0177
      7  C3        13.5960   -3.0930   49.6770 C.ar  401  SV1401      0.0892
      8  N         14.6710   -2.2640   49.4630 N.pl3 401  SV1401     -0.1281
      9  C2        13.7430   -4.4790   49.6490 C.ar  401  SV1401      0.0210
     10  C1        12.6720   -5.3530   49.8670 C.ar  401  SV1401      0.0401
     11  C         12.9690   -6.8320   49.7720 C.2   401  SV1401      0.2339
     12  O         12.1540   -7.7050   49.9850 O.2   401  SV1401     -0.2832
     13  O2         8.2010   -4.3790   50.6020 O.3   401  SV1401     -0.4479
     14  C9         7.1130   -3.4720   50.2650 C.3   401  SV1401      0.2131
     15  C10        7.6140   -2.0460   50.3380 C.3   401  SV1401      0.0737
     16  C11        6.5510   -1.0090   50.0530 C.ar  401  SV1401     -0.0184
     17  C16        6.1220   -0.7670   48.7550 C.ar  401  SV1401     -0.0041
     18  C15        5.1500    0.1870   48.4940 C.ar  401  SV1401     -0.0003
     19  C14        4.5980    0.9150   49.5250 C.ar  401  SV1401     -0.0000
     20  C13        5.0130    0.6870   50.8170 C.ar  401  SV1401     -0.0003
     21  C12        5.9830   -0.2690   51.0810 C.ar  401  SV1401     -0.0041
@<TRIPOS>BOND
     1     1     2    2
     2    18    17   ar
     3    18    19   ar
     4    17    16   ar
     5     8     7    1
     6    19    20   ar
     7     2     3    1
     8     2    13    1
     9     9     7   ar
    10     9    10   ar
    11     7     6   ar
    12    11    10    1
    13    11    12    2
    14    10     4   ar
    15     6     5   ar
    16    16    15    1
    17    16    21   ar
    18     4     3    1
    19     4     5   ar
    20    14    15    1
    21    14    13    1
    22    20    21   ar
