@<TRIPOS>MOLECULE
3zed_III_E_1.pdb
 42 43 0 0 0
SMALL
GASTEIGER

@<TRIPOS>ATOM
      1  N         -4.3390   10.6240   -5.4070 N.3   227  SER227     -0.1202
      2  CA        -3.8820    9.2550   -5.1550 C.3   227  SER227      0.2020
      3  C         -4.9360    8.2170   -5.6020 C.2   227  SER227      0.2619
      4  O         -4.5520    7.2360   -6.2510 O.2   227  SER227     -0.2717
      5  CB        -3.5180    9.0530   -3.6870 C.3   227  SER227      0.2103
      6  OG        -2.4540    8.1220   -3.5640 O.3   227  SER227     -0.2182
      7  N         -6.2540    8.4370   -5.2940 N.am  228  ARG228     -0.1965
      8  CA        -7.3250    7.5220   -5.7350 C.3   228  ARG228      0.1729
      9  C         -7.7040    7.8300   -7.1710 C.2   228  ARG228      0.2616
     10  O         -7.9270    9.0030   -7.4990 O.2   228  ARG228     -0.2715
     11  CB        -8.5800    7.5840   -4.8370 C.3   228  ARG228      0.0348
     12  CG        -9.7050    6.5970   -5.2860 C.3   228  ARG228      0.0492
     13  CD       -10.7730    6.3240   -4.2370 C.3   228  ARG228      0.2205
     14  NE       -10.1960    5.9350   -2.9450 N.pl3 228  ARG228     -0.0865
     15  CZ       -10.8130    6.0480   -1.7720 C.cat 228  ARG228      0.5346
     16  NH1      -12.0550    6.5130   -1.7100 N.pl3 228  ARG228      0.1354
     17  NH2      -10.1880    5.7040   -0.6480 N.pl3 228  ARG228      0.1354
     18  N         -7.8260    6.7880   -8.0210 N.am  229  PHE229     -0.1960
     19  CA        -8.2000    7.0150   -9.4100 C.3   229  PHE229      0.1771
     20  C         -9.6430    7.5130   -9.5020 C.2   229  PHE229      0.2620
     21  O        -10.5630    6.8830   -8.9760 O.2   229  PHE229     -0.2715
     22  CB        -7.9750    5.7710  -10.2760 C.3   229  PHE229      0.0574
     23  CG        -8.3260    5.9510  -11.7350 C.ar  229  PHE229     -0.0200
     24  CD1       -7.4890    6.6620  -12.5860 C.ar  229  PHE229     -0.0042
     25  CD2       -9.4800    5.3890  -12.2610 C.ar  229  PHE229     -0.0042
     26  CE1       -7.8090    6.8160  -13.9380 C.ar  229  PHE229     -0.0003
     27  CE2       -9.8040    5.5520  -13.6110 C.ar  229  PHE229     -0.0003
     28  CZ        -8.9640    6.2620  -14.4430 C.ar  229  PHE229     -0.0000
     29  N         -9.8020    8.7010  -10.1060 N.am  230  THR230     -0.1937
     30  CA       -11.0830    9.3590  -10.3430 C.3   230  THR230      0.2013
     31  C        -11.0800    9.8100  -11.8150 C.2   230  THR230      0.2484
     32  O        -10.4070   10.7970  -12.1310 O.2   230  THR230     -0.2729
     33  CB       -11.3390   10.5270   -9.3450 C.3   230  THR230      0.1807
     34  OG1      -10.4530   11.6120   -9.6370 O.3   230  THR230     -0.2208
     35  CG2      -11.2250   10.1150   -7.8650 C.3   230  THR230      0.0379
     36  N        -11.7580    9.0950  -12.7410 N.am  231  PRO231     -0.2726
     37  CA       -11.7420    9.5250  -14.1570 C.3   231  PRO231      0.1402
     38  C        -12.4100   10.8920  -14.3800 C.2   231  PRO231      0.2269
     39  O        -12.2460   11.5140  -15.4310 O.2   231  PRO231     -0.2865
     40  CB       -12.5200    8.4210  -14.8750 C.3   231  PRO231      0.0296
     41  CG       -13.3750    7.8050  -13.8150 C.3   231  PRO231      0.0237
     42  CD       -12.5740    7.8790  -12.5540 C.3   231  PRO231      0.0939
@<TRIPOS>BOND
     1    39    38    2
     2    40    37    1
     3    40    41    1
     4    28    26   ar
     5    28    27   ar
     6    38    37    1
     7    37    36    1
     8    26    24   ar
     9    41    42    1
    10    27    25   ar
    11    36    42    1
    12    36    31   am
    13    24    23   ar
    14    25    23   ar
    15    32    31    2
    16    31    30    1
    17    23    22    1
    18    30    29    1
    19    30    33    1
    20    22    19    1
    21    29    20   am
    22    34    33    1
    23    20    19    1
    24    20    21    2
    25    19    18    1
    26    33    35    1
    27    18     9   am
    28    10     9    2
    29     9     8    1
    30     4     3    2
    31     8     7    1
    32     8    11    1
    33     3     7   am
    34     3     2    1
    35     1     2    1
    36    12    11    1
    37    12    13    1
    38     2     5    1
    39    13    14    1
    40     5     6    1
    41    14    15    2
    42    15    16    1
    43    15    17    1
