@<TRIPOS>MOLECULE
3zen_FMN_D_1.pdb
 31 33 0 0 0
SMALL
GASTEIGER

@<TRIPOS>ATOM
      1  N1       259.2230  221.8180  277.4470 N.2   4000  FMN4000    -0.2887
      2  C2       258.5600  220.6730  277.0780 C.1   4000  FMN4000     0.3669
      3  O2       257.4740  220.4330  277.5960 O.2   4000  FMN4000    -0.1744
      4  N3       259.1150  219.8190  276.1440 N.2   4000  FMN4000    -0.2300
      5  C4       260.3410  220.1130  275.5760 C.1   4000  FMN4000     0.2513
      6  O4       260.8330  219.3520  274.7450 O.2   4000  FMN4000    -0.2057
      7  C4A      261.0150  221.2730  275.9470 C.2   4000  FMN4000     0.2703
      8  N5       262.2420  221.6000  275.4010 N.2   4000  FMN4000    -0.3882
      9  C5A      262.8850  222.7620  275.7930 C.2   4000  FMN4000     0.1277
     10  C6       264.1200  223.1020  275.2500 C.3   4000  FMN4000     0.0820
     11  C7       264.7620  224.2720  275.6500 C.2   4000  FMN4000    -0.0408
     12  C7M      266.0930  224.6380  275.0650 C.3   4000  FMN4000     0.0265
     13  C8       264.1690  225.1040  276.5930 C.2   4000  FMN4000    -0.0280
     14  C8M      264.8450  226.3670  277.0370 C.3   4000  FMN4000     0.0304
     15  C9       262.9380  224.7660  277.1330 C.2   4000  FMN4000     0.0123
     16  C9A      262.2980  223.5980  276.7360 C.2   4000  FMN4000     0.0793
     17  N10      261.0760  223.2680  277.2760 N.pl3 4000  FMN4000    -0.2545
     18  C10      260.4400  222.1170  276.8850 C.2   4000  FMN4000     0.2449
     19  C1'      260.4150  224.1450  278.2950 C.3   4000  FMN4000     0.1336
     20  C2'      260.8930  223.7200  279.6790 C.3   4000  FMN4000     0.2048
     21  O2'      260.5390  222.3730  279.8930 O.3   4000  FMN4000    -0.2185
     22  C3'      260.2830  224.5820  280.7760 C.3   4000  FMN4000     0.2165
     23  O3'      258.8810  224.4410  280.7530 O.3   4000  FMN4000    -0.2175
     24  C4'      260.6480  226.0520  280.6030 C.3   4000  FMN4000     0.2147
     25  O4'      261.9330  226.1710  280.0370 O.3   4000  FMN4000    -0.2176
     26  C5'      260.6520  226.7570  281.9500 C.3   4000  FMN4000     0.1892
     27  O5'      260.6800  228.1510  281.7550 O.3   4000  FMN4000    -0.2674
     28  P        262.0550  228.9590  281.9600 P.3   4000  FMN4000     0.5327
     29  O1P      262.0050  230.2230  281.1360 O.2   4000  FMN4000    -0.2224
     30  O2P      262.2680  229.2850  283.4190 O.3   4000  FMN4000    -0.1145
     31  O3P      263.1870  228.0990  281.4570 O.3   4000  FMN4000    -0.1145
@<TRIPOS>BOND
     1     6     5    2
     2    12    11    1
     3    10    11    1
     4    10     9    1
     5     8     9    2
     6     8     7    2
     7     5     7    1
     8     5     4    2
     9    11    13    2
    10     9    16    1
    11     7    18    1
    12     4     2    2
    13    13    14    1
    14    13    15    1
    15    16    15    2
    16    16    17    1
    17    18    17    1
    18    18     1    2
    19     2     1    2
    20     2     3    2
    21    17    19    1
    22    19    20    1
    23    20    21    1
    24    20    22    1
    25    25    24    1
    26    24    22    1
    27    24    26    1
    28    23    22    1
    29    29    28    2
    30    31    28    1
    31    27    26    1
    32    27    28    1
    33    28    30    1
