@<TRIPOS>MOLECULE
3zez_DUP_A_1.pdb
 28 29 0 0 0
SMALL
GASTEIGER

@<TRIPOS>ATOM
      1  O2G       43.1240   11.8410   12.3920 O.3   1173  DUP1173    -0.1143
      2  PG        42.0020   12.8430   12.2550 P.3   1173  DUP1173     0.5397
      3  O1G       40.9600   12.7630   13.3440 O.3   1173  DUP1173    -0.1143
      4  O3G       42.4560   14.2440   11.9260 O.2   1173  DUP1173    -0.2220
      5  O3B       41.2060   12.3610   10.9390 O.3   1173  DUP1173    -0.1901
      6  PB        41.9500   12.2570    9.5150 P.3   1173  DUP1173     0.4700
      7  O1B       41.4440   13.3170    8.6140 O.2   1173  DUP1173    -0.2350
      8  O2B       43.5390   12.4230    9.7210 O.3   1173  DUP1173    -0.1252
      9  N3A       41.6420   10.6940    8.7990 N.3   1173  DUP1173    -0.0179
     10  PA        42.3210    9.2540    9.5160 P.3   1173  DUP1173     0.4623
     11  O1A       42.8490    8.3800    8.4460 O.2   1173  DUP1173    -0.2354
     12  O2A       43.5060    9.6560   10.5310 O.3   1173  DUP1173    -0.1255
     13  O5'       41.1640    8.4730   10.3150 O.3   1173  DUP1173    -0.2775
     14  C5'       40.5660    9.0710   11.4620 C.3   1173  DUP1173     0.1848
     15  C4'       39.6870    8.0840   12.2240 C.3   1173  DUP1173     0.1774
     16  C3'       40.2010    6.6510   12.1810 C.3   1173  DUP1173     0.1857
     17  O3'       40.8090    6.2900   13.4230 O.3   1173  DUP1173    -0.2203
     18  C2'       38.9810    5.7900   11.9190 C.3   1173  DUP1173     0.0874
     19  O4'       38.3700    8.0840   11.6640 O.3   1173  DUP1173    -0.3339
     20  C1'       37.8640    6.7530   11.5300 C.3   1173  DUP1173     0.2090
     21  N1        37.4160    6.4980   10.1500 N.am  1173  DUP1173    -0.1790
     22  C6        38.2420    6.7280    9.1150 C.2   1173  DUP1173     0.0928
     23  C5        37.8130    6.4820    7.8150 C.2   1173  DUP1173     0.1242
     24  C2        36.1080    6.0050    9.8970 C.1   1173  DUP1173     0.2844
     25  O2        35.3120    5.7800   10.8350 O.2   1173  DUP1173    -0.1918
     26  N3        35.7080    5.7730    8.6370 N.2   1173  DUP1173    -0.2452
     27  C4        36.5260    6.0000    7.6000 C.1   1173  DUP1173     0.2182
     28  O4        36.1350    5.7780    6.4350 O.2   1173  DUP1173    -0.2085
@<TRIPOS>BOND
     1    28    27    2
     2    27    23    1
     3    27    26    2
     4    23    22    2
     5    11    10    2
     6     7     6    2
     7    26    24    2
     8     9     6    1
     9     9    10    1
    10    22    21    1
    11     6     8    1
    12     6     5    1
    13    10    13    1
    14    10    12    1
    15    24    21   am
    16    24    25    2
    17    21    20    1
    18    13    14    1
    19     5     2    1
    20    14    15    1
    21    20    19    1
    22    20    18    1
    23    19    15    1
    24    18    16    1
    25     4     2    2
    26    16    15    1
    27    16    17    1
    28     2     1    1
    29     2     3    1
