@<TRIPOS>MOLECULE
3zf0_DUP_A_1.pdb
 28 29 0 0 0
SMALL
GASTEIGER

@<TRIPOS>ATOM
      1  O4         6.6270    5.9100   -6.8230 O.2   777  DUP777     -0.2085
      2  C4         6.1990    6.0850   -7.9850 C.1   777  DUP777      0.2182
      3  C5         4.9630    6.7000   -8.1810 C.2   777  DUP777      0.1242
      4  C6         4.4910    6.8880   -9.4800 C.2   777  DUP777      0.0928
      5  N3         6.9230    5.6810   -9.0440 N.2   777  DUP777     -0.2452
      6  C2         6.4790    5.8590  -10.3030 C.1   777  DUP777      0.2844
      7  O2         7.1930    5.4660  -11.2550 O.2   777  DUP777     -0.1918
      8  N1         5.2180    6.4830  -10.5420 N.am  777  DUP777     -0.1790
      9  C1'        4.7140    6.6920  -11.9220 C.3   777  DUP777      0.2090
     10  C2'        3.5990    5.7160  -12.2900 C.3   777  DUP777      0.0874
     11  C3'        2.3750    6.5600  -12.6050 C.3   777  DUP777      0.1857
     12  O3'        1.8890    6.2790  -13.9210 O.3   777  DUP777     -0.2203
     13  O4'        4.1900    8.0160  -12.1070 O.3   777  DUP777     -0.3339
     14  C4'        2.8150    8.0140  -12.5100 C.3   777  DUP777      0.1774
     15  C5'        1.9940    8.8260  -11.5060 C.3   777  DUP777      0.1848
     16  O5'        0.7400    8.2060  -11.2190 O.3   777  DUP777     -0.2775
     17  PA         0.0540    8.3310   -9.7650 P.3   777  DUP777      0.4623
     18  O1A        0.7990    7.5200   -8.7730 O.3   777  DUP777     -0.1255
     19  O2A       -1.4590    7.7920   -9.8740 O.2   777  DUP777     -0.2354
     20  N3A        0.0420   10.0040   -9.2570 N.3   777  DUP777     -0.0179
     21  PB        -0.6010   11.2370  -10.3200 P.3   777  DUP777      0.4700
     22  O1B        0.3780   12.3480  -10.4160 O.2   777  DUP777     -0.2350
     23  O2B       -1.9800   11.7860   -9.6940 O.3   777  DUP777     -0.1252
     24  O3B       -0.8660   10.6140  -11.7900 O.3   777  DUP777     -0.1901
     25  PG        -2.1970   10.9370  -12.6450 P.3   777  DUP777      0.5397
     26  O2G       -3.2960   10.1840  -11.9250 O.3   777  DUP777     -0.1143
     27  O1G       -1.8870   10.4040  -14.0260 O.2   777  DUP777     -0.2220
     28  O3G       -2.3230   12.4420  -12.5780 O.3   777  DUP777     -0.1143
@<TRIPOS>BOND
     1    27    25    2
     2    12    11    1
     3    25    28    1
     4    25    26    1
     5    25    24    1
     6    11    14    1
     7    11    10    1
     8    14    13    1
     9    14    15    1
    10    10     9    1
    11    13     9    1
    12     9     8    1
    13    24    21    1
    14    15    16    1
    15     7     6    2
    16    16    17    1
    17     8     6   am
    18     8     4    1
    19    22    21    2
    20    21    23    1
    21    21    20    1
    22     6     5    2
    23    19    17    2
    24    17    20    1
    25    17    18    1
    26     4     3    2
    27     5     2    2
    28     3     2    1
    29     2     1    2
