@<TRIPOS>MOLECULE
3zf1_DUP_A_1.pdb
 28 29 0 0 0
SMALL
GASTEIGER

@<TRIPOS>ATOM
      1  O4         5.6750    7.5420   36.4440 O.2   777  DUP777     -0.2085
      2  C4         5.8870    8.6530   36.9760 C.1   777  DUP777      0.2182
      3  C5         6.4280    8.7150   38.2560 C.2   777  DUP777      0.1242
      4  C6         6.6610    9.9560   38.8410 C.2   777  DUP777      0.0928
      5  N3         5.5960    9.7840   36.3150 N.2   777  DUP777     -0.2452
      6  C2         5.8160   10.9880   36.8670 C.1   777  DUP777      0.2844
      7  O2         5.5290   12.0160   36.2140 O.2   777  DUP777     -0.1918
      8  N1         6.3660   11.0840   38.1720 N.am  777  DUP777     -0.1790
      9  C1'        6.6080   12.4020   38.7840 C.3   777  DUP777      0.2090
     10  C2'        5.5480   12.7090   39.8370 C.3   777  DUP777      0.0874
     11  C3'        6.3020   12.9010   41.1400 C.3   777  DUP777      0.1857
     12  O3'        5.9150   14.1220   41.7760 O.3   777  DUP777     -0.2203
     13  O4'        7.8880   12.4580   39.4260 O.3   777  DUP777     -0.3339
     14  C4'        7.7740   12.9490   40.7660 C.3   777  DUP777      0.1774
     15  C5'        8.6160   12.1050   41.7150 C.3   777  DUP777      0.1848
     16  O5'        8.3100   10.7200   41.5510 O.3   777  DUP777     -0.2775
     17  PA         7.8460    9.7990   42.7910 P.3   777  DUP777      0.4623
     18  O1A        7.0530    8.6550   42.2840 O.2   777  DUP777     -0.2354
     19  O2A        6.9500   10.6570   43.8190 O.3   777  DUP777     -0.1255
     20  N3A        9.2600    9.1970   43.6250 N.3   777  DUP777     -0.0179
     21  PB        10.3720   10.3260   44.3620 P.3   777  DUP777      0.4700
     22  O1B       11.1640    9.6310   45.4010 O.3   777  DUP777     -0.1252
     23  O2B        9.5370   11.5250   45.0390 O.2   777  DUP777     -0.2350
     24  O3B       11.3540   10.9260   43.2330 O.3   777  DUP777     -0.1901
     25  PG        12.6100   10.0840   42.6740 P.3   777  DUP777      0.5397
     26  O2G       12.9480   10.7570   41.3650 O.2   777  DUP777     -0.2220
     27  O1G       12.0790    8.6790   42.5280 O.3   777  DUP777     -0.1143
     28  O3G       13.6630   10.2400   43.7460 O.3   777  DUP777     -0.1143
@<TRIPOS>BOND
     1     7     6    2
     2     5     6    2
     3     5     2    2
     4     1     2    2
     5     6     8   am
     6     2     3    1
     7     8     9    1
     8     8     4    1
     9     3     4    2
    10     9    13    1
    11     9    10    1
    12    13    14    1
    13    10    11    1
    14    14    11    1
    15    14    15    1
    16    11    12    1
    17    26    25    2
    18    16    15    1
    19    16    17    1
    20    18    17    2
    21    27    25    1
    22    25    24    1
    23    25    28    1
    24    17    20    1
    25    17    19    1
    26    24    21    1
    27    20    21    1
    28    21    23    2
    29    21    22    1
