@<TRIPOS>MOLECULE
3zf4_DUP_A_1.pdb
 28 29 0 0 0
SMALL
GASTEIGER

@<TRIPOS>ATOM
      1  O4         6.9120    5.3380   -7.2880 O.2   777  DUP777     -0.2085
      2  C4         6.5140    5.6360   -8.4350 C.1   777  DUP777      0.2182
      3  C5         5.2750    6.2450   -8.6010 C.2   777  DUP777      0.1242
      4  C6         4.8450    6.5720   -9.8820 C.2   777  DUP777      0.0928
      5  N3         7.2800    5.3680   -9.5050 N.2   777  DUP777     -0.2452
      6  C2         6.8770    5.6800  -10.7460 C.1   777  DUP777      0.2844
      7  O2         7.6260    5.4120  -11.7120 O.2   777  DUP777     -0.1918
      8  N1         5.6190    6.3030  -10.9500 N.am  777  DUP777     -0.1790
      9  C1'        5.1670    6.6430  -12.3120 C.3   777  DUP777      0.2090
     10  C2'        4.0740    5.6800  -12.7600 C.3   777  DUP777      0.0874
     11  C3'        2.8050    6.5070  -12.8020 C.3   777  DUP777      0.1857
     12  O3'        2.0560    6.2330  -13.9870 O.3   777  DUP777     -0.2203
     13  O4'        4.6260    7.9690  -12.3700 O.3   777  DUP777     -0.3339
     14  C4'        3.2530    7.9620  -12.7780 C.3   777  DUP777      0.1774
     15  C5'        2.4300    8.8350  -11.8310 C.3   777  DUP777      0.1848
     16  O5'        1.2810    8.1490  -11.3300 O.3   777  DUP777     -0.2775
     17  PA         0.3660    8.7570  -10.1500 P.3   777  DUP777      0.4623
     18  O1A        0.2270    7.7430   -9.0810 O.3   777  DUP777     -0.1255
     19  O2A       -1.0890    9.1270  -10.7320 O.2   777  DUP777     -0.2354
     20  N3A        1.0850   10.2020   -9.4790 N.3   777  DUP777     -0.0179
     21  PB         0.6490   11.7680  -10.1180 P.3   777  DUP777      0.4700
     22  O1B        1.1620   12.8210   -9.2130 O.3   777  DUP777     -0.1252
     23  O2B       -0.9550   11.8720  -10.2260 O.2   777  DUP777     -0.2350
     24  O3B        1.3070   11.9440  -11.5760 O.3   777  DUP777     -0.1901
     25  PG         0.4150   12.3640  -12.8500 P.3   777  DUP777      0.5397
     26  O2G       -0.4310   11.1420  -13.1200 O.3   777  DUP777     -0.1143
     27  O1G        1.4430   12.6640  -13.9150 O.2   777  DUP777     -0.2220
     28  O3G       -0.3660   13.5690  -12.3830 O.3   777  DUP777     -0.1143
@<TRIPOS>BOND
     1    12    11    1
     2    27    25    2
     3    26    25    1
     4    25    28    1
     5    25    24    1
     6    11    14    1
     7    11    10    1
     8    14    13    1
     9    14    15    1
    10    10     9    1
    11    13     9    1
    12     9     8    1
    13    15    16    1
    14     7     6    2
    15    24    21    1
    16    16    17    1
    17     8     6   am
    18     8     4    1
    19     6     5    2
    20    19    17    2
    21    23    21    2
    22    17    20    1
    23    17    18    1
    24    21    20    1
    25    21    22    1
    26     4     3    2
    27     5     2    2
    28     3     2    1
    29     2     1    2
