@<TRIPOS>MOLECULE
3zf5_DUP_A_1.pdb
 28 29 0 0 0
SMALL
GASTEIGER

@<TRIPOS>ATOM
      1  O4        15.7220   16.3730  -13.7910 O.2   777  DUP777     -0.2085
      2  C4        14.5610   16.1650  -14.2050 C.1   777  DUP777      0.2182
      3  C5        14.3600   15.6370  -15.4760 C.2   777  DUP777      0.1242
      4  C6        13.0630   15.4100  -15.9250 C.2   777  DUP777      0.0928
      5  N3        13.5110   16.4540  -13.4230 N.2   777  DUP777     -0.2452
      6  C2        12.2550   16.2410  -13.8430 C.1   777  DUP777      0.2844
      7  O2        11.3040   16.5220  -13.0820 O.2   777  DUP777     -0.1918
      8  N1        12.0170   15.7020  -15.1330 N.am  777  DUP777     -0.1790
      9  C1'       10.6370   15.4710  -15.5880 C.3   777  DUP777      0.2090
     10  C2'       10.2950   16.3720  -16.7680 C.3   777  DUP777      0.0874
     11  C3'       10.0420   15.4470  -17.9410 C.3   777  DUP777      0.1857
     12  O3'        8.7890   15.7590  -18.5540 O.3   777  DUP777     -0.2203
     13  O4'       10.4500   14.1150  -16.0020 O.3   777  DUP777     -0.3339
     14  C4'       10.0200   14.0370  -17.3640 C.3   777  DUP777      0.1774
     15  C5'       10.9160   13.0480  -18.1060 C.3   777  DUP777      0.1848
     16  O5'       11.7630   13.6820  -19.0640 O.3   777  DUP777     -0.2775
     17  PA        12.5290   12.8030  -20.1740 P.3   777  DUP777      0.4623
     18  O1A       13.6000   13.6200  -20.7840 O.3   777  DUP777     -0.1255
     19  O2A       11.4900   12.3270  -21.3080 O.2   777  DUP777     -0.2354
     20  N3A       13.2450   11.4050  -19.4130 N.3   777  DUP777     -0.0179
     21  PB        12.5090    9.8300  -19.5790 P.3   777  DUP777      0.4700
     22  O1B       13.3110    8.8530  -18.8150 O.3   777  DUP777     -0.1252
     23  O2B       12.4910    9.4040  -21.1320 O.2   777  DUP777     -0.2350
     24  O3B       11.0070    9.8600  -19.0030 O.3   777  DUP777     -0.1901
     25  PG         9.7830    9.2910  -19.8780 P.3   777  DUP777      0.5397
     26  O2G        9.7740   10.1750  -21.1030 O.2   777  DUP777     -0.2220
     27  O1G        8.5870    9.4690  -18.9750 O.3   777  DUP777     -0.1143
     28  O3G       10.1560    7.8530  -20.1460 O.3   777  DUP777     -0.1143
@<TRIPOS>BOND
     1    19    17    2
     2    23    21    2
     3    26    25    2
     4    18    17    1
     5    17    20    1
     6    17    16    1
     7    28    25    1
     8    25    24    1
     9    25    27    1
    10    21    20    1
    11    21    24    1
    12    21    22    1
    13    16    15    1
    14    12    11    1
    15    15    14    1
    16    11    14    1
    17    11    10    1
    18    14    13    1
    19    10     9    1
    20    13     9    1
    21     4     3    2
    22     4     8    1
    23     9     8    1
    24     3     2    1
    25     8     6   am
    26     2     1    2
    27     2     5    2
    28     6     5    2
    29     6     7    2
