@<TRIPOS>MOLECULE
3zf6_UMP_A_1.pdb
 20 21 0 0 0
SMALL
GASTEIGER

@<TRIPOS>ATOM
      1  N1       -11.0170    5.0910    6.3250 N.am  1172  UMP1172    -0.1790
      2  C2       -10.8440    6.3510    5.6950 C.1   1172  UMP1172     0.2844
      3  N3        -9.6100    6.8250    5.4630 N.2   1172  UMP1172    -0.2452
      4  C4        -8.5200    6.1270    5.8170 C.1   1172  UMP1172     0.2182
      5  C5        -8.6560    4.8870    6.4370 C.2   1172  UMP1172     0.1242
      6  C6        -9.9310    4.3820    6.6830 C.2   1172  UMP1172     0.0928
      7  O2       -11.8330    7.0350    5.3510 O.2   1172  UMP1172    -0.1918
      8  O4        -7.3820    6.5910    5.5890 O.2   1172  UMP1172    -0.2085
      9  C1'      -12.3720    4.5710    6.5780 C.3   1172  UMP1172     0.2090
     10  C2'      -12.7000    3.4450    5.6010 C.3   1172  UMP1172     0.0874
     11  C3'      -12.8750    2.2060    6.4570 C.3   1172  UMP1172     0.1857
     12  C4'      -13.0410    2.7240    7.8770 C.3   1172  UMP1172     0.1774
     13  O3'      -14.0280    1.4670    6.0490 O.3   1172  UMP1172    -0.2203
     14  O4'      -12.4850    4.0420    7.9040 O.3   1172  UMP1172    -0.3339
     15  C5'      -12.3730    1.8260    8.9150 C.3   1172  UMP1172     0.1858
     16  O5'      -10.9660    1.7290    8.6910 O.3   1172  UMP1172    -0.2675
     17  P        -10.1000    0.5660    9.3950 P.3   1172  UMP1172     0.5327
     18  OP1      -10.7660   -0.7210    8.9710 O.3   1172  UMP1172    -0.1145
     19  OP2       -8.7120    0.7550    8.8330 O.2   1172  UMP1172    -0.2224
     20  OP3      -10.2130    0.8570   10.8710 O.3   1172  UMP1172    -0.1145
@<TRIPOS>BOND
     1     7     2    2
     2     3     2    2
     3     3     4    2
     4     8     4    2
     5    10    11    1
     6    10     9    1
     7     2     1   am
     8     4     5    1
     9    13    11    1
    10     1     9    1
    11     1     6    1
    12     5     6    2
    13    11    12    1
    14     9    14    1
    15    12    14    1
    16    12    15    1
    17    16    15    1
    18    16    17    1
    19    19    17    2
    20    18    17    1
    21    17    20    1
