@<TRIPOS>MOLECULE
3zfs_F42_C_1.pdb
 19 21 0 0 0
SMALL
GASTEIGER

@<TRIPOS>ATOM
      1  N1       179.5200   89.1970  168.1460 N.2   285  F42285     -0.2957
      2  C2       179.5620   87.9460  168.6820 C.1   285  F42285      0.3661
      3  O2       180.5070   87.6670  169.4470 O.2   285  F42285     -0.1745
      4  N3       178.9170   86.9340  168.0510 N.2   285  F42285     -0.2365
      5  C4       177.9020   87.2150  167.1830 C.1   285  F42285      0.2009
      6  O4       177.0570   86.3210  166.8880 O.2   285  F42285     -0.2129
      7  C4A      177.6090   88.5590  166.9430 C.3   285  F42285      0.1911
      8  C5       176.4720   88.9640  166.2240 C.3   285  F42285      0.0539
      9  C5A      176.6260   90.0810  165.4000 C.ar  285  F42285     -0.0067
     10  C6       175.7450   90.2940  164.3330 C.ar  285  F42285      0.0003
     11  C7       175.9120   91.4010  163.5110 C.ar  285  F42285      0.0418
     12  C8       176.9610   92.2950  163.7530 C.ar  285  F42285      0.1970
     13  O8M      177.1060   93.3860  162.9430 O.3   285  F42285     -0.2865
     14  C9       177.8430   92.0800  164.8240 C.ar  285  F42285      0.0566
     15  C9A      177.6720   90.9700  165.6560 C.ar  285  F42285      0.0525
     16  N10      178.5150   90.7360  166.6960 N.pl3 285  F42285     -0.2646
     17  C10      178.6070   89.4910  167.1960 C.2   285  F42285      0.1959
     18  C1'      179.3180   91.8240  167.3010 C.3   285  F42285      0.0977
     19  C2'      180.7280   91.8640  166.7110 C.3   285  F42285      0.0236
@<TRIPOS>BOND
     1    13    12    1
     2    11    12   ar
     3    11    10   ar
     4    12    14   ar
     5    10     9   ar
     6    14    15   ar
     7     9    15   ar
     8     9     8    1
     9    15    16    1
    10     8     7    1
    11    16    17    1
    12    16    18    1
    13    19    18    1
    14     6     5    2
    15     7     5    1
    16     7    17    1
    17     5     4    2
    18    17     1    2
    19     4     2    2
    20     1     2    2
    21     2     3    2
