@<TRIPOS>MOLECULE
3zgf_UDP_A_1.pdb
 25 26 0 0 0
SMALL
GASTEIGER

@<TRIPOS>ATOM
      1  N1        16.3180  -34.2890  -13.8540 N.am  1355  UDP1355    -0.1766
      2  C2        17.4660  -34.5440  -13.1190 C.1   1355  UDP1355     0.2845
      3  N3        17.9560  -35.8280  -13.0110 N.2   1355  UDP1355    -0.2452
      4  C4        17.2990  -36.8720  -13.6370 C.1   1355  UDP1355     0.2182
      5  C5        16.1420  -36.6220  -14.3790 C.2   1355  UDP1355     0.1242
      6  C6        15.6800  -35.3120  -14.5120 C.2   1355  UDP1355     0.0929
      7  O2        18.0520  -33.6210  -12.5560 O.2   1355  UDP1355    -0.1918
      8  O4        17.7480  -38.0160  -13.5350 O.2   1355  UDP1355    -0.2085
      9  C1'       15.8100  -32.8990  -13.9360 C.3   1355  UDP1355     0.2401
     10  C2'       16.7020  -32.0680  -14.8350 C.3   1355  UDP1355     0.2319
     11  O2'       16.7310  -30.7340  -14.3580 O.3   1355  UDP1355    -0.2157
     12  C3'       15.9490  -32.1170  -16.1480 C.3   1355  UDP1355     0.2158
     13  C4'       14.5070  -32.0840  -15.6780 C.3   1355  UDP1355     0.1799
     14  O4'       14.5110  -32.8880  -14.5150 O.3   1355  UDP1355    -0.3320
     15  O3'       16.2740  -31.0200  -16.9540 O.3   1355  UDP1355    -0.2175
     16  C5'       13.5460  -32.6230  -16.7310 C.3   1355  UDP1355     0.1813
     17  O5'       14.0480  -33.8670  -17.1680 O.3   1355  UDP1355    -0.3111
     18  PA        14.4870  -34.1150  -18.6920 P.3   1355  UDP1355     0.2231
     19  O1A       15.2220  -32.9630  -19.2620 O.2   1355  UDP1355    -0.5169
     20  O2A       15.2860  -35.3590  -18.8130 O.3   1355  UDP1355    -0.4370
     21  O3A       13.0640  -34.2950  -19.4440 O.3   1355  UDP1355    -0.2261
     22  PB        12.6080  -33.6320  -20.8460 P.3   1355  UDP1355     0.5373
     23  O1B       11.4900  -32.6890  -20.5900 O.3   1355  UDP1355    -0.1143
     24  O2B       12.1330  -34.7340  -21.7180 O.2   1355  UDP1355    -0.2221
     25  O3B       13.7090  -32.9420  -21.5560 O.3   1355  UDP1355    -0.1143
@<TRIPOS>BOND
     1    24    22    2
     2    25    22    1
     3    22    23    1
     4    22    21    1
     5    21    18    1
     6    19    18    2
     7    20    18    1
     8    18    17    1
     9    17    16    1
    10    15    12    1
    11    16    13    1
    12    12    13    1
    13    12    10    1
    14    13    14    1
    15    10    11    1
    16    10     9    1
    17    14     9    1
    18     6     5    2
    19     6     1    1
    20     5     4    1
    21     9     1    1
    22     1     2   am
    23     4     8    2
    24     4     3    2
    25     2     3    2
    26     2     7    2
