@<TRIPOS>MOLECULE
3zgf_IUG_B_1.pdb
 46 49 0 0 0
SMALL
GASTEIGER

@<TRIPOS>ATOM
      1  C1       -11.7220   17.8730  -23.3020 C.3   452  IUG452      0.2742
      2  O1       -11.8780   19.2750  -23.1380 O.3   452  IUG452     -0.2857
      3  C2       -10.5100   17.4200  -22.4940 C.3   452  IUG452      0.2409
      4  O2       -10.7690   17.4720  -21.0750 O.3   452  IUG452     -0.2149
      5  C3        -9.3240   18.2840  -22.8980 C.3   452  IUG452      0.2198
      6  O3        -8.1630   17.8660  -22.1740 O.3   452  IUG452     -0.2174
      7  C4        -9.0920   18.1660  -24.4070 C.3   452  IUG452      0.2143
      8  O4        -8.5490   16.8870  -24.7760 O.3   452  IUG452     -0.2176
      9  C5       -10.3760   18.3710  -25.2110 C.3   452  IUG452      0.1801
     10  O5       -11.4870   17.6290  -24.6890 O.3   452  IUG452     -0.3255
     11  C6       -10.1350   17.8790  -26.6260 C.3   452  IUG452      0.1748
     12  O6       -11.3050   18.0270  -27.4220 O.3   452  IUG452     -0.3463
     13  C1'      -16.1720   19.6230  -16.2140 C.3   452  IUG452      0.2401
     14  C2'      -16.9820   18.6290  -17.0210 C.3   452  IUG452      0.2319
     15  O2'      -16.8660   17.3350  -16.4160 O.3   452  IUG452     -0.2157
     16  C3'      -16.2610   18.5870  -18.3340 C.3   452  IUG452      0.2158
     17  O3'      -16.5230   17.3530  -19.0080 O.3   452  IUG452     -0.2175
     18  C4'      -14.8150   18.7310  -17.8750 C.3   452  IUG452      0.1799
     19  O4'      -14.8630   19.6630  -16.7960 O.3   452  IUG452     -0.3320
     20  C5'      -13.8620   19.2030  -18.9550 C.3   452  IUG452      0.1813
     21  O5'      -14.3580   20.4090  -19.5250 O.3   452  IUG452     -0.3112
     22  OAA      -18.3210   24.6340  -16.4650 O.2   452  IUG452     -0.2085
     23  OAB      -18.4470   20.4110  -14.9590 O.2   452  IUG452     -0.1918
     24  OAC      -12.3520   14.6370  -31.6670 O.2   452  IUG452     -0.1261
     25  OAD      -15.5590   21.7210  -21.2560 O.3   452  IUG452     -0.4371
     26  OAE      -14.3500   18.9430  -23.7860 O.3   452  IUG452     -0.4371
     27  OAK      -12.1760   14.5450  -29.5690 O.2   452  IUG452     -0.1261
     28  OAL      -15.6060   19.1060  -21.3680 O.2   452  IUG452     -0.5170
     29  OAM      -13.1140   21.1880  -24.2430 O.2   452  IUG452     -0.5170
     30  CAN       -9.1470   18.2260  -31.1300 C.ar  452  IUG452     -0.0001
     31  CAO       -9.3410   17.2830  -32.1280 C.ar  452  IUG452      0.0017
     32  CAP       -9.8670   18.1310  -29.9440 C.ar  452  IUG452     -0.0002
     33  CAQ      -10.2520   16.2550  -31.9290 C.ar  452  IUG452      0.0238
     34  CAR      -16.6440   23.2030  -17.1190 C.2   452  IUG452      0.1242
     35  CAS      -16.1230   21.9140  -17.0340 C.2   452  IUG452      0.0929
     36  CAT      -11.5270   17.0370  -28.4550 C.3   452  IUG452      0.1703
     37  NAW      -18.3970   22.5220  -15.7030 N.2   452  IUG452     -0.2452
     38  OBC      -13.4930   20.4120  -21.8550 O.3   452  IUG452     -0.2703
     39  CBD      -10.7870   17.1020  -29.7410 C.ar  452  IUG452      0.0297
     40  CBE      -10.9720   16.1500  -30.7400 C.ar  452  IUG452      0.1412
     41  CBF      -17.8120   23.4870  -16.4230 C.1   452  IUG452      0.2182
     42  CBG      -17.8730   21.2840  -15.6400 C.1   452  IUG452      0.2845
     43  NBQ      -16.7510   20.9750  -16.3120 N.am  452  IUG452     -0.1766
     44  NBR      -11.8760   15.0760  -30.6330 N.pl3 452  IUG452      0.0574
     45  PBS      -14.8830   20.3870  -21.0410 P.3   452  IUG452      0.2189
     46  PBT      -13.3090   19.9570  -23.3860 P.3   452  IUG452      0.2208
@<TRIPOS>BOND
     1    31    33   ar
     2    31    30   ar
     3    33    40   ar
     4    24    44    2
     5    30    32   ar
     6    40    44    1
     7    40    39   ar
     8    44    27    2
     9    32    39   ar
    10    39    36    1
    11    36    12    1
    12    12    11    1
    13    11     9    1
    14     9    10    1
    15     9     7    1
    16     8     7    1
    17    10     1    1
    18     7     5    1
    19    29    46    2
    20    26    46    1
    21    46     2    1
    22    46    38    1
    23     1     2    1
    24     1     3    1
    25     5     3    1
    26     5     6    1
    27     3     4    1
    28    38    45    1
    29    28    45    2
    30    25    45    1
    31    45    21    1
    32    21    20    1
    33    17    16    1
    34    20    18    1
    35    16    18    1
    36    16    14    1
    37    18    19    1
    38    34    35    2
    39    34    41    1
    40    35    43    1
    41    14    15    1
    42    14    13    1
    43    19    13    1
    44    22    41    2
    45    41    37    2
    46    43    13    1
    47    43    42   am
    48    37    42    2
    49    42    23    2
