@<TRIPOS>MOLECULE
3zgl_10E_A_1.pdb
 15 14 0 0 0
SMALL
GASTEIGER

@<TRIPOS>ATOM
      1  O13       37.0380    2.4700   28.1910 O.3   1311  10E1311    -0.1143
      2  P12       36.7810    1.7080   27.0680 P.3   1311  10E1311     0.5373
      3  O14       35.3940    1.8840   26.4800 O.3   1311  10E1311    -0.1143
      4  O15       37.7690    1.7250   26.1450 O.2   1311  10E1311    -0.2221
      5  O11       36.7250    0.2330   27.6710 O.3   1311  10E1311    -0.2261
      6  P8        37.1250   -1.1840   27.1360 P.3   1311  10E1311     0.2233
      7  O9        36.6500   -2.1360   28.0620 O.3   1311  10E1311    -0.4370
      8  O10       36.7520   -1.3950   25.8240 O.2   1311  10E1311    -0.5169
      9  O7        38.7470   -1.2650   27.0690 O.3   1311  10E1311    -0.3089
     10  C6        39.5290   -1.2920   28.2620 C.3   1311  10E1311     0.1747
     11  C5        39.5310    0.0680   28.7820 C.2   1311  10E1311    -0.0010
     12  C3        39.1280    0.5250   30.1560 C.2   1311  10E1311    -0.0269
     13  C4        38.7430   -0.4570   31.2630 C.3   1311  10E1311     0.0276
     14  C1        39.2190    2.0140   30.3770 C.3   1311  10E1311     0.1312
     15  N2        40.4820    2.1750   31.1600 N.3   1311  10E1311    -0.1266
@<TRIPOS>BOND
     1     8     6    2
     2     4     2    2
     3     3     2    1
     4     2     5    1
     5     2     1    1
     6     9     6    1
     7     9    10    1
     8     6     5    1
     9     6     7    1
    10    10    11    1
    11    11    12    2
    12    12    14    1
    13    12    13    1
    14    14    15    1
