@<TRIPOS>MOLECULE
3zgn_10G_A_1.pdb
 15 14 0 0 0
SMALL
GASTEIGER

@<TRIPOS>ATOM
      1  O13       35.5170    2.3930   26.5020 O.3   1310  10G1310    -0.1143
      2  P12       36.8740    2.3610   26.8880 P.3   1310  10G1310     0.5373
      3  O14       37.8150    2.2260   25.8790 O.2   1310  10G1310    -0.2221
      4  O15       37.1720    3.2640   27.9280 O.3   1310  10G1310    -0.1143
      5  O11       36.9400    0.9930   27.6730 O.3   1310  10G1310    -0.2261
      6  P8        37.2130   -0.4760   27.1010 P.3   1310  10G1310     0.2233
      7  O9        36.7630   -0.5770   25.7100 O.2   1310  10G1310    -0.5169
      8  O10       36.7750   -1.4080   28.0940 O.3   1310  10G1310    -0.4370
      9  O7        38.6640   -0.6290   26.8770 O.3   1310  10G1310    -0.3089
     10  C6        39.5750   -0.6540   27.9570 C.3   1310  10G1310     0.1747
     11  C5        39.4880    0.7510   28.5310 C.2   1310  10G1310    -0.0015
     12  C3        39.3190    1.0980   30.0010 C.2   1310  10G1310    -0.0342
     13  C4        39.2700    0.0980   31.1220 C.3   1310  10G1310     0.0270
     14  C1        39.1450    2.5530   30.3120 C.3   1310  10G1310     0.0904
     15  S2        40.5390    2.8990   31.3650 S.3   1310  10G1310    -0.0774
@<TRIPOS>BOND
     1     7     6    2
     2     3     2    2
     3     1     2    1
     4     9     6    1
     5     9    10    1
     6     2     5    1
     7     2     4    1
     8     6     5    1
     9     6     8    1
    10    10    11    1
    11    11    12    2
    12    12    14    1
    13    12    13    1
    14    14    15    1
