@<TRIPOS>MOLECULE
3zgw_ANP_A_1.pdb
 31 33 0 0 0
SMALL
GASTEIGER

@<TRIPOS>ATOM
      1  PG        12.3010   13.9240   12.8670 P.3   1000  ANP1000     0.4884
      2  O1G       11.3380   12.9170   13.7000 O.3   1000  ANP1000    -0.1240
      3  O2G       12.2630   15.4220   13.5340 O.3   1000  ANP1000    -0.1240
      4  O3G       12.0890   14.0700   11.3760 O.2   1000  ANP1000    -0.2331
      5  PB        15.1390   13.4090   12.3880 P.3   1000  ANP1000     0.4669
      6  O1B       15.2290   14.9000   12.2620 O.2   1000  ANP1000    -0.2351
      7  O2B       16.2310   12.6220   13.3680 O.3   1000  ANP1000    -0.1253
      8  N3B       13.7290   13.0270   13.2950 N.3   1000  ANP1000    -0.0163
      9  PA        14.4050   11.4850   10.2580 P.3   1000  ANP1000     0.2220
     10  O1A       15.0590   10.2630   10.9640 O.3   1000  ANP1000    -0.4370
     11  O2A       12.8790   11.4930   10.4500 O.2   1000  ANP1000    -0.5170
     12  O3A       14.9830   12.9390   10.7720 O.3   1000  ANP1000    -0.2360
     13  O5'       14.7970   11.7280    8.6780 O.3   1000  ANP1000    -0.3111
     14  C5'       14.4350   12.9410    8.0250 C.3   1000  ANP1000     0.1813
     15  C4'       13.7740   12.6250    6.6820 C.3   1000  ANP1000     0.1821
     16  O4'       14.7520   12.2940    5.6940 O.3   1000  ANP1000    -0.3135
     17  C3'       12.9390   11.4000    6.6310 C.3   1000  ANP1000     0.2184
     18  O3'       11.5590   11.5970    6.9770 O.3   1000  ANP1000    -0.2174
     19  C2'       13.1490   10.8420    5.1940 C.3   1000  ANP1000     0.2570
     20  O2'       12.3200   11.4190    4.2060 O.3   1000  ANP1000    -0.2130
     21  C1'       14.6190   11.1020    4.9160 C.3   1000  ANP1000     0.3186
     22  N9        15.3170    9.8120    5.3690 N.pl3 1000  ANP1000    -0.1439
     23  C8        15.6800    9.4380    6.6810 C.3   1000  ANP1000     0.3377
     24  N7        16.2150    8.1420    6.7640 N.2   1000  ANP1000    -0.2095
     25  C5        16.1910    7.6630    5.4470 C.2   1000  ANP1000     0.2526
     26  C6        16.5830    6.4070    4.7550 C.2   1000  ANP1000     0.4393
     27  N6        17.0500    5.3640    5.5530 N.pl3 1000  ANP1000     0.2180
     28  N1        16.4650    6.2490    3.3370 N.2   1000  ANP1000     0.0021
     29  C2        15.9090    7.2470    2.6020 C.3   1000  ANP1000     0.5254
     30  N3        15.5420    8.4430    3.2260 N.2   1000  ANP1000    -0.0055
     31  C4        15.6100    8.7160    4.5780 C.2   1000  ANP1000     0.3518
@<TRIPOS>BOND
     1    29    30    1
     2    29    28    1
     3    30    31    2
     4    28    26    2
     5    20    19    1
     6    31    22    1
     7    31    25    1
     8    26    25    1
     9    26    27    1
    10    21    19    1
    11    21    22    1
    12    21    16    1
    13    19    17    1
    14    22    23    1
    15    25    24    2
    16    16    15    1
    17    17    15    1
    18    17    18    1
    19    23    24    1
    20    15    14    1
    21    14    13    1
    22    13     9    1
    23     9    11    2
    24     9    12    1
    25     9    10    1
    26    12     5    1
    27     4     1    2
    28     6     5    2
    29     5     8    1
    30     5     7    1
    31     1     8    1
    32     1     3    1
    33     1     2    1
