@<TRIPOS>MOLECULE
3zgz_84T_A_1.pdb
 31 33 0 0 0
SMALL
GASTEIGER

@<TRIPOS>ATOM
      1  O1P      -27.0160    9.3870  -72.5640 O.3   1862  84T1862    -0.1226
      2  P        -27.2820    9.8180  -73.9680 P.3   1862  84T1862     0.4763
      3  O2P      -27.8810   11.1760  -74.1820 O.2   1862  84T1862    -0.2321
      4  N        -25.8690    9.5830  -74.8130 N.am  1862  84T1862    -0.1048
      5  C        -25.7590   10.0100  -76.0750 C.2   1862  84T1862     0.2833
      6  CA       -24.4930    9.7480  -76.8070 C.3   1862  84T1862     0.2594
      7  CB       -24.7940    8.6780  -77.8470 C.3   1862  84T1862     0.1911
      8  CG       -23.5710    8.3240  -78.6810 C.3   1862  84T1862     0.0336
      9  CD2      -23.3090    9.5190  -79.6110 C.3   1862  84T1862     0.0027
     10  CD1      -23.8630    6.9320  -79.3050 C.3   1862  84T1862     0.0027
     11  OHB      -25.2100    7.4670  -77.2230 O.3   1862  84T1862    -0.2199
     12  OH       -23.5490    9.1270  -75.9840 O.3   1862  84T1862    -0.2104
     13  O        -26.6720   10.5170  -76.6920 O.2   1862  84T1862    -0.2700
     14  O5'      -28.3770    8.8610  -74.6190 O.3   1862  84T1862    -0.2750
     15  C5'      -28.0020    7.5360  -74.9540 C.3   1862  84T1862     0.1826
     16  C4'      -28.9090    7.0000  -76.0120 C.3   1862  84T1862     0.1521
     17  C3'      -28.9010    7.8260  -77.2980 C.3   1862  84T1862     0.0722
     18  C2'      -30.3180    7.6100  -77.7680 C.3   1862  84T1862     0.2270
     19  O2'      -30.7890    8.6410  -78.5810 O.3   1862  84T1862    -0.2158
     20  O4'      -30.2620    6.9510  -75.5290 O.3   1862  84T1862    -0.3163
     21  C1'      -31.1520    7.4700  -76.5210 C.3   1862  84T1862     0.3159
     22  N9       -31.7530    8.7320  -76.0090 N.pl3 1862  84T1862    -0.1439
     23  C4       -33.0330    9.0130  -76.1580 C.2   1862  84T1862     0.3518
     24  N3       -34.0180    8.3390  -76.7860 N.2   1862  84T1862    -0.0055
     25  C2       -35.2630    8.8460  -76.8300 C.3   1862  84T1862     0.5254
     26  C8       -31.2230    9.7010  -75.2910 C.3   1862  84T1862     0.3377
     27  N7       -32.1730   10.6180  -75.0190 N.2   1862  84T1862    -0.2095
     28  C5       -33.3150   10.2130  -75.5630 C.2   1862  84T1862     0.2526
     29  C6       -34.6240   10.7020  -75.6270 C.2   1862  84T1862     0.4393
     30  N1       -35.5500   10.0100  -76.2850 N.2   1862  84T1862     0.0021
     31  N6       -35.0080   11.8620  -75.0520 N.pl3 1862  84T1862     0.2180
@<TRIPOS>BOND
     1     9     8    1
     2    10     8    1
     3     8     7    1
     4    19    18    1
     5     7    11    1
     6     7     6    1
     7    18    17    1
     8    18    21    1
     9    17    16    1
    10    25    24    1
    11    25    30    1
    12     6     5    1
    13     6    12    1
    14    24    23    2
    15    13     5    2
    16    21    22    1
    17    21    20    1
    18    30    29    2
    19    23    22    1
    20    23    28    1
    21     5     4   am
    22    16    20    1
    23    16    15    1
    24    22    26    1
    25    29    28    1
    26    29    31    1
    27    28    27    2
    28    26    27    1
    29    15    14    1
    30     4     2    1
    31    14     2    1
    32     3     2    2
    33     2     1    1
