@<TRIPOS>MOLECULE
3zhw_HEM_A_1.pdb
 43 50 0 0 0
SMALL
GASTEIGER

@<TRIPOS>ATOM
      1  CHA      -26.7930  -15.0440   26.1490 C.2   1163  HEM1163     0.0000
      2  CHB      -27.4040  -18.7170   22.9840 C.2   1163  HEM1163     0.0000
      3  CHC      -28.8350  -15.3630   19.7060 C.2   1163  HEM1163     0.0000
      4  CHD      -26.7910  -11.8670   22.4230 C.2   1163  HEM1163     0.0000
      5  C1A      -26.8790  -16.3290   25.6190 C.2   1163  HEM1163     0.0000
      6  C2A      -26.6750  -17.5330   26.3270 C.2   1163  HEM1163     0.0000
      7  C3A      -26.8540  -18.5790   25.4490 C.2   1163  HEM1163     0.0000
      8  C4A      -27.1570  -18.0310   24.1750 C.2   1163  HEM1163     0.0000
      9  CMA      -26.7380  -20.0510   25.7810 C.3   1163  HEM1163     0.0000
     10  CAA      -26.3700  -17.6050   27.8100 C.3   1163  HEM1163     0.0000
     11  CBA      -27.7550  -17.6360   28.4920 C.3   1163  HEM1163     0.0000
     12  CGA      -27.7030  -17.6370   30.0070 C.2   1163  HEM1163     0.0000
     13  O1A      -28.6780  -17.1770   30.6350 O.co2 1163  HEM1163     0.0000
     14  O2A      -26.7210  -18.0860   30.6420 O.co2 1163  HEM1163     0.0000
     15  C1B      -27.9820  -18.1160   21.8390 C.ar  1163  HEM1163     0.0000
     16  C2B      -28.6580  -18.8230   20.7980 C.ar  1163  HEM1163     0.0000
     17  C3B      -29.0670  -17.8890   19.8630 C.ar  1163  HEM1163     0.0000
     18  C4B      -28.6090  -16.5760   20.3740 C.ar  1163  HEM1163     0.0000
     19  CMB      -28.8740  -20.3210   20.7440 C.3   1163  HEM1163     0.0000
     20  CAB      -29.8200  -18.0620   18.6010 C.2   1163  HEM1163     0.0000
     21  CBB      -29.8090  -19.1790   17.8790 C.2   1163  HEM1163     0.0000
     22  C1C      -28.3080  -14.1230   20.0900 C.2   1163  HEM1163     0.0000
     23  C2C      -28.2270  -12.9590   19.2950 C.2   1163  HEM1163     0.0000
     24  C3C      -27.6310  -11.9560   20.0630 C.2   1163  HEM1163     0.0000
     25  C4C      -27.3630  -12.5150   21.3430 C.2   1163  HEM1163     0.0000
     26  CMC      -28.6880  -12.8360   17.8620 C.3   1163  HEM1163     0.0000
     27  CAC      -27.3320  -10.5650   19.6440 C.2   1163  HEM1163     0.0000
     28  CBC      -26.5920  -10.3440   18.5610 C.2   1163  HEM1163     0.0000
     29  C1D      -26.6890  -12.4390   23.7110 C.ar  1163  HEM1163     0.0000
     30  C2D      -26.3230  -11.6850   24.9190 C.ar  1163  HEM1163     0.0000
     31  C3D      -26.3250  -12.5750   25.9470 C.ar  1163  HEM1163     0.0000
     32  C4D      -26.6820  -13.8750   25.3810 C.ar  1163  HEM1163     0.0000
     33  CMD      -26.0090  -10.2130   24.9830 C.3   1163  HEM1163     0.0000
     34  CAD      -25.9990  -12.3160   27.3940 C.3   1163  HEM1163     0.0000
     35  CBD      -24.5240  -12.6830   27.5830 C.3   1163  HEM1163     0.0000
     36  CGD      -24.0600  -12.3410   28.9780 C.2   1163  HEM1163     0.0000
     37  O1D      -23.0140  -11.6810   29.1410 O.co2 1163  HEM1163     0.0000
     38  O2D      -24.7110  -12.7230   29.9760 O.co2 1163  HEM1163     0.0000
     39  NA       -27.1640  -16.6670   24.3220 N.2   1163  HEM1163     0.0000
     40  NB       -27.9880  -16.8160   21.5400 N.ar  1163  HEM1163     0.0000
     41  NC       -27.7800  -13.8170   21.3160 N.2   1163  HEM1163     0.0000
     42  ND       -26.8810  -13.7110   24.0690 N.ar  1163  HEM1163     0.0000
     43 FE        -27.4390  -15.2950   22.8200 Fe    1163  HEM1163     0.0000
@<TRIPOS>BOND
     1    26    23    1
     2    21    20    2
     3    28    27    2
     4    20    17    1
     5    23    24    2
     6    23    22    1
     7    27    24    1
     8     3    22    2
     9     3    18    1
    10    17    18   ar
    11    17    16   ar
    12    24    25    1
    13    22    41    1
    14    18    40   ar
    15    19    16    1
    16    16    15   ar
    17    41    25    2
    18    41    43    1
    19    25     4    1
    20    40    15   ar
    21    40    43    1
    22    15     2    1
    23     4    29    2
    24    43    42    1
    25    43    39    1
    26     2     8    2
    27    29    42   ar
    28    29    30   ar
    29    42    32   ar
    30     8    39    1
    31     8     7    1
    32    39     5    2
    33    30    33    1
    34    30    31   ar
    35    32    31   ar
    36    32     1    2
    37     7     9    1
    38     7     6    2
    39     5     1    1
    40     5     6    1
    41    31    34    1
    42     6    10    1
    43    34    35    1
    44    35    36    1
    45    10    11    1
    46    11    12    1
    47    36    37   ar
    48    36    38   ar
    49    12    13   ar
    50    12    14   ar
