@<TRIPOS>MOLECULE
3zia_ATP_A_1.pdb
 31 33 0 0 0
SMALL
GASTEIGER

@<TRIPOS>ATOM
      1  PG        96.8320    9.6370  187.4070 P.3   600  ATP600      0.5373
      2  O1G       98.1910    9.0610  187.5710 O.3   600  ATP600     -0.1143
      3  O2G       95.7880    8.6420  186.6740 O.3   600  ATP600     -0.1143
      4  O3G       96.8980   10.9140  186.4090 O.2   600  ATP600     -0.2221
      5  PB        94.7420   10.1660  189.4400 P.3   600  ATP600      0.2277
      6  O1B       94.0050   11.4230  189.1730 O.3   600  ATP600     -0.4368
      7  O2B       94.0510    8.8940  189.1700 O.2   600  ATP600     -0.5168
      8  O3B       96.2570   10.2020  188.8240 O.3   600  ATP600     -0.2258
      9  PA        95.8240    9.1530  191.9570 P.3   600  ATP600      0.2189
     10  O1A       94.6920    8.3180  192.4020 O.3   600  ATP600     -0.4371
     11  O2A       96.9950    8.5100  191.3230 O.2   600  ATP600     -0.5170
     12  O3A       95.1890   10.3080  191.0050 O.3   600  ATP600     -0.2700
     13  O5'       96.3480   10.0760  193.1560 O.3   600  ATP600     -0.3112
     14  C5'       97.3930   11.0040  192.8720 C.3   600  ATP600      0.1813
     15  C4'       98.4850   11.0240  193.9720 C.3   600  ATP600      0.1821
     16  O4'       97.9390   11.6170  195.1960 O.3   600  ATP600     -0.3135
     17  C3'       99.0910    9.6880  194.3850 C.3   600  ATP600      0.2184
     18  O3'      100.4360    9.9520  194.7890 O.3   600  ATP600     -0.2174
     19  C2'       98.2400    9.2930  195.5910 C.3   600  ATP600      0.2570
     20  O2'       98.9840    8.4450  196.4700 O.3   600  ATP600     -0.2130
     21  C1'       97.9940   10.6410  196.2670 C.3   600  ATP600      0.3186
     22  N9        96.7010   10.7310  196.9960 N.pl3 600  ATP600     -0.1439
     23  C8        95.4910   10.3920  196.5450 C.3   600  ATP600      0.3377
     24  N7        94.5720   10.6200  197.4900 N.2   600  ATP600     -0.2095
     25  C5        95.2020   11.1190  198.5510 C.2   600  ATP600      0.2526
     26  C6        94.7930   11.5510  199.8140 C.2   600  ATP600      0.4393
     27  N6        93.5140   11.5080  200.1870 N.pl3 600  ATP600      0.2180
     28  N1        95.7230   12.0220  200.6660 N.2   600  ATP600      0.0021
     29  C2        97.0090   12.0710  200.3290 C.3   600  ATP600      0.5254
     30  N3        97.4340   11.6680  199.1370 N.2   600  ATP600     -0.0055
     31  C4        96.5560   11.1940  198.2340 C.2   600  ATP600      0.3518
@<TRIPOS>BOND
     1     4     1    2
     2     3     1    1
     3     1     2    1
     4     1     8    1
     5     8     5    1
     6     7     5    2
     7     6     5    1
     8     5    12    1
     9    12     9    1
    10    11     9    2
    11     9    10    1
    12     9    13    1
    13    14    13    1
    14    14    15    1
    15    15    17    1
    16    15    16    1
    17    17    18    1
    18    17    19    1
    19    16    21    1
    20    19    21    1
    21    19    20    1
    22    21    22    1
    23    23    22    1
    24    23    24    1
    25    22    31    1
    26    24    25    2
    27    31    25    1
    28    31    30    2
    29    25    26    1
    30    30    29    1
    31    26    27    1
    32    26    28    2
    33    29    28    1
