@<TRIPOS>MOLECULE
3zia_ADP_B_1.pdb
 27 29 0 0 0
SMALL
GASTEIGER

@<TRIPOS>ATOM
      1  PB        64.7830   41.0360  163.7490 P.3   600  ADP600      0.5373
      2  O1B       64.3080   41.0680  162.1850 O.2   600  ADP600     -0.2221
      3  O2B       66.2020   41.8060  163.9230 O.3   600  ADP600     -0.1143
      4  O3B       64.8570   39.6590  164.2810 O.3   600  ADP600     -0.1143
      5  PA        62.2260   42.0650  164.2790 P.3   600  ADP600      0.2231
      6  O1A       61.8010   40.6520  164.2490 O.3   600  ADP600     -0.4370
      7  O2A       61.8110   42.9760  163.1880 O.2   600  ADP600     -0.5169
      8  O3A       63.8220   42.0970  164.4760 O.3   600  ADP600     -0.2261
      9  O5'       61.8710   42.7170  165.6890 O.3   600  ADP600     -0.3111
     10  C5'       61.9130   41.9070  166.9000 C.3   600  ADP600      0.1813
     11  C4'       60.7820   42.2780  167.9040 C.3   600  ADP600      0.1821
     12  O4'       60.7800   43.6980  168.1950 O.3   600  ADP600     -0.3135
     13  C3'       59.4490   41.9480  167.2570 C.3   600  ADP600      0.2184
     14  O3'       58.6270   41.3300  168.2330 O.3   600  ADP600     -0.2174
     15  C2'       58.8900   43.3150  166.8500 C.3   600  ADP600      0.2570
     16  O2'       57.4730   43.3180  166.9360 O.3   600  ADP600     -0.2130
     17  C1'       59.4760   44.2510  167.8930 C.3   600  ADP600      0.3186
     18  N9        59.7260   45.6350  167.3620 N.pl3 600  ADP600     -0.1439
     19  C8        60.3950   45.9710  166.2540 C.3   600  ADP600      0.3377
     20  N7        60.4280   47.3030  166.1110 N.2   600  ADP600     -0.2095
     21  C5        59.7740   47.8320  167.1360 C.2   600  ADP600      0.2526
     22  C6        59.4730   49.1350  167.5430 C.2   600  ADP600      0.4393
     23  N6        59.8560   50.1900  166.8410 N.pl3 600  ADP600      0.2180
     24  N1        58.7740   49.3290  168.6780 N.2   600  ADP600      0.0021
     25  C2        58.3710   48.2950  169.4020 C.3   600  ADP600      0.5254
     26  N3        58.6330   47.0400  169.0580 N.2   600  ADP600     -0.0055
     27  C4        59.3320   46.7730  167.9350 C.2   600  ADP600      0.3518
@<TRIPOS>BOND
     1     2     1    2
     2     7     5    2
     3     1     3    1
     4     1     4    1
     5     1     8    1
     6     6     5    1
     7     5     8    1
     8     5     9    1
     9     9    10    1
    10    20    19    1
    11    20    21    2
    12    19    18    1
    13    23    22    1
    14    15    16    1
    15    15    13    1
    16    15    17    1
    17    10    11    1
    18    21    22    1
    19    21    27    1
    20    13    11    1
    21    13    14    1
    22    18    17    1
    23    18    27    1
    24    22    24    2
    25    17    12    1
    26    11    12    1
    27    27    26    2
    28    24    25    1
    29    26    25    1
