@<TRIPOS>MOLECULE
3zim_KKR_A_1.pdb
 41 46 0 0 0
SMALL
GASTEIGER

@<TRIPOS>ATOM
      1  C1       -32.9380   13.8670   29.8170 C.3   2047  KKR2047     0.0004
      2  C2       -31.9860   14.1480   28.6810 C.3   2047  KKR2047     0.0073
      3  C3       -32.2180   13.1580   27.5670 C.3   2047  KKR2047     0.0004
      4  C4       -30.5310   14.1240   29.1460 C.3   2047  KKR2047     0.0645
      5  C5       -30.1170   12.8240   29.6890 C.2   2047  KKR2047     0.1511
      6  O6       -30.4370   12.4920   30.8120 O.2   2047  KKR2047    -0.2960
      7  C7       -29.2530   11.9050   28.8690 C.3   2047  KKR2047     0.0741
      8  C8       -27.8030   12.1540   29.2930 C.3   2047  KKR2047     0.0930
      9  C9       -26.7830   11.4290   28.4370 C.2   2047  KKR2047     0.2261
     10  O10      -27.1790   10.6970   27.5490 O.2   2047  KKR2047    -0.2749
     11  N11      -25.4400   11.5830   28.6580 N.am  2047  KKR2047    -0.2767
     12  C12      -24.8800   12.4650   29.7100 C.3   2047  KKR2047     0.1107
     13  C13      -23.9560   11.6460   30.6120 C.3   2047  KKR2047     0.0942
     14  N14      -22.8530   11.1330   29.7860 N.3   2047  KKR2047    -0.2656
     15  C15      -23.3700   10.2110   28.7490 C.3   2047  KKR2047     0.0942
     16  C16      -24.4080   10.8990   27.8370 C.3   2047  KKR2047     0.1107
     17  C17      -21.8360   10.5040   30.6420 C.3   2047  KKR2047     0.1055
     18  C18      -20.4810   10.4920   29.9850 C.2   2047  KKR2047     0.0223
     19  C19      -20.0660    9.5450   29.1660 C.2   2047  KKR2047     0.0331
     20  C20      -18.7800    9.6940   28.6790 C.2   2047  KKR2047     0.1397
     21  N21      -18.1230    8.8400   27.8160 N.2   2047  KKR2047    -0.3431
     22  C22      -16.8650    9.1070   27.3780 C.1   2047  KKR2047     0.1351
     23  N23      -16.2600   10.2110   27.8290 N.2   2047  KKR2047    -0.3282
     24  C24      -16.7870   11.0860   28.7100 C.2   2047  KKR2047     0.1896
     25  C25      -18.1240   10.8300   29.1570 C.3   2047  KKR2047     0.1719
     26  S26      -19.2580   11.6480   30.2310 S.3   2047  KKR2047    -0.1017
     27  N27      -16.0240   12.1750   29.1650 N.pl3 2047  KKR2047    -0.2801
     28  C28      -16.6200   13.3890   29.7940 C.3   2047  KKR2047     0.1250
     29  C29      -15.7550   14.6630   29.8020 C.3   2047  KKR2047     0.1636
     30  O30      -14.3760   14.3480   29.8520 O.3   2047  KKR2047    -0.3501
     31  C31      -13.9680   13.4730   28.8050 C.3   2047  KKR2047     0.1636
     32  C32      -14.5440   12.1000   29.1570 C.3   2047  KKR2047     0.1250
     33  C33      -16.2080    8.1790   26.4100 C.2   2047  KKR2047     0.0744
     34  C34      -16.8330    6.9950   25.9660 C.2   2047  KKR2047     0.0085
     35  C35      -16.2190    6.1240   25.0760 C.2   2047  KKR2047     0.0017
     36  C36      -15.0010    6.3850   24.5330 C.2   2047  KKR2047     0.0172
     37  C37      -14.3170    7.5500   24.8820 C.2   2047  KKR2047     0.0907
     38  N38      -13.1470    8.0560   24.5160 N.2   2047  KKR2047    -0.1519
     39  N39      -12.9460    9.1720   25.1070 N.2   2047  KKR2047    -0.1507
     40  C40      -13.9410    9.4790   25.9110 C.2   2047  KKR2047     0.1065
     41  C41      -14.8840    8.4600   25.8300 C.3   2047  KKR2047     0.1187
@<TRIPOS>BOND
     1    38    37    2
     2    38    39    1
     3    36    37    1
     4    36    35    2
     5    37    41    1
     6    35    34    1
     7    39    40    2
     8    41    40    1
     9    41    33    1
    10    34    33    2
    11    33    22    1
    12    22    21    2
    13    22    23    2
    14    10     9    2
    15     3     2    1
    16    21    20    2
    17    23    24    2
    18    16    11    1
    19    16    15    1
    20     9    11   am
    21     9     8    1
    22    11    12    1
    23    20    25    1
    24    20    19    1
    25     2     4    1
    26     2     1    1
    27    24    25    1
    28    24    27    1
    29    15    14    1
    30    31    32    1
    31    31    30    1
    32     7     8    1
    33     7     5    1
    34     4     5    1
    35    25    26    1
    36    32    27    1
    37    27    28    1
    38    19    18    2
    39     5     6    2
    40    12    13    1
    41    14    13    1
    42    14    17    1
    43    28    29    1
    44    29    30    1
    45    18    26    1
    46    18    17    1
