@<TRIPOS>MOLECULE
3ziu_LSS_A_1.pdb
 31 33 0 0 0
SMALL
GASTEIGER

@<TRIPOS>ATOM
      1  C1       -30.0880   10.7550   76.4260 C.2   1638  LSS1638     0.2798
      2  N1       -23.8370    4.1270   82.3270 N.2   1638  LSS1638     0.0021
      3  O1       -29.7260   10.7730   77.6180 O.2   1638  LSS1638    -0.2701
      4  S1       -28.0570    9.4620   75.7740 S.3   1638  LSS1638     0.0852
      5  C2       -25.1310    3.7830   82.2340 C.3   1638  LSS1638     0.5254
      6  N2       -29.3780   10.1680   75.4440 N.am  1638  LSS1638    -0.0577
      7  O2       -28.5150    7.7470   81.2650 O.3   1638  LSS1638    -0.2130
      8  N3       -26.0120    4.4420   81.4570 N.2   1638  LSS1638    -0.0055
      9  O3       -30.6640    6.7320   79.8640 O.3   1638  LSS1638    -0.2174
     10  C4       -25.6090    5.5020   80.7230 C.2   1638  LSS1638     0.3518
     11  N4       -31.4620   11.3460   74.5220 N.3   1638  LSS1638    -0.1230
     12  O4       -28.0010    5.9170   78.2800 O.3   1638  LSS1638    -0.3135
     13  C5       -24.2920    5.9140   80.7580 C.2   1638  LSS1638     0.2526
     14  O5       -28.2000    8.3810   76.8580 O.3   1638  LSS1638    -0.2230
     15  C6       -23.3430    5.1690   81.6150 C.2   1638  LSS1638     0.4393
     16  N6       -22.0260    5.5130   81.6820 N.pl3 1638  LSS1638     0.2180
     17  C7       -33.8850   11.5790   76.4020 C.3   1638  LSS1638     0.0019
     18  N7       -24.1740    6.9650   79.9170 N.2   1638  LSS1638    -0.2095
     19  C8       -25.4060    7.2250   79.3860 C.3   1638  LSS1638     0.3377
     20  C9       -32.5790   10.7850   76.6600 C.3   1638  LSS1638     0.0285
     21  N9       -26.2590    6.3060   79.8650 N.pl3 1638  LSS1638    -0.1439
     22  CA       -31.3520   11.4350   75.9720 C.3   1638  LSS1638     0.1709
     23  C10      -35.0900   10.8050   76.9460 C.3   1638  LSS1638     0.0001
     24  C11      -33.8280   12.9740   77.0560 C.3   1638  LSS1638     0.0001
     25  O1A      -27.0690   10.3210   76.3900 O.3   1638  LSS1638    -0.0508
     26  C21      -27.6920    6.2090   79.6130 C.3   1638  LSS1638     0.3186
     27  C22      -28.3550    7.5580   79.8730 C.3   1638  LSS1638     0.2570
     28  C23      -29.6490    7.4010   79.0950 C.3   1638  LSS1638     0.2185
     29  C24      -29.2380    6.5280   77.9080 C.3   1638  LSS1638     0.1842
     30  C25      -29.0820    7.3080   76.6060 C.3   1638  LSS1638     0.2064
     31  O2A      -27.5390    8.8470   74.5670 O.3   1638  LSS1638    -0.0508
@<TRIPOS>BOND
     1    11    22    1
     2    31     4    1
     3     6     4    1
     4     6     1   am
     5     4    25    1
     6     4    14    1
     7    22     1    1
     8    22    20    1
     9    17    20    1
    10    17    23    1
    11    17    24    1
    12     1     3    2
    13    30    14    1
    14    30    29    1
    15    29    12    1
    16    29    28    1
    17    12    26    1
    18    28     9    1
    19    28    27    1
    20    19    21    1
    21    19    18    1
    22    26    21    1
    23    26    27    1
    24    21    10    1
    25    27     7    1
    26    18    13    2
    27    10    13    1
    28    10     8    2
    29    13    15    1
    30     8     5    1
    31    15    16    1
    32    15     2    2
    33     5     2    1
