@<TRIPOS>MOLECULE
3zku_HCV_A_1.pdb
 25 24 0 0 0
SMALL
GASTEIGER

@<TRIPOS>ATOM
      1  C8        12.3260   39.1500    5.5620 C.2   1329  HCV1329     0.2418
      2  O1        13.0250   39.8070    4.7920 O.2   1329  HCV1329    -0.2733
      3  O2        17.3010   35.9760    4.3620 O.co2 1329  HCV1329    -0.2441
      4  C9        12.9280   38.4600    6.7650 C.3   1329  HCV1329     0.0869
      5  C13       17.1800   36.4870    5.4320 C.2   1329  HCV1329     0.3819
      6  C12       15.8700   36.3120    6.2420 C.3   1329  HCV1329     0.1943
      7  C11       15.0060   37.3880    5.6560 C.3   1329  HCV1329     0.0311
      8  C10       13.6500   37.1730    6.3870 C.3   1329  HCV1329     0.0117
      9  N2        15.8900   36.5550    7.6850 N.3   1329  HCV1329    -0.1208
     10  O3        18.0610   37.2550    5.9410 O.co2 1329  HCV1329    -0.2441
     11  N1        11.0190   38.9400    5.3640 N.am  1329  HCV1329    -0.1977
     12  C5        10.1070   39.9270    4.7830 C.3   1329  HCV1329     0.1736
     13  C6        10.8180   41.2500    4.5340 C.3   1329  HCV1329     0.0436
     14  C7        11.1310   41.8450    5.9310 C.3   1329  HCV1329     0.0709
     15  S         10.6210   40.7720    7.3020 S.3   1329  HCV1329    -0.0821
     16  C4         9.3730   39.3240    3.5880 C.2   1329  HCV1329     0.2617
     17  O          9.3690   39.8310    2.4340 O.2   1329  HCV1329    -0.2715
     18  N          8.5910   38.3030    3.9690 N.am  1329  HCV1329    -0.1942
     19  C3         7.3330   38.6870    4.5750 C.3   1329  HCV1329     0.1977
     20  C1         6.8790   40.0140    3.9230 C.3   1329  HCV1329     0.0311
     21  C          5.9970   40.8270    4.8740 C.3   1329  HCV1329     0.0023
     22  C2         6.1970   39.8140    2.5230 C.3   1329  HCV1329     0.0023
     23  C14        7.4160   38.7780    6.0900 C.2   1329  HCV1329     0.3842
     24  O5         6.3630   38.8840    6.7090 O.co2 1329  HCV1329    -0.2437
     25  O4         8.6160   38.7300    6.6830 O.co2 1329  HCV1329    -0.2437
@<TRIPOS>BOND
     1    17    16    2
     2    22    20    1
     3    16    18   am
     4    16    12    1
     5    20    19    1
     6    20    21    1
     7    18    19    1
     8     3     5   ar
     9    13    12    1
    10    13    14    1
    11    19    23    1
    12    12    11    1
    13     2     1    2
    14    11     1   am
    15     5    10   ar
    16     5     6    1
    17     1     4    1
    18     7     6    1
    19     7     8    1
    20    14    15    1
    21    23    25   ar
    22    23    24   ar
    23     6     9    1
    24     8     4    1
