@<TRIPOS>MOLECULE
3zli_AKG_A_1.pdb
 10 9 0 0 0
SMALL
GASTEIGER

@<TRIPOS>ATOM
      1  C1       -15.3600   -6.4720   23.1100 C.2   4000  AKG4000     0.4219
      2  O1       -14.6120   -7.0820   22.3170 O.co2 4000  AKG4000    -0.2373
      3  O2       -16.2560   -7.1120   23.7470 O.co2 4000  AKG4000    -0.2373
      4  C2       -15.2040   -5.0090   23.2390 C.2   4000  AKG4000     0.2526
      5  O5       -14.2760   -4.4040   22.7100 O.2   4000  AKG4000    -0.2843
      6  C3       -16.2400   -4.1730   23.9210 C.3   4000  AKG4000     0.0881
      7  C4       -15.7330   -3.5990   25.2280 C.3   4000  AKG4000     0.1224
      8  C5       -16.7890   -2.6790   25.8130 C.2   4000  AKG4000     0.3653
      9  O3       -17.8080   -3.2560   26.2780 O.co2 4000  AKG4000    -0.2456
     10  O4       -16.6090   -1.3990   25.8600 O.co2 4000  AKG4000    -0.2456
@<TRIPOS>BOND
     1     2     1   ar
     2     5     4    2
     3     1     4    1
     4     1     3   ar
     5     4     6    1
     6     6     7    1
     7     7     8    1
     8     8    10   ar
     9     8     9   ar
