@<TRIPOS>MOLECULE
3zlk_Y46_A_1.pdb
 26 28 0 0 0
SMALL
GASTEIGER

@<TRIPOS>ATOM
      1  CAW       38.0140    6.9480   10.3730 C.ar  400  Y46400     -0.0003
      2  CAX       37.4770    8.0000   11.1280 C.ar  400  Y46400     -0.0002
      3  CBA       37.3160    7.8520   12.5110 C.ar  400  Y46400     -0.0000
      4  CAZ       37.6970    6.6570   13.1160 C.ar  400  Y46400     -0.0002
      5  CAY       38.2340    5.6140   12.3650 C.ar  400  Y46400     -0.0003
      6  CAV       38.3750    5.7300   10.9780 C.ar  400  Y46400      0.0256
      7  CAU       38.9190    4.6890   10.1980 C.3   400  Y46400      0.2482
      8  NAN       38.1350    3.3910   10.1880 N.am  400  Y46400     -0.0750
      9  CAO       37.2260    3.1360    9.2150 C.2   400  Y46400      0.4088
     10  NAP       36.9720    4.0480    8.2600 N.pl3 400  Y46400      0.2133
     11  CAM       38.3700    2.4570   11.1350 C.1   400  Y46400      0.3744
     12  OAL       39.2230    2.6550   11.9930 O.2   400  Y46400     -0.1670
     13  NAD       37.6830    1.2450   11.1580 N.2   400  Y46400     -0.2252
     14  CAE       36.7260    0.9560   10.2050 C.1   400  Y46400      0.2425
     15  OAA       36.1460   -0.1290   10.2480 O.2   400  Y46400     -0.2068
     16  CAF       36.4910    1.9280    9.2180 C.2   400  Y46400      0.2706
     17  NAG       35.6320    1.6450    8.2250 N.pl3 400  Y46400     -0.0759
     18  SAH       34.0260    2.0060    8.2040 S.O2  400  Y46400      0.0937
     19  OAC       33.7910    3.5160    8.2170 O.2   400  Y46400     -0.1483
     20  OAQ       33.4210    1.3680    6.9510 O.2   400  Y46400     -0.1483
     21  CAI       33.2620    1.2790    9.6850 C.ar  400  Y46400      0.1271
     22  CAJ       33.4930    1.8520   10.9360 C.ar  400  Y46400      0.0202
     23  CAK       32.8870    1.3030   12.0790 C.ar  400  Y46400      0.0014
     24  CAT       32.0710    0.1830   11.9550 C.ar  400  Y46400      0.0001
     25  CAS       31.8690   -0.3960   10.7090 C.ar  400  Y46400      0.0014
     26  CAR       32.4490    0.1630    9.5720 C.ar  400  Y46400      0.0202
@<TRIPOS>BOND
     1    20    18    2
     2    18    19    2
     3    18    17    1
     4    18    21    1
     5    17    16    1
     6    10     9    1
     7     9    16    2
     8     9     8    1
     9    16    14    1
    10    26    21   ar
    11    26    25   ar
    12    21    22   ar
    13     8     7    1
    14     8    11   am
    15     7     6    1
    16    14    15    2
    17    14    13    2
    18     1     6   ar
    19     1     2   ar
    20    25    24   ar
    21    22    23   ar
    22     6     5   ar
    23     2     3   ar
    24    11    13    2
    25    11    12    2
    26    24    23   ar
    27     5     4   ar
    28     3     4   ar
