@<TRIPOS>MOLECULE
3zll_4WF_A_1.pdb
 17 18 0 0 0
SMALL
GASTEIGER

@<TRIPOS>ATOM
      1  C         36.8260    4.0340   10.0790 C.2   400  4WF400      0.2742
      2  N         34.9260    2.8040    9.3610 N.3   400  4WF400     -0.1038
      3  O         36.4190    5.1200    9.3640 O.2   400  4WF400     -0.2710
      4  CA        36.0620    2.8560   10.0780 C.3   400  4WF400      0.2860
      5  CB        36.4740    1.7350   10.8140 C.1   400  4WF400      0.2185
      6  OAC       39.4980    3.0930   12.1980 O.2   400  4WF400     -0.1918
      7  CAE       38.1930    8.4900   13.6930 C.ar  400  4WF400     -0.0000
      8  CAF       37.6640    7.2250   13.9270 C.ar  400  4WF400     -0.0003
      9  CAG       38.9290    8.7370   12.5400 C.ar  400  4WF400     -0.0003
     10  CAH       37.8580    6.1920   13.0120 C.ar  400  4WF400     -0.0026
     11  CAI       39.1180    7.6990   11.6310 C.ar  400  4WF400     -0.0026
     12  CA0       38.4530    3.0040   11.5530 C.1   400  4WF400      0.2847
     13  CAJ       38.8430    5.3560   10.8050 C.3   400  4WF400      0.1381
     14  NAL       38.0170    4.1250   10.8300 N.am  400  4WF400     -0.1690
     15  OAN       35.8010    0.6850   10.8050 O.2   400  4WF400     -0.2114
     16  NAB       37.6850    1.8160   11.5510 N.2   400  4WF400     -0.2476
     17  CAQ       38.5830    6.4290   11.8580 C.ar  400  4WF400     -0.0012
@<TRIPOS>BOND
     1     2     4    1
     2     3     1    2
     3     4     1    1
     4     4     5    1
     5     1    14   am
     6    15     5    2
     7    13    14    1
     8    13    17    1
     9     5    16    2
    10    14    12   am
    11    16    12    2
    12    12     6    2
    13    11    17   ar
    14    11     9   ar
    15    17    10   ar
    16     9     7   ar
    17    10     8   ar
    18     7     8   ar
