@<TRIPOS>MOLECULE
3zm9_QMQ_A_1.pdb
 37 41 0 0 0
SMALL
GASTEIGER

@<TRIPOS>ATOM
      1  CAA       -9.4750   12.8270   -2.3820 C.3   1458  QMQ1458     0.1122
      2  NBI       -9.0910   12.8470   -3.8110 N.pl3 1458  QMQ1458    -0.3042
      3  CAB       -8.1510   11.8420   -4.3640 C.3   1458  QMQ1458     0.1122
      4  CBE       -9.6500   13.7720   -4.6430 C.2   1458  QMQ1458     0.0466
      5  CAM       -9.4850   13.6890   -6.0430 C.2   1458  QMQ1458     0.0098
      6  CAP      -10.0590   14.6280   -6.9160 C.3   1458  QMQ1458     0.1190
      7  CAL      -10.4100   14.8340   -4.1270 C.2   1458  QMQ1458     0.0300
      8  CAO      -10.9940   15.7780   -4.9860 C.2   1458  QMQ1458     0.0631
      9  NBK      -10.8350   15.7040   -6.3870 N.pl3 1458  QMQ1458    -0.2985
     10  CAW      -11.4860   16.7320   -7.2850 C.3   1458  QMQ1458     0.1180
     11  CBD      -12.5080   16.1580   -8.0850 C.ar  1458  QMQ1458    -0.0024
     12  CAK      -12.7380   16.6060   -9.3950 C.ar  1458  QMQ1458    -0.0029
     13  CAG      -13.7460   16.0210  -10.1740 C.ar  1458  QMQ1458    -0.0045
     14  CAJ      -13.3050   15.1160   -7.5840 C.ar  1458  QMQ1458    -0.0029
     15  CAF      -14.3070   14.5260   -8.3570 C.ar  1458  QMQ1458    -0.0045
     16  CBB      -14.5370   14.9800   -9.6620 C.ar  1458  QMQ1458    -0.0222
     17  CAU      -15.5370   14.3720  -10.4480 C.3   1458  QMQ1458     0.0264
     18  CAS      -15.0500   12.9510  -10.8560 C.3   1458  QMQ1458     0.0050
     19  CAR      -15.6760   12.4430  -12.1720 C.3   1458  QMQ1458     0.0050
     20  CAT      -15.2490   10.9720  -12.4240 C.3   1458  QMQ1458     0.0264
     21  CBA      -16.2680   10.1870  -13.0230 C.ar  1458  QMQ1458    -0.0222
     22  CAE      -16.6620   10.3750  -14.3620 C.ar  1458  QMQ1458    -0.0045
     23  CAI      -17.6740    9.5830  -14.9390 C.ar  1458  QMQ1458    -0.0006
     24  CAD      -16.8910    9.1810  -12.2760 C.ar  1458  QMQ1458    -0.0045
     25  CAH      -17.9000    8.3910  -12.8570 C.ar  1458  QMQ1458    -0.0006
     26  CBC      -18.2940    8.5750  -14.1870 C.ar  1458  QMQ1458     0.0243
     27  CAV      -19.3160    7.7750  -14.7490 C.3   1458  QMQ1458     0.2314
     28  N9       -18.8470    6.3630  -15.1670 N.pl3 1458  QMQ1458    -0.1634
     29  C8       -17.6580    5.7950  -14.9480 C.3   1458  QMQ1458     0.3361
     30  N7       -17.6520    4.5670  -15.4550 N.2   1458  QMQ1458    -0.2096
     31  C5       -18.8450    4.3610  -16.0070 C.2   1458  QMQ1458     0.2525
     32  C4       -19.5870    5.4690  -15.8190 C.2   1458  QMQ1458     0.3503
     33  N3       -20.8410    5.5480  -16.2860 N.2   1458  QMQ1458    -0.0055
     34  C2       -21.3880    4.4570  -16.9650 C.3   1458  QMQ1458     0.5254
     35  N1       -20.5900    3.3230  -17.1320 N.2   1458  QMQ1458     0.0021
     36  C6       -19.3320    3.3020  -16.6540 C.2   1458  QMQ1458     0.4393
     37  N6       -18.5120    2.2330  -16.7950 N.pl3 1458  QMQ1458     0.2180
@<TRIPOS>BOND
     1    35    34    1
     2    35    36    2
     3    34    33    1
     4    37    36    1
     5    36    31    1
     6    33    32    2
     7    31    32    1
     8    31    30    2
     9    32    28    1
    10    30    29    1
    11    28    29    1
    12    28    27    1
    13    23    22   ar
    14    23    26   ar
    15    27    26    1
    16    22    21   ar
    17    26    25   ar
    18    21    20    1
    19    21    24   ar
    20    25    24   ar
    21    20    19    1
    22    19    18    1
    23    18    17    1
    24    17    16    1
    25    13    16   ar
    26    13    12   ar
    27    16    15   ar
    28    12    11   ar
    29    15    14   ar
    30    11    14   ar
    31    11    10    1
    32    10     9    1
    33     6     9    1
    34     6     5    1
    35     9     8    1
    36     5     4    2
    37     8     7    2
    38     4     7    1
    39     4     2    1
    40     3     2    1
    41     2     1    1
