@<TRIPOS>MOLECULE
3znc_BZ1_A_1.pdb
 24 25 0 0 0
SMALL
GASTEIGER

@<TRIPOS>ATOM
      1  C3         0.6630   37.8550   22.0150 C.3   500  BZ1500      0.0512
      2  C9         3.8590   35.6170   18.6050 C.ar  500  BZ1500      0.0201
      3  C10        4.7060   35.8980   19.8680 C.ar  500  BZ1500      0.1502
      4  C11        2.3400   35.3690   18.6830 C.3   500  BZ1500      0.0966
      5  C12        1.9010   35.0770   20.1330 C.3   500  BZ1500      0.1160
      6  S1         7.3100   35.9950   16.7560 S.O2  500  BZ1500      0.0992
      7  C4         1.0710   39.0800   22.8340 C.3   500  BZ1500      0.1438
      8  C5         3.2840   32.3460   17.4210 C.3   500  BZ1500      0.0185
      9  C6         2.1310   32.8140   18.3230 C.3   500  BZ1500      0.0688
     10  S2         6.4210   36.2290   19.4930 S.2   500  BZ1500     -0.0477
     11  N2         7.1250   34.9090   15.5060 N.3   500  BZ1500      0.0397
     12  O3         7.5270   37.3600   15.9770 O.2   500  BZ1500     -0.1498
     13  O4         8.5510   35.4710   17.5840 O.2   500  BZ1500     -0.1498
     14  C7         5.9270   35.8850   17.8310 C.ar  500  BZ1500      0.1554
     15  C8         4.6580   35.6100   17.5270 C.ar  500  BZ1500      0.0256
     16  S3         3.9340   35.9460   21.4910 S.O2  500  BZ1500      0.0688
     17  O2         4.4310   37.2230   22.2880 O.2   500  BZ1500     -0.1523
     18  O5         4.2010   34.6370   22.3620 O.2   500  BZ1500     -0.1523
     19  N3         2.2460   36.0870   21.1820 N.3   500  BZ1500     -0.1533
     20  N1         1.7690   34.2050   17.9020 N.3   500  BZ1500     -0.2939
     21  C2         1.7530   37.4810   21.0310 C.3   500  BZ1500      0.0985
     22  O1         1.3040   38.6950   24.2040 O.3   500  BZ1500     -0.3511
     23  C1         0.2150   38.2580   25.0580 C.3   500  BZ1500      0.1741
     24  HN1        1.1760   34.2390   17.1340 H     500  BZ1500      0.1235
@<TRIPOS>BOND
     1    11     6    1
     2    12     6    2
     3     6    13    2
     4     6    14    1
     5    24    20    1
     6     8     9    1
     7    15    14   ar
     8    15     2   ar
     9    14    10   ar
    10    20     9    1
    11    20     4    1
    12     2     4    1
    13     2     3   ar
    14     4     5    1
    15    10     3   ar
    16     3    16    1
    17     5    19    1
    18    21    19    1
    19    21     1    1
    20    19    16    1
    21    16    17    2
    22    16    18    2
    23     1     7    1
    24     7    22    1
    25    22    23    1
