@<TRIPOS>MOLECULE
3zo1_SIJ_A_1.pdb
 20 23 0 0 0
SMALL
GASTEIGER

@<TRIPOS>ATOM
      1  C12      -32.3810  -10.2550   -0.9710 C.3   1351  SIJ1351     0.2618
      2  N3       -31.1970  -10.3640   -1.5410 N.2   1351  SIJ1351    -0.2269
      3  N4       -33.4020  -10.1150   -1.8520 N.2   1351  SIJ1351    -0.1914
      4  C13      -32.8440  -10.1360   -3.0970 C.1   1351  SIJ1351     0.0576
      5  N5       -33.4770  -10.0450   -4.2810 N.2   1351  SIJ1351    -0.1640
      6  C        -32.6710  -10.0780   -5.3450 C.3   1351  SIJ1351     0.4005
      7  C11      -31.4760  -10.2820   -2.8980 C.2   1351  SIJ1351     0.2219
      8  C1       -30.7730  -10.2910   -4.1550 C.2   1351  SIJ1351     0.3479
      9  N        -31.3390  -10.1800   -5.3810 N.2   1351  SIJ1351    -0.0336
     10  N1       -29.3670  -10.4550   -4.2170 N.pl3 1351  SIJ1351    -0.1888
     11  C10      -28.4850  -10.4360   -3.0410 C.3   1351  SIJ1351     0.2038
     12  C9       -27.6170   -9.1900   -2.9510 C.3   1351  SIJ1351     0.0670
     13  C4       -26.7390   -9.0050   -4.2000 C.3   1351  SIJ1351     0.0674
     14  C3       -27.7000   -9.0460   -5.4020 C.3   1351  SIJ1351     0.0670
     15  C2       -28.6120  -10.2670   -5.4650 C.3   1351  SIJ1351     0.2038
     16  N2       -26.1230   -7.6110   -4.2100 N.3   1351  SIJ1351    -0.2205
     17  C8       -25.0080   -7.3980   -3.2730 C.3   1351  SIJ1351     0.0886
     18  C7       -23.9120   -8.4190   -3.4770 C.3   1351  SIJ1351     0.0188
     19  C6       -24.4450   -9.8430   -3.3920 C.3   1351  SIJ1351     0.0029
     20  C5       -25.6220  -10.0610   -4.3490 C.3   1351  SIJ1351     0.0164
@<TRIPOS>BOND
     1    15    14    1
     2    15    10    1
     3    14    13    1
     4     9     6    1
     5     9     8    2
     6     6     5    1
     7    20    13    1
     8    20    19    1
     9     5     4    2
    10    10     8    1
    11    10    11    1
    12    16    13    1
    13    16    17    1
    14    13    12    1
    15     8     7    1
    16    18    19    1
    17    18    17    1
    18     4     7    1
    19     4     3    2
    20    11    12    1
    21     7     2    2
    22     3     1    1
    23     2     1    1
