@<TRIPOS>MOLECULE
3zo2_15I_A_1.pdb
 20 23 0 0 0
SMALL
GASTEIGER

@<TRIPOS>ATOM
      1  C12      -32.4760   -9.9690   -0.8780 C.3   1351  15I1351     0.2618
      2  N3       -31.2570  -10.0290   -1.3780 N.2   1351  15I1351    -0.2269
      3  N4       -33.4480   -9.8690   -1.8130 N.2   1351  15I1351    -0.1914
      4  C13      -32.8200   -9.8900   -3.0260 C.1   1351  15I1351     0.0576
      5  N5       -33.3930   -9.8590   -4.2450 N.2   1351  15I1351    -0.1640
      6  C        -32.5330   -9.9900   -5.2580 C.3   1351  15I1351     0.4005
      7  C11      -31.4650  -10.0040   -2.7500 C.2   1351  15I1351     0.2219
      8  C1       -30.7050  -10.1290   -3.9540 C.2   1351  15I1351     0.3479
      9  N        -31.2060  -10.1350   -5.2110 N.2   1351  15I1351    -0.0336
     10  N1       -29.2990  -10.3130   -3.9500 N.pl3 1351  15I1351    -0.1888
     11  C10      -28.4660  -10.3680   -2.7450 C.3   1351  15I1351     0.2024
     12  C9       -27.6480   -9.0870   -2.6500 C.3   1351  15I1351     0.0523
     13  C4       -26.7180   -8.8590   -3.8620 C.3   1351  15I1351     0.0241
     14  C3       -27.5390   -9.0240   -5.1580 C.3   1351  15I1351     0.0523
     15  C2       -28.4810  -10.2190   -5.1660 C.3   1351  15I1351     0.2024
     16  C8       -26.2030   -7.3710   -3.8200 C.3   1351  15I1351     0.0889
     17  N2       -25.2100   -7.1220   -2.7200 N.3   1351  15I1351    -0.2180
     18  C7       -24.0180   -7.9840   -2.7520 C.3   1351  15I1351     0.0887
     19  C6       -24.4610   -9.4890   -2.7830 C.3   1351  15I1351     0.0189
     20  C5       -25.4950   -9.8020   -3.8690 C.3   1351  15I1351     0.0031
@<TRIPOS>BOND
     1     6     9    1
     2     6     5    1
     3     9     8    2
     4    15    14    1
     5    15    10    1
     6    14    13    1
     7     5     4    2
     8     8    10    1
     9     8     7    1
    10    10    11    1
    11    20    13    1
    12    20    19    1
    13    13    16    1
    14    13    12    1
    15    16    17    1
    16     4     7    1
    17     4     3    2
    18    19    18    1
    19    18    17    1
    20     7     2    2
    21    11    12    1
    22     3     1    1
    23     2     1    1
