@<TRIPOS>MOLECULE
3zo3_QNI_A_1.pdb
 20 23 0 0 0
SMALL
GASTEIGER

@<TRIPOS>ATOM
      1  C12      -31.9910  -10.0900   -1.1100 C.3   1351  QNI1351     0.2618
      2  N3       -30.8560  -10.2460   -1.7590 N.2   1351  QNI1351    -0.2269
      3  N4       -33.0700   -9.9420   -1.9180 N.2   1351  QNI1351    -0.1914
      4  C13      -32.5980  -10.0080   -3.2000 C.1   1351  QNI1351     0.0576
      5  N5       -33.3190   -9.9830   -4.3350 N.2   1351  QNI1351    -0.1640
      6  C        -32.5990  -10.1620   -5.4480 C.3   1351  QNI1351     0.4005
      7  C11      -31.2270  -10.1910   -3.0900 C.2   1351  QNI1351     0.2219
      8  C1       -30.6240  -10.3420   -4.3880 C.2   1351  QNI1351     0.3479
      9  N        -31.2790  -10.3380   -5.5720 N.2   1351  QNI1351    -0.0336
     10  N1       -29.2430  -10.5390   -4.5210 N.pl3 1351  QNI1351    -0.1889
     11  C10      -28.2290  -10.4870   -3.3840 C.3   1351  QNI1351     0.2022
     12  C5       -27.1800   -9.3940   -3.6170 C.3   1351  QNI1351     0.0460
     13  C4       -26.5470   -9.6110   -5.0130 C.3   1351  QNI1351     0.0083
     14  C3       -27.5710   -9.7020   -6.1510 C.3   1351  QNI1351     0.0509
     15  C2       -28.6230  -10.7550   -5.8320 C.3   1351  QNI1351     0.2024
     16  C9       -26.0810   -9.5090   -2.5430 C.3   1351  QNI1351     0.0228
     17  C8       -25.0910   -8.3670   -2.6330 C.3   1351  QNI1351     0.0888
     18  N2       -25.7450   -7.0540   -2.4730 N.3   1351  QNI1351    -0.2180
     19  C7       -26.8570   -6.8590   -3.4500 C.3   1351  QNI1351     0.0888
     20  C6       -27.8430   -8.0060   -3.4990 C.3   1351  QNI1351     0.0228
@<TRIPOS>BOND
     1    14    15    1
     2    14    13    1
     3    15    10    1
     4     9     6    1
     5     9     8    2
     6     6     5    1
     7    13    12    1
     8    10     8    1
     9    10    11    1
    10     8     7    1
    11     5     4    2
    12    12    20    1
    13    12    11    1
    14    12    16    1
    15    20    19    1
    16    19    18    1
    17     4     7    1
    18     4     3    2
    19     7     2    2
    20    17    16    1
    21    17    18    1
    22     3     1    1
    23     2     1    1
