@<TRIPOS>MOLECULE
3zo4_QWI_A_1.pdb
 26 30 0 0 0
SMALL
GASTEIGER

@<TRIPOS>ATOM
      1  C2        23.0050  -12.7000   -0.2920 C.ar  1352  QWI1352    -0.0000
      2  C3        23.0690  -11.3290   -0.4330 C.ar  1352  QWI1352    -0.0003
      3  C4        23.5600  -10.5400    0.6020 C.ar  1352  QWI1352    -0.0043
      4  C5        23.9930  -11.1160    1.7930 C.ar  1352  QWI1352    -0.0224
      5  C6        23.9250  -12.4990    1.9190 C.ar  1352  QWI1352    -0.0043
      6  C7        23.4330  -13.2860    0.8820 C.ar  1352  QWI1352    -0.0003
      7  C8        24.5350  -10.2680    2.9320 C.3   1352  QWI1352     0.0251
      8  C9        23.5430   -9.2330    3.4880 C.3   1352  QWI1352     0.0232
      9  C10       24.1820   -8.4040    4.5880 C.3   1352  QWI1352     0.0889
     10  N11       25.4240   -7.7480    4.1440 N.3   1352  QWI1352    -0.2205
     11  C15       25.8710   -9.6130    2.5590 C.3   1352  QWI1352     0.0207
     12  C17       28.8150   -8.7070    2.6910 C.3   1352  QWI1352     0.2038
     13  C18       27.5570   -7.8840    2.9210 C.3   1352  QWI1352     0.0670
     14  C20       28.5800   -9.2410    5.0950 C.3   1352  QWI1352     0.2038
     15  C21       27.1170   -9.5380    4.8000 C.3   1352  QWI1352     0.0670
     16  C22       30.8310   -9.5810    3.9510 C.2   1352  QWI1352     0.3479
     17  N23       31.3310   -9.6710    5.2050 N.2   1352  QWI1352    -0.0336
     18  C24       32.6660   -9.7890    5.2460 C.3   1352  QWI1352     0.4005
     19  N25       33.5330   -9.8240    4.2270 N.2   1352  QWI1352    -0.1640
     20  C26       32.9530   -9.7680    3.0090 C.1   1352  QWI1352     0.0576
     21  C70       26.4910   -8.7120    3.6620 C.3   1352  QWI1352     0.0677
     22  N27       33.5670   -9.8380    1.7890 N.2   1352  QWI1352    -0.1914
     23  C29       32.5810   -9.7930    0.8610 C.3   1352  QWI1352     0.2618
     24  N30       31.3690   -9.6900    1.3730 N.2   1352  QWI1352    -0.2269
     25  C31       31.5920   -9.6630    2.7410 C.2   1352  QWI1352     0.2219
     26  N1        29.4380   -9.2700    3.8980 N.pl3 1352  QWI1352    -0.1888
@<TRIPOS>BOND
     1     2     1   ar
     2     2     3   ar
     3     1     6   ar
     4     3     4   ar
     5    23    24    1
     6    23    22    1
     7     6     5   ar
     8    24    25    2
     9    22    20    2
    10     4     5   ar
    11     4     7    1
    12    11     7    1
    13    11    21    1
    14    12    13    1
    15    12    26    1
    16    25    20    1
    17    25    16    1
    18    13    21    1
    19     7     8    1
    20    20    19    2
    21     8     9    1
    22    21    10    1
    23    21    15    1
    24    26    16    1
    25    26    14    1
    26    16    17    2
    27    10     9    1
    28    19    18    1
    29    15    14    1
    30    17    18    1
