@<TRIPOS>MOLECULE
3zo7_K6H_A_1.pdb
 15 15 0 0 0
SMALL
GASTEIGER

@<TRIPOS>ATOM
      1  OAB       29.7790   66.7510   23.7860 O.2   1093  K6H1093    -0.2456
      2  CAI       30.9220   66.6300   23.3790 C.2   1093  K6H1093     0.3324
      3  OAG       32.0990   66.7250   24.2280 O.3   1093  K6H1093    -0.4520
      4  CAE       31.3170   66.3750   21.9940 C.2   1093  K6H1093     0.0221
      5  CAF       32.6360   66.3240   21.9640 C.2   1093  K6H1093    -0.0353
      6  CAK       33.2230   66.5590   23.3430 C.3   1093  K6H1093     0.1486
      7  CAJ       34.1160   65.4050   23.7890 C.3   1093  K6H1093     0.1749
      8 CLAD       35.5770   65.3840   22.7540 Cl    1093  K6H1093    -0.1054
      9  CAH       33.3880   64.0910   23.6920 C.2   1093  K6H1093     0.3773
     10  OAA       32.9290   63.5890   24.7410 O.co2 1093  K6H1093    -0.2446
     11  OAC       33.2610   63.5450   22.5730 O.co2 1093  K6H1093    -0.2446
     12  HAE       30.6540   66.2520   21.1540 H     1093  K6H1093     0.0687
     13  HAK       33.8220   67.4810   23.3260 H     1093  K6H1093     0.0800
     14  HAF       33.2180   66.1470   21.0760 H     1093  K6H1093     0.0611
     15  HAJ       34.4080   65.5750   24.8350 H     1093  K6H1093     0.0623
@<TRIPOS>BOND
     1    14     5    1
     2    12     4    1
     3     5     4    2
     4     5     6    1
     5     4     2    1
     6    11     9   ar
     7     8     7    1
     8    13     6    1
     9     6     7    1
    10     6     3    1
    11     2     1    2
    12     2     3    1
    13     9     7    1
    14     9    10   ar
    15     7    15    1
