@<TRIPOS>MOLECULE
3zq6_ADP_A_1.pdb
 27 29 0 0 0
SMALL
GASTEIGER

@<TRIPOS>ATOM
      1  PB        46.4440  -21.0120   61.6080 P.3   401  ADP401      0.5373
      2  O1B       47.3540  -21.3010   62.8190 O.3   401  ADP401     -0.1143
      3  O2B       45.9100  -19.5400   61.7650 O.3   401  ADP401     -0.1143
      4  O3B       45.3810  -21.9270   61.1970 O.2   401  ADP401     -0.2221
      5  PA        48.3930  -19.6410   59.7460 P.3   401  ADP401      0.2231
      6  O1A       47.4470  -18.6540   58.9750 O.2   401  ADP401     -0.5169
      7  O2A       49.1590  -19.1420   60.8420 O.3   401  ADP401     -0.4370
      8  O3A       47.4540  -20.7350   60.4370 O.3   401  ADP401     -0.2261
      9  O5'       49.1710  -20.3700   58.5790 O.3   401  ADP401     -0.3111
     10  C5'       50.0660  -21.4170   59.0180 C.3   401  ADP401      0.1813
     11  C4'       51.4120  -21.3710   58.2770 C.3   401  ADP401      0.1821
     12  O4'       51.1810  -21.7190   56.9170 O.3   401  ADP401     -0.3135
     13  C3'       51.9720  -19.9100   58.2480 C.3   401  ADP401      0.2184
     14  O3'       53.3850  -20.0210   58.2080 O.3   401  ADP401     -0.2174
     15  C2'       51.4840  -19.3460   56.8970 C.3   401  ADP401      0.2570
     16  O2'       52.3830  -18.4400   56.2770 O.3   401  ADP401     -0.2130
     17  C1'       51.5170  -20.6220   56.0390 C.3   401  ADP401      0.3186
     18  N9        50.5130  -20.5930   55.0110 N.pl3 401  ADP401     -0.1439
     19  C8        49.1210  -20.5550   55.1220 C.3   401  ADP401      0.3377
     20  N7        48.5000  -20.6220   53.9300 N.2   401  ADP401     -0.2095
     21  C5        49.5040  -20.7130   52.9970 C.2   401  ADP401      0.2526
     22  C6        49.5010  -20.8060   51.5680 C.2   401  ADP401      0.4393
     23  N6        48.2910  -20.9480   50.9260 N.pl3 401  ADP401      0.2180
     24  N1        50.6840  -20.8790   50.8730 N.2   401  ADP401      0.0021
     25  C2        51.8190  -20.8110   51.6380 C.3   401  ADP401      0.5254
     26  N3        51.9860  -20.7360   52.9840 N.2   401  ADP401     -0.0055
     27  C4        50.8010  -20.6810   53.6480 C.2   401  ADP401      0.3518
@<TRIPOS>BOND
     1    24    22    2
     2    24    25    1
     3    23    22    1
     4    22    21    1
     5    25    26    1
     6    26    27    2
     7    21    27    1
     8    21    20    2
     9    27    18    1
    10    20    19    1
    11    18    19    1
    12    18    17    1
    13    17    15    1
    14    17    12    1
    15    16    15    1
    16    15    13    1
    17    12    11    1
    18    14    13    1
    19    13    11    1
    20    11    10    1
    21     9    10    1
    22     9     5    1
    23     6     5    2
    24     5     8    1
    25     5     7    1
    26     8     1    1
    27     4     1    2
    28     1     3    1
    29     1     2    1
