@<TRIPOS>MOLECULE
3zq9_NOY_A_1.pdb
 11 11 0 0 0
SMALL
GASTEIGER

@<TRIPOS>ATOM
      1  O4        15.3310   25.3400   12.3550 O.3   1519  NOY1519    -0.2201
      2  C3        15.4350   26.3530   14.5890 C.3   1519  NOY1519     0.2291
      3  O3        16.8540   26.5040   14.5440 O.3   1519  NOY1519    -0.2161
      4  C2        15.0090   26.1220   16.0570 C.3   1519  NOY1519     0.2586
      5  N         13.5510   25.9310   16.1870 N.3   1519  NOY1519    -0.1868
      6  C7        12.9920   24.8850   15.2970 C.3   1519  NOY1519     0.0966
      7  C5        13.4300   25.1500   13.8510 C.3   1519  NOY1519     0.0836
      8  C6        12.7830   24.1700   12.8660 C.3   1519  NOY1519     0.1861
      9  O6        13.0640   22.8160   13.2460 O.3   1519  NOY1519    -0.2203
     10  O2        15.4360   27.1980   16.8910 O.3   1519  NOY1519    -0.2007
     11  C4        14.9640   25.1560   13.7360 C.3   1519  NOY1519     0.1901
@<TRIPOS>BOND
     1     1    11    1
     2     8     9    1
     3     8     7    1
     4    11     7    1
     5    11     2    1
     6     7     6    1
     7     3     2    1
     8     2     4    1
     9     6     5    1
    10     4     5    1
    11     4    10    1
