@<TRIPOS>MOLECULE
3zq9_BGC_A_1.pdb
 11 11 0 0 0
SMALL
GASTEIGER

@<TRIPOS>ATOM
      1  C2        16.4590   24.2860   10.5140 C.3   1520  BGC1520     0.2141
      2  C3        17.8510   23.9810    9.9750 C.3   1520  BGC1520     0.2173
      3  C4        18.6930   25.2590   10.0910 C.3   1520  BGC1520     0.2142
      4  C5        18.8090   25.7430   11.5450 C.3   1520  BGC1520     0.1810
      5  C6        19.5730   27.0660   11.6110 C.3   1520  BGC1520     0.2141
      6  C1        16.5960   24.8560   11.9290 C.3   1520  BGC1520     0.1777
      7  O2        15.6910   23.1150   10.6810 O.3   1520  BGC1520    -0.2176
      8  O3        17.7340   23.6170    8.5760 O.3   1520  BGC1520    -0.2175
      9  O4        19.9580   25.0690    9.4710 O.3   1520  BGC1520    -0.2176
     10  O5        17.4650   25.9550   11.9880 O.3   1520  BGC1520    -0.3481
     11  O6        19.6740   27.4820   12.9720 O.3   1520  BGC1520    -0.2176
@<TRIPOS>BOND
     1     8     2    1
     2     9     3    1
     3     2     3    1
     4     2     1    1
     5     3     4    1
     6     1     7    1
     7     1     6    1
     8     4     5    1
     9     4    10    1
    10     5    11    1
    11     6    10    1
