@<TRIPOS>MOLECULE
3zqa_NDP_A_1.pdb
 48 52 0 0 0
SMALL
GASTEIGER

@<TRIPOS>ATOM
      1  PA        58.0330  -61.4240  -35.5960 P.3   1500  NDP1500     0.2189
      2  O1A       57.1190  -61.4340  -34.3960 O.3   1500  NDP1500    -0.4371
      3  O2A       57.8110  -62.4250  -36.7030 O.2   1500  NDP1500    -0.5170
      4  O5B       59.5440  -61.5820  -35.0570 O.3   1500  NDP1500    -0.3112
      5  C5B       59.8110  -61.8130  -33.6700 C.3   1500  NDP1500     0.1813
      6  C4B       61.2570  -62.2630  -33.4810 C.3   1500  NDP1500     0.1820
      7  O4B       61.3500  -63.6910  -33.4950 O.3   1500  NDP1500    -0.3136
      8  C3B       62.1420  -61.7690  -34.6100 C.3   1500  NDP1500     0.2157
      9  O3B       63.4380  -61.4450  -34.1000 O.3   1500  NDP1500    -0.2175
     10  C2B       62.2620  -62.9580  -35.5370 C.3   1500  NDP1500     0.2314
     11  O2B       63.5120  -62.9180  -36.2090 O.3   1500  NDP1500    -0.2630
     12  C1B       62.1870  -64.1240  -34.5730 C.3   1500  NDP1500     0.3158
     13  N9A       61.6180  -65.3390  -35.2020 N.pl3 1500  NDP1500    -0.1439
     14  C8A       60.7830  -65.0810  -36.3570 C.3   1500  NDP1500     0.3377
     15  N7A       60.3950  -66.4500  -36.7350 N.2   1500  NDP1500    -0.2095
     16  C5A       60.9720  -67.3290  -35.8710 C.2   1500  NDP1500     0.2526
     17  C6A       60.9650  -68.8040  -35.7330 C.2   1500  NDP1500     0.4393
     18  N6A       60.2640  -69.5850  -36.5900 N.pl3 1500  NDP1500     0.2180
     19  N1A       61.6730  -69.3490  -34.7340 N.2   1500  NDP1500     0.0021
     20  C2A       62.3860  -68.6150  -33.8560 C.3   1500  NDP1500     0.5254
     21  N3A       62.4540  -67.2750  -33.8980 N.2   1500  NDP1500    -0.0055
     22  C4A       61.7840  -66.6020  -34.8620 C.2   1500  NDP1500     0.3518
     23  O3        58.0440  -59.9320  -36.2190 O.3   1500  NDP1500    -0.2703
     24  PN        57.5480  -59.5490  -37.7090 P.3   1500  NDP1500     0.2189
     25  O1N       56.9860  -60.7660  -38.4070 O.2   1500  NDP1500    -0.5170
     26  O2N       58.6500  -58.7340  -38.3460 O.3   1500  NDP1500    -0.4371
     27  O5D       56.3190  -58.5690  -37.3790 O.3   1500  NDP1500    -0.3112
     28  C5D       55.0640  -58.8100  -38.0050 C.3   1500  NDP1500     0.1813
     29  C4D       53.9460  -58.6530  -36.9830 C.3   1500  NDP1500     0.1799
     30  O4D       54.3200  -59.1980  -35.7120 O.3   1500  NDP1500    -0.3327
     31  C3D       53.5810  -57.2000  -36.7320 C.3   1500  NDP1500     0.2158
     32  O3D       52.5330  -56.7900  -37.6110 O.3   1500  NDP1500    -0.2175
     33  C2D       53.0810  -57.2090  -35.3070 C.3   1500  NDP1500     0.2309
     34  O2D       51.6730  -57.4790  -35.2980 O.3   1500  NDP1500    -0.2158
     35  C1D       53.8140  -58.3720  -34.6560 C.3   1500  NDP1500     0.2263
     36  N1N       54.8970  -57.8800  -33.7940 N.pl3 1500  NDP1500    -0.2787
     37  C2N       54.7840  -58.0110  -32.4590 C.3   1500  NDP1500     0.1244
     38  C3N       55.7660  -57.5540  -31.5800 C.2   1500  NDP1500     0.0544
     39  C7N       55.5970  -57.7370  -30.0950 C.2   1500  NDP1500     0.2818
     40  O7N       56.4520  -57.3360  -29.3240 O.2   1500  NDP1500    -0.2670
     41  N7N       54.5040  -58.3370  -29.6370 N.am  1500  NDP1500    -0.0839
     42  C4N       57.0090  -56.8710  -32.1040 C.2   1500  NDP1500     0.0033
     43  C5N       57.0080  -56.7820  -33.5630 C.2   1500  NDP1500     0.0157
     44  C6N       55.9600  -57.2740  -34.3400 C.2   1500  NDP1500     0.0633
     45  P2B       63.6160  -62.1340  -37.6100 P.3   1500  NDP1500     0.5328
     46  O1X       64.8800  -61.3230  -37.4470 O.3   1500  NDP1500    -0.1145
     47  O2X       63.6820  -63.2140  -38.6650 O.2   1500  NDP1500    -0.2224
     48  O3X       62.3560  -61.3070  -37.6710 O.3   1500  NDP1500    -0.1145
@<TRIPOS>BOND
     1    47    45    2
     2    25    24    2
     3    26    24    1
     4    28    27    1
     5    28    29    1
     6    24    27    1
     7    24    23    1
     8    48    45    1
     9    32    31    1
    10    45    46    1
    11    45    11    1
    12    29    31    1
    13    29    30    1
    14    15    14    1
    15    15    16    2
    16    31    33    1
    17     3     1    2
    18    18    17    1
    19    14    13    1
    20    23     1    1
    21    11    10    1
    22    16    17    1
    23    16    22    1
    24    17    19    2
    25    30    35    1
    26     1     4    1
    27     1     2    1
    28    10     8    1
    29    10    12    1
    30    33    34    1
    31    33    35    1
    32    13    22    1
    33    13    12    1
    34     4     5    1
    35    22    21    2
    36    19    20    1
    37    35    36    1
    38     8     9    1
    39     8     6    1
    40    12     7    1
    41    44    36    1
    42    44    43    2
    43    21    20    1
    44    36    37    1
    45     5     6    1
    46    43    42    1
    47     7     6    1
    48    37    38    1
    49    42    38    2
    50    38    39    1
    51    39    41   am
    52    39    40    2
