@<TRIPOS>MOLECULE
3zqe_DXC_B_1.pdb
 28 31 0 0 0
SMALL
GASTEIGER

@<TRIPOS>ATOM
      1  C1        -0.7890   22.7230   14.8810 C.3   1079  DXC1079     0.1520
      2  C2        -1.0180   21.2760   14.4390 C.3   1079  DXC1079     0.0329
      3  C3        -0.0460   20.3530   15.1770 C.3   1079  DXC1079     0.0025
      4  C4         1.4140   20.7310   14.9120 C.3   1079  DXC1079     0.0002
      5  C5         1.6310   22.1960   15.2960 C.3   1079  DXC1079     0.0026
      6  C6         0.6540   23.1170   14.5620 C.3   1079  DXC1079     0.0329
      7  C7        -0.3280   18.9080   14.7610 C.3   1079  DXC1079     0.0001
      8  C8        -0.0040   18.7190   13.2770 C.3   1079  DXC1079     0.0000
      9  C9         1.4590   19.0780   13.0140 C.3   1079  DXC1079     0.0002
     10  C10        1.7600   20.5180   13.4350 C.3   1079  DXC1079     0.0025
     11  C11        1.7850   18.9300   11.5270 C.3   1079  DXC1079     0.0024
     12  C12        3.2760   19.1630   11.2940 C.3   1079  DXC1079     0.0282
     13  C13        3.6100   20.6030   11.6970 C.3   1079  DXC1079     0.1519
     14  C14        3.2320   20.8510   13.1610 C.3   1079  DXC1079     0.0329
     15  C15        1.6300   17.5170   10.9680 C.3   1079  DXC1079     0.0001
     16  C16        2.3980   17.6280    9.6470 C.3   1079  DXC1079     0.0001
     17  C17        3.2780   18.8760    9.7910 C.3   1079  DXC1079     0.0024
     18  C18        2.3220   19.8510   15.7750 C.3   1079  DXC1079     0.0000
     19  C19        4.6510   18.6590    9.1450 C.3   1079  DXC1079     0.0006
     20  O1         2.9060   21.5170   10.8550 O.3   1079  DXC1079    -0.2232
     21  O2        -1.6900   23.5770   14.1700 O.3   1079  DXC1079    -0.2232
     22  C20        4.1090   18.1500   12.0810 C.3   1079  DXC1079     0.0025
     23  C21        4.4380   18.2250    7.6940 C.3   1079  DXC1079     0.0118
     24  C22        5.7000   17.6830    7.0140 C.3   1079  DXC1079     0.1141
     25  C23        6.6230   18.7850    6.4860 C.2   1079  DXC1079     0.3649
     26  O3         7.7480   18.8860    7.0080 O.co2 1079  DXC1079    -0.2457
     27  O4         6.1860   19.4800    5.5370 O.co2 1079  DXC1079    -0.2457
     28  C24        5.4990   19.9320    9.2190 C.3   1079  DXC1079     0.0000
@<TRIPOS>BOND
     1    27    25   ar
     2    25    26   ar
     3    25    24    1
     4    24    23    1
     5    23    19    1
     6    19    28    1
     7    19    17    1
     8    16    17    1
     9    16    15    1
    10    17    12    1
    11    20    13    1
    12    15    11    1
    13    12    11    1
    14    12    13    1
    15    12    22    1
    16    11     9    1
    17    13    14    1
    18     9     8    1
    19     9    10    1
    20    14    10    1
    21     8     7    1
    22    10     4    1
    23    21     1    1
    24     2     1    1
    25     2     3    1
    26     6     1    1
    27     6     5    1
    28     7     3    1
    29     4     3    1
    30     4     5    1
    31     4    18    1
