@<TRIPOS>MOLECULE
3zqt_30Z_A_1.pdb
 22 23 0 0 0
SMALL
GASTEIGER

@<TRIPOS>ATOM
      1  O25       20.9530   14.4150   31.9130 O.3   1920  30Z1920    -0.2832
      2  C19       20.0930   15.4680   32.0660 C.ar  1920  30Z1920     0.2339
      3  C18       18.9210   15.5380   31.3190 C.ar  1920  30Z1920     0.0411
      4  C20       20.3960   16.5560   33.0310 C.ar  1920  30Z1920     0.2342
      5  O23       21.5330   16.5340   33.7780 O.3   1920  30Z1920    -0.2831
      6  C21       19.5050   17.6100   33.1650 C.ar  1920  30Z1920     0.0451
      7  C22       18.3470   17.6340   32.3960 C.ar  1920  30Z1920    -0.0008
      8  C17       18.0580   16.6160   31.4880 C.ar  1920  30Z1920    -0.0188
      9  C15       16.7850   16.6970   30.6800 C.3   1920  30Z1920     0.0265
     10  C14       17.0480   16.1300   29.2930 C.3   1920  30Z1920     0.0047
     11  C16       18.5240   15.7800   29.1430 C.3   1920  30Z1920     0.0004
     12  C12       16.5950   17.0600   28.1700 C.3   1920  30Z1920     0.0047
     13  C13       16.8980   16.3570   26.8610 C.3   1920  30Z1920     0.0004
     14  C11       15.1110   17.4120   28.2390 C.3   1920  30Z1920     0.0265
     15  C3        14.8180   18.9020   28.3000 C.ar  1920  30Z1920    -0.0188
     16  C2        15.7100   19.7850   28.9090 C.ar  1920  30Z1920    -0.0008
     17  C4        13.6290   19.3870   27.7530 C.ar  1920  30Z1920     0.0411
     18  C5        13.3150   20.7430   27.7960 C.ar  1920  30Z1920     0.2339
     19  O9        12.1530   21.2110   27.2590 O.3   1920  30Z1920    -0.2832
     20  C6        14.2720   21.6770   28.4400 C.ar  1920  30Z1920     0.2342
     21  C1        15.4440   21.1530   28.9760 C.ar  1920  30Z1920     0.0451
     22  O7        14.0070   23.0150   28.5100 O.3   1920  30Z1920    -0.2831
@<TRIPOS>BOND
     1    13    12    1
     2    19    18    1
     3    17    18   ar
     4    17    15   ar
     5    18    20   ar
     6    12    14    1
     7    12    10    1
     8    14    15    1
     9    15    16   ar
    10    20    22    1
    11    20    21   ar
    12    16    21   ar
    13    11    10    1
    14    10     9    1
    15     9     8    1
    16     3     8   ar
    17     3     2   ar
    18     8     7   ar
    19     1     2    1
    20     2     4   ar
    21     7     6   ar
    22     4     6   ar
    23     4     5    1
