@<TRIPOS>MOLECULE
3zqt_TES_A_1.pdb
 21 24 0 0 0
SMALL
GASTEIGER

@<TRIPOS>ATOM
      1  C1        27.0900    5.1670    5.0090 C.3   1000  TES1000     0.0118
      2  C2        26.3510    6.4490    5.3510 C.3   1000  TES1000     0.0694
      3  C3        24.8970    6.2620    4.9940 C.2   1000  TES1000     0.1725
      4  O3        24.2350    7.2160    4.6160 O.2   1000  TES1000    -0.2914
      5  C4        24.2800    4.9160    5.0640 C.2   1000  TES1000     0.0289
      6  C5        25.0010    3.7990    5.2880 C.2   1000  TES1000    -0.0420
      7  C6        24.2830    2.4540    5.2000 C.3   1000  TES1000     0.0221
      8  C7        25.1450    1.4620    4.4250 C.3   1000  TES1000     0.0044
      9  C8        26.5290    1.3400    5.0490 C.3   1000  TES1000     0.0007
     10  C9        27.2600    2.7050    5.0460 C.3   1000  TES1000     0.0035
     11  C10       26.4670    3.8920    5.6250 C.3   1000  TES1000     0.0157
     12  C11       28.6700    2.6130    5.6230 C.3   1000  TES1000     0.0004
     13  C12       29.4670    1.5900    4.7680 C.3   1000  TES1000     0.0025
     14  C13       28.8130    0.2090    4.8400 C.3   1000  TES1000     0.0282
     15  C14       27.3990    0.3440    4.2810 C.3   1000  TES1000     0.0025
     16  C15       26.8970   -1.1060    4.1740 C.3   1000  TES1000     0.0027
     17  C16       28.1750   -1.9180    3.8970 C.3   1000  TES1000     0.0329
     18  C17       29.3550   -0.9430    3.9860 C.3   1000  TES1000     0.1519
     19  O17       30.4890   -1.6490    4.5300 O.3   1000  TES1000    -0.2232
     20  C18       28.8130   -0.2710    6.2920 C.3   1000  TES1000     0.0025
     21  C19       26.5540    3.9330    7.1550 C.3   1000  TES1000     0.0041
@<TRIPOS>BOND
     1    17    18    1
     2    17    16    1
     3    18    19    1
     4    18    14    1
     5    16    15    1
     6    15    14    1
     7    15     9    1
     8     8     9    1
     9     8     7    1
    10     4     3    2
    11    13    14    1
    12    13    12    1
    13    14    20    1
    14     3     5    1
    15     3     2    1
    16     1     2    1
    17     1    11    1
    18    10     9    1
    19    10    12    1
    20    10    11    1
    21     5     6    2
    22     7     6    1
    23     6    11    1
    24    11    21    1
