@<TRIPOS>MOLECULE
3zqu_FNR_A_1.pdb
 31 33 0 0 0
SMALL
GASTEIGER

@<TRIPOS>ATOM
      1  C9A       -5.4150   28.2900  -49.0440 C.2   1208  FNR1208     0.0793
      2  N10       -6.7950   28.4490  -48.6950 N.pl3 1208  FNR1208    -0.2545
      3  CAA       -7.0330   29.0890  -47.4950 C.2   1208  FNR1208     0.2449
      4  N1        -8.3300   28.9050  -46.9880 N.2   1208  FNR1208    -0.2887
      5  C2        -8.6100   29.5340  -45.7660 C.1   1208  FNR1208     0.3669
      6  O2        -9.7360   29.3740  -45.2690 O.2   1208  FNR1208    -0.1744
      7  N3        -7.6780   30.2140  -45.0170 N.2   1208  FNR1208    -0.2300
      8  C4        -6.3500   30.3860  -45.5330 C.1   1208  FNR1208     0.2513
      9  O4        -5.4880   30.9240  -44.8340 O.2   1208  FNR1208    -0.2057
     10  C4A       -6.0670   29.8080  -46.7780 C.2   1208  FNR1208     0.2703
     11  N5        -4.7800   29.9190  -47.3310 N.2   1208  FNR1208    -0.3882
     12  C5A       -4.4520   29.0250  -48.3450 C.2   1208  FNR1208     0.1277
     13  C6        -3.0980   28.9280  -48.6820 C.3   1208  FNR1208     0.0820
     14  C7        -2.7280   28.0120  -49.6580 C.2   1208  FNR1208    -0.0408
     15  C7M       -1.2070   27.9150  -49.9970 C.3   1208  FNR1208     0.0265
     16  C8        -3.6640   27.2640  -50.3530 C.2   1208  FNR1208    -0.0280
     17  C8M       -3.2120   26.2460  -51.4210 C.3   1208  FNR1208     0.0304
     18  C9        -5.0250   27.3700  -50.0270 C.2   1208  FNR1208     0.0123
     19  C1'       -7.9400   27.9320  -49.5490 C.3   1208  FNR1208     0.1336
     20  C2'       -8.4240   26.5350  -49.1440 C.3   1208  FNR1208     0.2048
     21  O2'       -7.3240   25.5830  -49.1610 O.3   1208  FNR1208    -0.2185
     22  C3'       -9.5360   26.0880  -50.0990 C.3   1208  FNR1208     0.2165
     23  O3'      -10.6860   26.9650  -49.8830 O.3   1208  FNR1208    -0.2175
     24  C4'       -9.8880   24.6170  -49.8650 C.3   1208  FNR1208     0.2147
     25  O4'      -11.0550   24.3790  -50.6220 O.3   1208  FNR1208    -0.2176
     26  C5'      -10.0540   24.1870  -48.4040 C.3   1208  FNR1208     0.1892
     27  O5'      -10.3460   22.7870  -48.4320 O.3   1208  FNR1208    -0.2674
     28  P        -10.2170   21.9170  -47.2140 P.3   1208  FNR1208     0.5327
     29  O1P      -10.8780   20.5310  -47.6280 O.2   1208  FNR1208    -0.2224
     30  O2P      -11.1540   22.5840  -46.1160 O.3   1208  FNR1208    -0.1145
     31  O3P       -8.8300   21.8020  -46.7940 O.3   1208  FNR1208    -0.1145
@<TRIPOS>BOND
     1    17    16    1
     2    25    24    1
     3    16    18    1
     4    16    14    2
     5    22    23    1
     6    22    24    1
     7    22    20    1
     8    18     1    2
     9    15    14    1
    10    24    26    1
    11    14    13    1
    12    19    20    1
    13    19     2    1
    14    21    20    1
    15     1     2    1
    16     1    12    1
    17     2     3    1
    18    13    12    1
    19    27    26    1
    20    27    28    1
    21    12    11    2
    22    29    28    2
    23     3     4    2
    24     3    10    1
    25    11    10    2
    26    28    31    1
    27    28    30    1
    28     4     5    2
    29    10     8    1
    30     5     6    2
    31     5     7    2
    32     8     7    2
    33     8     9    2
