@<TRIPOS>MOLECULE
3zqv_HEC_A_1.pdb
 43 50 0 0 0
SMALL
GASTEIGER

@<TRIPOS>ATOM
      1 FE          6.8380   39.0730   21.7420 Fe    128  HEC128      0.0000
      2  CHA        8.4480   36.0190   21.5920 C.2   128  HEC128      0.0000
      3  CHB        6.8970   39.2520   18.3540 C.2   128  HEC128      0.0000
      4  CHC        4.6180   41.6820   21.8140 C.2   128  HEC128      0.0000
      5  CHD        6.4460   38.6670   25.1190 C.2   128  HEC128      0.0000
      6  NA         7.5090   37.8360   20.2510 N.ar  128  HEC128      0.0000
      7  C1A        8.1610   36.6370   20.3850 C.ar  128  HEC128      0.0000
      8  C2A        8.5000   36.1090   19.0840 C.ar  128  HEC128      0.0000
      9  C3A        8.0590   37.0430   18.1760 C.ar  128  HEC128      0.0000
     10  C4A        7.4700   38.1110   18.9060 C.ar  128  HEC128      0.0000
     11  CMA        8.1560   36.9610   16.6640 C.3   128  HEC128      0.0000
     12  CAA        9.1460   34.8000   18.7900 C.3   128  HEC128      0.0000
     13  CBA        8.1010   33.6710   18.6920 C.3   128  HEC128      0.0000
     14  CGA        8.7400   32.3610   18.2640 C.2   128  HEC128      0.0000
     15  O1A        9.3760   31.6910   19.1080 O.co2 128  HEC128      0.0000
     16  O2A        8.6180   31.9880   17.1020 O.co2 128  HEC128      0.0000
     17  NB         5.9060   40.2440   20.3240 N.2   128  HEC128      0.0000
     18  C1B        6.1880   40.2570   18.9890 C.2   128  HEC128      0.0000
     19  C2B        5.6070   41.4340   18.3630 C.2   128  HEC128      0.0000
     20  C3B        4.9150   42.0840   19.3440 C.2   128  HEC128      0.0000
     21  C4B        5.1160   41.3360   20.5700 C.2   128  HEC128      0.0000
     22  CMB        5.8100   41.8270   16.8980 C.3   128  HEC128      0.0000
     23  CAB        4.1010   43.3370   19.3150 C.3   128  HEC128      0.0000
     24  CBB        3.2070   43.4800   18.0580 C.3   128  HEC128      0.0000
     25  NC         5.6720   39.9490   23.1870 N.ar  128  HEC128      0.0000
     26  C1C        4.8790   41.0710   23.0370 C.ar  128  HEC128      0.0000
     27  C2C        4.3940   41.5200   24.3100 C.ar  128  HEC128      0.0000
     28  C3C        4.9110   40.6780   25.2450 C.ar  128  HEC128      0.0000
     29  C4C        5.7210   39.7120   24.5490 C.ar  128  HEC128      0.0000
     30  CMC        3.4990   42.7370   24.4730 C.3   128  HEC128      0.0000
     31  CAC        4.7810   40.7020   26.7410 C.3   128  HEC128      0.0000
     32  CBC        3.5170   41.3190   27.3410 C.3   128  HEC128      0.0000
     33  ND         7.3970   37.6260   23.1100 N.2   128  HEC128      0.0000
     34  C1D        7.2040   37.6950   24.4620 C.2   128  HEC128      0.0000
     35  C2D        7.8260   36.5700   25.1080 C.2   128  HEC128      0.0000
     36  C3D        8.3700   35.8020   24.1310 C.2   128  HEC128      0.0000
     37  C4D        8.1000   36.4740   22.8860 C.2   128  HEC128      0.0000
     38  CMD        7.8560   36.3320   26.5910 C.3   128  HEC128      0.0000
     39  CAD        9.0490   34.4590   24.2720 C.3   128  HEC128      0.0000
     40  CBD        8.0000   33.2970   24.1790 C.3   128  HEC128      0.0000
     41  CGD        8.6220   31.9440   24.4080 C.2   128  HEC128      0.0000
     42  O1D        8.1370   31.1880   25.2880 O.co2 128  HEC128      0.0000
     43  O2D        9.6270   31.6140   23.6900 O.co2 128  HEC128      0.0000
@<TRIPOS>BOND
     1    11     9    1
     2    22    19    1
     3    16    14   ar
     4    24    23    1
     5     9    10   ar
     6     9     8   ar
     7    14    13    1
     8    14    15   ar
     9     3    10    2
    10     3    18    1
    11    19    18    1
    12    19    20    2
    13    13    12    1
    14    12     8    1
    15    10     6   ar
    16    18    17    2
    17     8     7   ar
    18    23    20    1
    19    20    21    1
    20     6     7   ar
    21     6     1    1
    22    17    21    1
    23    17     1    1
    24     7     2    2
    25    21     4    2
    26     2    37    1
    27     1    33    1
    28     1    25    1
    29     4    26    1
    30    37    33    2
    31    37    36    1
    32    26    25   ar
    33    26    27   ar
    34    33    34    1
    35    25    29   ar
    36    43    41   ar
    37    36    39    1
    38    36    35    2
    39    40    39    1
    40    40    41    1
    41    27    30    1
    42    27    28   ar
    43    41    42   ar
    44    34    35    1
    45    34     5    2
    46    29     5    1
    47    29    28   ar
    48    35    38    1
    49    28    31    1
    50    31    32    1
