@<TRIPOS>MOLECULE
3zqy_HEC_A_1.pdb
 43 50 0 0 0
SMALL
GASTEIGER

@<TRIPOS>ATOM
      1 FE         22.9520  -24.8420    8.3530 Fe    128  HEC128      0.0000
      2  CHA       26.3770  -25.0040    8.4100 C.2   128  HEC128      0.0000
      3  CHB       22.8850  -25.2940   11.7140 C.2   128  HEC128      0.0000
      4  CHC       19.5580  -24.5500    8.2920 C.2   128  HEC128      0.0000
      5  CHD       23.0750  -24.7210    4.9640 C.2   128  HEC128      0.0000
      6  NA        24.3540  -25.1290    9.7970 N.2   128  HEC128      0.0000
      7  C1A       25.7030  -25.1720    9.6460 C.2   128  HEC128      0.0000
      8  C2A       26.3440  -25.3980   10.8980 C.2   128  HEC128      0.0000
      9  C3A       25.3460  -25.4950   11.8240 C.2   128  HEC128      0.0000
     10  C4A       24.1190  -25.3190   11.1340 C.2   128  HEC128      0.0000
     11  CMA       25.4520  -25.6770   13.3260 C.3   128  HEC128      0.0000
     12  CAA       27.8120  -25.5020   11.1720 C.3   128  HEC128      0.0000
     13  CBA       28.4390  -24.0890   11.4060 C.3   128  HEC128      0.0000
     14  CGA       29.8820  -24.2210   11.7670 C.2   128  HEC128      0.0000
     15  O1A       30.7760  -24.2490   10.9340 O.co2 128  HEC128      0.0000
     16  O2A       30.1530  -24.3870   13.0450 O.co2 128  HEC128      0.0000
     17  NB        21.4850  -24.8880    9.7570 N.ar  128  HEC128      0.0000
     18  C1B       21.6510  -25.0670   11.0720 C.ar  128  HEC128      0.0000
     19  C2B       20.3640  -25.0730   11.7490 C.ar  128  HEC128      0.0000
     20  C3B       19.4210  -24.8540   10.7800 C.ar  128  HEC128      0.0000
     21  C4B       20.1590  -24.7200    9.5130 C.ar  128  HEC128      0.0000
     22  CMB       20.1410  -25.2740   13.2210 C.3   128  HEC128      0.0000
     23  CAB       17.9090  -24.7770   10.8400 C.3   128  HEC128      0.0000
     24  CBB       17.3750  -23.9840   12.0580 C.3   128  HEC128      0.0000
     25  NC        21.5540  -24.6720    6.8820 N.2   128  HEC128      0.0000
     26  C1C       20.2310  -24.5360    7.0570 C.2   128  HEC128      0.0000
     27  C2C       19.5230  -24.4110    5.7810 C.2   128  HEC128      0.0000
     28  C3C       20.5350  -24.4940    4.8600 C.2   128  HEC128      0.0000
     29  C4C       21.7860  -24.6230    5.5350 C.2   128  HEC128      0.0000
     30  CMC       18.0400  -24.2650    5.6380 C.3   128  HEC128      0.0000
     31  CAC       20.4560  -24.3690    3.3300 C.3   128  HEC128      0.0000
     32  CBC       19.2340  -23.6420    2.7590 C.3   128  HEC128      0.0000
     33  ND        24.4230  -24.8590    6.9800 N.ar  128  HEC128      0.0000
     34  C1D       24.2840  -24.7920    5.5900 C.ar  128  HEC128      0.0000
     35  C2D       25.5430  -24.8380    4.9590 C.ar  128  HEC128      0.0000
     36  C3D       26.4820  -24.8390    5.9170 C.ar  128  HEC128      0.0000
     37  C4D       25.7920  -24.8860    7.1740 C.ar  128  HEC128      0.0000
     38  CMD       25.7060  -24.7850    3.4350 C.3   128  HEC128      0.0000
     39  CAD       28.0030  -24.8280    5.7550 C.3   128  HEC128      0.0000
     40  CBD       28.5430  -23.3570    5.8590 C.3   128  HEC128      0.0000
     41  CGD       30.0380  -23.3100    5.6340 C.2   128  HEC128      0.0000
     42  O1D       30.4830  -22.5040    4.7830 O.co2 128  HEC128      0.0000
     43  O2D       30.7770  -24.0840    6.3010 O.co2 128  HEC128      0.0000
@<TRIPOS>BOND
     1    32    31    1
     2    31    28    1
     3    38    35    1
     4    42    41   ar
     5    28    29    1
     6    28    27    2
     7    35    34   ar
     8    35    36   ar
     9     5    29    1
    10     5    34    2
    11    29    25    2
    12    34    33   ar
    13    41    40    1
    14    41    43   ar
    15    30    27    1
    16    39    40    1
    17    39    36    1
    18    27    26    1
    19    36    37   ar
    20    25    26    1
    21    25     1    1
    22    33    37   ar
    23    33     1    1
    24    26     4    2
    25    37     2    2
    26     4    21    1
    27     1    17    1
    28     1     6    1
    29     2     7    1
    30    21    17   ar
    31    21    20   ar
    32     7     6    2
    33     7     8    1
    34    17    18   ar
    35     6    10    1
    36    20    23    1
    37    20    19   ar
    38    23    24    1
    39     8    12    1
    40     8     9    2
    41    15    14   ar
    42    18     3    1
    43    18    19   ar
    44    10     3    2
    45    10     9    1
    46    12    13    1
    47    13    14    1
    48    19    22    1
    49    14    16   ar
    50     9    11    1
