@<TRIPOS>MOLECULE
3zqz_SLC_A_1.pdb
 14 14 0 0 0
SMALL
GASTEIGER

@<TRIPOS>ATOM
      1  C4        29.0390    3.9050   -9.0310 C.2   1626  SLC1626     0.0000
      2  O1        29.5640    2.9780   -8.4290 O.2   1626  SLC1626     0.0000
      3  C2        27.5850    3.9060   -9.1390 C.2   1626  SLC1626     0.0000
      4  C3        26.8620    4.4260   -8.1600 C.2   1626  SLC1626     0.0000
      5  C1        26.9030    3.3040  -10.3310 C.3   1626  SLC1626     0.0000
      6 SE         26.9620    1.3380  -10.2730 Se    1626  SLC1626     0.0000
      7  N         29.7270    4.9670   -9.5380 N.am  1626  SLC1626     0.0000
      8  C8        31.0370    5.0090   -9.4510 C.3   1626  SLC1626     0.0000
      9  C9        31.7100    4.8750   -8.2980 C.2   1626  SLC1626     0.0000
     10  O3        31.1160    4.5340   -7.2590 O.co2 1626  SLC1626     0.0000
     11  C7        31.5970    5.5350  -10.7200 C.3   1626  SLC1626     0.0000
     12  C6        30.4180    6.4030  -11.1930 C.3   1626  SLC1626     0.0000
     13  C5        29.1790    6.0690  -10.3100 C.3   1626  SLC1626     0.0000
     14  O2        32.9420    5.0050   -8.3020 O.co2 1626  SLC1626     0.0000
@<TRIPOS>BOND
     1    12    11    1
     2    12    13    1
     3    11     8    1
     4     5     6    1
     5     5     3    1
     6    13     7    1
     7     7     8    1
     8     7     1   am
     9     8     9    1
    10     3     1    1
    11     3     4    2
    12     1     2    2
    13    14     9   ar
    14     9    10   ar
