@<TRIPOS>MOLECULE
3zr0_8OG_A_1.pdb
 24 26 0 0 0
SMALL
GASTEIGER

@<TRIPOS>ATOM
      1  OP3       -6.1120  -11.4650  -18.0950 O.co2 1157  8OG1157    -0.5770
      2  P         -6.5490  -10.0330  -18.2550 P.3   1157  8OG1157    -0.0139
      3  OP1       -8.0290   -9.9030  -17.7780 O.co2 1157  8OG1157    -0.5770
      4  OP2       -6.2910   -9.5350  -19.6320 O.2   1157  8OG1157    -0.6377
      5  O5'       -5.6880   -9.0180  -17.3800 O.3   1157  8OG1157    -0.3516
      6  C5'       -4.3190   -9.0090  -17.2900 C.3   1157  8OG1157     0.1769
      7  C4'       -3.6690   -9.7030  -16.0830 C.3   1157  8OG1157     0.1771
      8  O4'       -2.2200   -9.8440  -16.2320 O.3   1157  8OG1157    -0.3338
      9  C3'       -3.8660   -9.0880  -14.7490 C.3   1157  8OG1157     0.1857
     10  O3'       -3.9150  -10.1180  -13.7940 O.3   1157  8OG1157    -0.2203
     11  C2'       -2.6850   -8.2410  -14.6000 C.3   1157  8OG1157     0.0875
     12  C1'       -1.6230   -9.0810  -15.1830 C.3   1157  8OG1157     0.2114
     13  N9        -0.4760   -8.6130  -15.8710 N.am  1157  8OG1157    -0.1521
     14  C8        -0.2370   -7.7080  -16.8280 C.1   1157  8OG1157     0.2771
     15  N7         1.0500   -7.5460  -17.2350 N.2   1157  8OG1157    -0.3037
     16  C5         1.7930   -8.4800  -16.4370 C.2   1157  8OG1157     0.2850
     17  C6         3.1650   -8.8330  -16.3420 C.1   1157  8OG1157     0.2509
     18  O6         4.0260   -8.3210  -17.0210 O.2   1157  8OG1157    -0.2058
     19  N1         3.4900   -9.8030  -15.4280 N.2   1157  8OG1157    -0.2475
     20  C2         2.5230  -10.4760  -14.5680 C.1   1157  8OG1157     0.2532
     21  N2         2.9510  -11.4360  -13.6830 N.pl3 1157  8OG1157    -0.0226
     22  N3         1.1200  -10.1520  -14.6270 N.2   1157  8OG1157    -0.3052
     23  C4         0.7870   -9.1630  -15.5590 C.2   1157  8OG1157     0.2558
     24  O8        -1.1840   -7.0650  -17.2950 O.2   1157  8OG1157    -0.1925
@<TRIPOS>UNITY_ATOM_ATTR
1 1
charge -1
3 1
charge -1
@<TRIPOS>BOND
     1     4     2    2
     2     2     1    1
     3     2     3    1
     4     2     5    1
     5     5     6    1
     6    24    14    2
     7     6     7    1
     8    15    14    2
     9    15    16    2
    10    18    17    2
    11    14    13   am
    12    16    17    1
    13    16    23    1
    14    17    19    2
    15     8     7    1
    16     8    12    1
    17     7     9    1
    18    13    23    1
    19    13    12    1
    20    23    22    2
    21    19    20    2
    22    12    11    1
    23     9    11    1
    24     9    10    1
    25    22    20    2
    26    20    21    1
