@<TRIPOS>MOLECULE
3zr4_GLN_B_1.pdb
 10 9 0 0 0
SMALL
GASTEIGER

@<TRIPOS>ATOM
      1  N         33.0000   39.5200    3.3870 N.3   1205  GLN1205    -0.1208
      2  CA        33.8590   39.9090    4.5300 C.3   1205  GLN1205     0.1948
      3  C         35.2490   40.3920    4.0920 C.2   1205  GLN1205     0.3819
      4  O         35.7330   40.0850    2.9850 O.co2 1205  GLN1205    -0.2441
      5  CB        33.9480   38.7820    5.5760 C.3   1205  GLN1205     0.0403
      6  CG        34.9080   37.5970    5.3040 C.3   1205  GLN1205     0.0906
      7  CD        34.7100   36.8940    3.9660 C.2   1205  GLN1205     0.2608
      8  OE1       33.5810   36.6050    3.5300 O.2   1205  GLN1205    -0.2717
      9  NE2       35.8320   36.6060    3.2950 N.am  1205  GLN1205    -0.0878
     10  OXT       35.9020   41.1200    4.8720 O.co2 1205  GLN1205    -0.2441
@<TRIPOS>BOND
     1     4     3   ar
     2     9     7   am
     3     1     2    1
     4     8     7    2
     5     7     6    1
     6     3     2    1
     7     3    10   ar
     8     2     5    1
     9     6     5    1
