@<TRIPOS>MOLECULE
3zr6_GAL_A_1.pdb
 12 12 0 0 0
SMALL
GASTEIGER

@<TRIPOS>ATOM
      1  C1        77.1640   89.6120   17.8120 C.3   1669  GAL1669     0.3024
      2  C2        76.6700   89.9090   19.2430 C.3   1669  GAL1669     0.2434
      3  C3        77.8180   90.3340   20.1840 C.3   1669  GAL1669     0.2199
      4  C4        79.0540   89.4550   19.9920 C.3   1669  GAL1669     0.2144
      5  C5        79.4680   89.4560   18.5210 C.3   1669  GAL1669     0.1836
      6  C6        80.6880   88.5630   18.3260 C.3   1669  GAL1669     0.2142
      7  O1        76.2310   88.7700   17.1600 O.3   1669  GAL1669    -0.1869
      8  O2        75.6170   90.8790   19.2120 O.3   1669  GAL1669    -0.2148
      9  O3        77.4260   90.2990   21.5510 O.3   1669  GAL1669    -0.2174
     10  O4        78.8110   88.1260   20.4280 O.3   1669  GAL1669    -0.2176
     11  O5        78.4150   88.9380   17.7410 O.3   1669  GAL1669    -0.3236
     12  O6        81.1050   88.4980   16.9810 O.3   1669  GAL1669    -0.2176
@<TRIPOS>BOND
     1    12     6    1
     2     7     1    1
     3    11     1    1
     4    11     5    1
     5     1     2    1
     6     6     5    1
     7     5     4    1
     8     8     2    1
     9     2     3    1
    10     4     3    1
    11     4    10    1
    12     3     9    1
