@<TRIPOS>MOLECULE
3zr6_NAG_A_1.pdb
 14 14 0 0 0
SMALL
GASTEIGER

@<TRIPOS>ATOM
      1  C1        73.1520  104.4740   -2.0080 C.3   1284  NAG1284     0.1665
      2  C2        72.3270  105.5930   -2.6350 C.3   1284  NAG1284     0.1576
      3  C3        72.3280  105.6470   -4.1700 C.3   1284  NAG1284     0.2069
      4  C4        73.7080  105.3500   -4.7470 C.3   1284  NAG1284     0.2134
      5  C5        74.2160  104.0670   -4.0870 C.3   1284  NAG1284     0.1809
      6  C6        75.5610  103.6130   -4.6430 C.3   1284  NAG1284     0.2141
      7  C7        70.3380  106.2970   -1.4110 C.2   1284  NAG1284     0.2420
      8  C8        71.1150  107.4680   -0.8590 C.3   1284  NAG1284     0.0964
      9  N2        70.9740  105.4050   -2.1690 N.am  1284  NAG1284    -0.2019
     10  O3        71.8920  106.9190   -4.6100 O.3   1284  NAG1284    -0.2184
     11  O4        73.6660  105.2620   -6.1700 O.3   1284  NAG1284    -0.2176
     12  O5        74.3610  104.2530   -2.6930 O.3   1284  NAG1284    -0.3489
     13  O6        76.1950  102.8070   -3.6700 O.3   1284  NAG1284    -0.2176
     14  O7        69.1400  106.1730   -1.1620 O.2   1284  NAG1284    -0.2733
@<TRIPOS>BOND
     1    11     4    1
     2     4     3    1
     3     4     5    1
     4     6     5    1
     5     6    13    1
     6    10     3    1
     7     3     2    1
     8     5    12    1
     9    12     1    1
    10     2     9    1
    11     2     1    1
    12     9     7   am
    13     7    14    2
    14     7     8    1
