@<TRIPOS>MOLECULE
3zr7_OR8_A_1.pdb
 26 28 0 0 0
SMALL
GASTEIGER

@<TRIPOS>ATOM
      1 CL         12.1560    3.6930   10.8910 Cl    1000  OR81000    -0.0603
      2  C18       11.0890    5.0590   10.8010 C.ar  1000  OR81000     0.1547
      3  N19       11.4580    6.3210   10.4860 N.ar  1000  OR81000    -0.2372
      4  C26       12.8080    6.8040   10.1690 C.3   1000  OR81000     0.1548
      5  N20       10.3260    7.1240   10.5200 N.ar  1000  OR81000    -0.1714
      6  C21        9.3090    6.3830   10.8370 C.ar  1000  OR81000     0.0999
      7  C24        7.9040    6.8770   10.9780 C.3   1000  OR81000     0.0555
      8  C15        9.7580    5.0610   11.0280 C.ar  1000  OR81000     0.1665
      9  S14        8.7060    3.7120   11.4470 S.O2  1000  OR81000     0.0806
     10  O16        7.8730    4.1480   12.4740 O.2   1000  OR81000    -0.1515
     11  O17        9.5030    2.5270   11.4410 O.2   1000  OR81000    -0.1515
     12  N13        7.7560    3.5790   10.0880 N.3   1000  OR81000    -0.0728
     13  C12        8.2160    2.8730    8.8760 C.3   1000  OR81000     0.1418
     14  C5         9.3220    3.5990    8.1370 C.ar  1000  OR81000    -0.0029
     15  C6         9.2080    4.9470    7.7780 C.ar  1000  OR81000    -0.0028
     16  C1        10.2320    5.6030    7.0930 C.ar  1000  OR81000    -0.0001
     17  C4        10.4770    2.9090    7.7800 C.ar  1000  OR81000    -0.0028
     18  C3        11.4930    3.5450    7.0960 C.ar  1000  OR81000    -0.0001
     19  C2        11.3990    4.8990    6.7550 C.ar  1000  OR81000     0.0039
     20  C7        12.5230    5.5470    6.0090 C.ar  1000  OR81000     0.0496
     21  C11       13.8760    5.4740    6.2360 C.ar  1000  OR81000     0.1544
     22  C22       14.5470    4.7150    7.3450 C.3   1000  OR81000     0.0754
     23  O10       14.4640    6.1990    5.2750 O.2   1000  OR81000    -0.3581
     24  N9        13.6360    6.6950    4.5080 N.ar  1000  OR81000    -0.0817
     25  C8        12.4170    6.3680    4.8590 C.ar  1000  OR81000     0.1006
     26  C23       11.1160    6.7450    4.2010 C.3   1000  OR81000     0.0556
@<TRIPOS>BOND
     1    26    25    1
     2    24    25   ar
     3    24    23   ar
     4    25    20   ar
     5    23    21   ar
     6    20    21   ar
     7    20    19    1
     8    21    22    1
     9    19    16   ar
    10    19    18   ar
    11    16    15   ar
    12    18    17   ar
    13    15    14   ar
    14    17    14   ar
    15    14    13    1
    16    13    12    1
    17    12     9    1
    18     4     3    1
    19     3     5   ar
    20     3     2   ar
    21     5     6   ar
    22     2     1    1
    23     2     8   ar
    24     6     7    1
    25     6     8   ar
    26     8     9    1
    27    11     9    2
    28     9    10    2
