@<TRIPOS>MOLECULE
3zra_ORB_A_1.pdb
 27 29 0 0 0
SMALL
GASTEIGER

@<TRIPOS>ATOM
      1  F2        14.7380    5.0760    6.4040 F     1000  ORB1000    -0.2025
      2  C2        13.5960    5.6780    6.0240 C.ar  1000  ORB1000     0.1593
      3  C3        12.5780    5.7510    6.9410 C.ar  1000  ORB1000     0.0336
      4  C4        11.3870    6.3750    6.5740 C.ar  1000  ORB1000     0.0308
      5  C5        11.2810    6.9080    5.2710 C.ar  1000  ORB1000     0.1384
      6 CL2         9.8580    7.7100    4.6880 Cl    1000  ORB1000    -0.0613
      7  N6        12.2920    6.8130    4.4260 N.ar  1000  ORB1000    -0.2301
      8  C1        13.4250    6.2260    4.7650 C.ar  1000  ORB1000     0.1294
      9  C7        10.3320    6.4170    7.6230 C.ar  1000  ORB1000     0.0023
     10  C12       10.6810    6.7950    8.9330 C.ar  1000  ORB1000    -0.0002
     11  C11        9.7310    6.8310    9.9370 C.ar  1000  ORB1000    -0.0029
     12  C10        8.4210    6.5010    9.6350 C.ar  1000  ORB1000    -0.0046
     13  C9         8.0730    6.1160    8.3410 C.ar  1000  ORB1000    -0.0029
     14  C8         9.0160    6.0630    7.3340 C.ar  1000  ORB1000    -0.0002
     15  C13        7.3700    6.5200   10.7090 C.3   1000  ORB1000     0.1199
     16  C25        6.3650    7.6290   10.4060 C.3   1000  ORB1000     0.0257
     17  N14        6.6710    5.2240   10.7190 N.3   1000  ORB1000    -0.0747
     18  S15        7.3680    3.8370   11.2900 S.O2  1000  ORB1000     0.0810
     19  O16        8.1100    4.2110   12.4410 O.2   1000  ORB1000    -0.1515
     20  O17        6.3440    2.8650   11.3450 O.2   1000  ORB1000    -0.1515
     21  C18        8.5260    3.3540   10.0490 C.ar  1000  ORB1000     0.1728
     22  C22        8.2600    2.9170    8.7910 C.ar  1000  ORB1000     0.1730
     23  C24        6.9060    2.6910    8.1800 C.3   1000  ORB1000     0.0768
     24  O21        9.4450    2.7150    8.1940 O.2   1000  ORB1000    -0.3567
     25  N20       10.3670    2.9720    8.9390 N.ar  1000  ORB1000    -0.0803
     26  C19        9.9470    3.3850   10.0990 C.ar  1000  ORB1000     0.1192
     27  C23       10.8270    3.8030   11.2440 C.3   1000  ORB1000     0.0571
@<TRIPOS>BOND
     1     7     8   ar
     2     7     5   ar
     3     6     5    1
     4     8     2   ar
     5     5     4   ar
     6     2     1    1
     7     2     3   ar
     8     4     3   ar
     9     4     9    1
    10    14     9   ar
    11    14    13   ar
    12     9    10   ar
    13    23    22    1
    14    24    22   ar
    15    24    25   ar
    16    13    12   ar
    17    22    21   ar
    18    10    11   ar
    19    25    26   ar
    20    12    11   ar
    21    12    15    1
    22    21    26   ar
    23    21    18    1
    24    26    27    1
    25    16    15    1
    26    15    17    1
    27    17    18    1
    28    18    20    2
    29    18    19    2
