@<TRIPOS>MOLECULE
3zrb_ORC_B_1.pdb
 26 28 0 0 0
SMALL
GASTEIGER

@<TRIPOS>ATOM
      1  O13       15.8760    9.2380   22.2990 O.2   1000  ORC1000    -0.1515
      2  S10       16.5390    8.9850   23.5230 S.O2  1000  ORC1000     0.0810
      3  O11       17.6040    8.0530   23.6070 O.2   1000  ORC1000    -0.1515
      4  C12       15.3380    8.5460   24.7310 C.ar  1000  ORC1000     0.1728
      5  C17       15.6350    8.1380   26.0460 C.ar  1000  ORC1000     0.1192
      6  C19       17.0260    7.9530   26.5970 C.3   1000  ORC1000     0.0571
      7  N16       14.4870    7.9500   26.6520 N.ar  1000  ORC1000    -0.0803
      8  O15       13.5520    8.1820   25.9100 O.2   1000  ORC1000    -0.3567
      9  C14       13.9730    8.5740   24.6950 C.ar  1000  ORC1000     0.1730
     10  C18       13.0850    8.9600   23.5420 C.3   1000  ORC1000     0.0768
     11  N8        17.1970   10.4380   23.9810 N.3   1000  ORC1000    -0.0747
     12  C7        16.2990   11.6030   24.0760 C.3   1000  ORC1000     0.1199
     13  C9        17.1780   12.8260   24.3330 C.3   1000  ORC1000     0.0257
     14  C5        15.2970   11.5380   25.2010 C.ar  1000  ORC1000    -0.0046
     15  C6        13.9730   11.8810   24.9670 C.ar  1000  ORC1000    -0.0029
     16  C1        13.0540   11.8250   26.0070 C.ar  1000  ORC1000    -0.0001
     17  C4        15.6880   11.1660   26.4830 C.ar  1000  ORC1000    -0.0029
     18  C3        14.7770   11.1080   27.5220 C.ar  1000  ORC1000    -0.0001
     19  C2        13.4400   11.4240   27.2920 C.ar  1000  ORC1000     0.0039
     20  C20       12.4400   11.4060   28.4040 C.ar  1000  ORC1000     0.0496
     21  C24       12.5390   11.9930   29.6400 C.ar  1000  ORC1000     0.1544
     22  C26       13.7000   12.7590   30.2170 C.3   1000  ORC1000     0.0754
     23  O23       11.3730   11.7700   30.2590 O.2   1000  ORC1000    -0.3581
     24  N22       10.6140   11.1320   29.5680 N.ar  1000  ORC1000    -0.0817
     25  C21       11.1270   10.8440   28.4170 C.ar  1000  ORC1000     0.1006
     26  C25       10.4320   10.0690   27.3300 C.3   1000  ORC1000     0.0556
@<TRIPOS>BOND
     1     1     2    2
     2     2     3    2
     3     2    11    1
     4     2     4    1
     5    10     9    1
     6    11    12    1
     7    12    13    1
     8    12    14    1
     9     9     4   ar
    10     9     8   ar
    11     4     5   ar
    12    15    14   ar
    13    15    16   ar
    14    14    17   ar
    15     8     7   ar
    16    16    19   ar
    17     5     6    1
    18     5     7   ar
    19    17    18   ar
    20    19    18   ar
    21    19    20    1
    22    26    25    1
    23    20    25   ar
    24    20    21   ar
    25    25    24   ar
    26    24    23   ar
    27    21    22    1
    28    21    23   ar
