@<TRIPOS>MOLECULE
3zrb_OR8_A_1.pdb
 26 28 0 0 0
SMALL
GASTEIGER

@<TRIPOS>ATOM
      1 CL         25.0980  -12.7100   11.4620 Cl    1000  OR81000    -0.0603
      2  C18       26.8090  -12.7700   11.7750 C.ar  1000  OR81000     0.1547
      3  N19       27.6030  -13.8200   11.4750 N.ar  1000  OR81000    -0.2372
      4  C26       27.2230  -15.0960   10.8540 C.3   1000  OR81000     0.1548
      5  N20       28.8840  -13.4940   11.9000 N.ar  1000  OR81000    -0.1714
      6  C21       28.8770  -12.2770   12.3930 C.ar  1000  OR81000     0.0999
      7  C24       30.1090  -11.6080   12.9390 C.3   1000  OR81000     0.0555
      8  C15       27.5620  -11.7930   12.3600 C.ar  1000  OR81000     0.1665
      9  S14       27.0040  -10.1760   12.8480 S.O2  1000  OR81000     0.0806
     10  O16       27.5080   -9.8880   14.1340 O.2   1000  OR81000    -0.1515
     11  O17       25.6530  -10.1100   12.4150 O.2   1000  OR81000    -0.1515
     12  N13       27.7630   -9.2490   11.7020 N.3   1000  OR81000    -0.0728
     13  C12       27.1770   -9.0430   10.3590 C.3   1000  OR81000     0.1418
     14  C5        27.2320  -10.2920    9.5130 C.ar  1000  OR81000    -0.0029
     15  C6        28.4120  -11.0450    9.4380 C.ar  1000  OR81000    -0.0028
     16  C1        28.4960  -12.1940    8.6710 C.ar  1000  OR81000    -0.0001
     17  C4        26.0990  -10.6940    8.8230 C.ar  1000  OR81000    -0.0028
     18  C3        26.1740  -11.8260    8.0330 C.ar  1000  OR81000    -0.0001
     19  C2        27.3480  -12.5980    7.9820 C.ar  1000  OR81000     0.0039
     20  C7        27.3310  -13.8020    7.1110 C.ar  1000  OR81000     0.0496
     21  C11       26.3180  -14.7150    6.9950 C.ar  1000  OR81000     0.1544
     22  C22       25.0340  -14.7460    7.7880 C.3   1000  OR81000     0.0754
     23  O10       26.7060  -15.5320    6.0190 O.2   1000  OR81000    -0.3581
     24  N9        27.7960  -15.2260    5.5660 N.ar  1000  OR81000    -0.0817
     25  C8        28.2940  -14.1790    6.1330 C.ar  1000  OR81000     0.1006
     26  C23       29.6110  -13.5190    5.8180 C.3   1000  OR81000     0.0556
@<TRIPOS>BOND
     1    24    23   ar
     2    24    25   ar
     3    26    25    1
     4    23    21   ar
     5    25    20   ar
     6    21    20   ar
     7    21    22    1
     8    20    19    1
     9    19    18   ar
    10    19    16   ar
    11    18    17   ar
    12    16    15   ar
    13    17    14   ar
    14    15    14   ar
    15    14    13    1
    16    13    12    1
    17     4     3    1
    18     1     2    1
    19     3     2   ar
    20     3     5   ar
    21    12     9    1
    22     2     8   ar
    23     5     6   ar
    24     8     6   ar
    25     8     9    1
    26     6     7    1
    27    11     9    2
    28     9    10    2
