@<TRIPOS>MOLECULE
3zrc_L8B_C_1.pdb
 30 33 0 0 0
SMALL
GASTEIGER

@<TRIPOS>ATOM
      1  CAA      -56.7070  -10.9350   -5.1580 C.3   1205  L8B1205     0.0557
      2  CAW      -56.0300  -11.9020   -4.2460 C.ar  1205  L8B1205     0.1007
      3  CAK      -54.7890  -11.8300   -3.8700 C.ar  1205  L8B1205     0.0541
      4  NAQ      -56.6130  -12.9290   -3.7450 N.ar  1205  L8B1205    -0.0817
      5  OAT      -55.7000  -13.5180   -2.9960 O.2   1205  L8B1205    -0.3576
      6  CAZ      -54.5770  -12.8470   -3.0950 C.ar  1205  L8B1205     0.1632
      7  CAM      -53.3310  -13.2620   -2.3620 C.3   1205  L8B1205     0.1523
      8  CAU      -53.5270  -12.8320   -0.9350 C.2   1205  L8B1205     0.2338
      9  OAB      -53.3230  -11.6660   -0.6970 O.2   1205  L8B1205    -0.2744
     10  N        -54.0010  -13.6670    0.0010 N.am  1205  L8B1205    -0.2699
     11  CD2      -54.3240  -15.0460   -0.2130 C.3   1205  L8B1205     0.1266
     12  CG       -55.1030  -15.4130    0.9950 C.3   1205  L8B1205     0.1739
     13  OD1      -56.3080  -14.7800    0.9510 O.3   1205  L8B1205    -0.2212
     14  CB       -54.3150  -14.7250    2.0030 C.3   1205  L8B1205     0.0639
     15  CA       -54.3040  -13.3800    1.3850 C.3   1205  L8B1205     0.1561
     16  C        -53.1660  -12.6510    1.9880 C.2   1205  L8B1205     0.2598
     17  O        -52.0770  -12.6510    1.4540 O.2   1205  L8B1205    -0.2715
     18  NAR      -53.4500  -12.0180    3.0930 N.am  1205  L8B1205    -0.1992
     19  CAL      -52.4580  -11.2210    3.7650 C.3   1205  L8B1205     0.1415
     20  CAX      -52.1310  -11.9890    4.9620 C.ar  1205  L8B1205    -0.0006
     21  CAF      -53.0710  -12.8010    5.4780 C.ar  1205  L8B1205    -0.0025
     22  CAH      -52.7880  -13.5360    6.5800 C.ar  1205  L8B1205     0.0028
     23  CAE      -50.9060  -11.9040    5.5270 C.ar  1205  L8B1205    -0.0025
     24  CAG      -50.6160  -12.6450    6.6370 C.ar  1205  L8B1205     0.0028
     25  CAY      -51.5730  -13.4530    7.1640 C.ar  1205  L8B1205     0.0362
     26  CBA      -51.3250  -14.2130    8.2740 C.ar  1205  L8B1205     0.1664
     27  CAJ      -50.5320  -13.9990    9.2660 C.ar  1205  L8B1205     0.1396
     28  NAP      -50.6420  -15.0340   10.0390 N.ar  1205  L8B1205    -0.2026
     29  CAI      -51.4930  -15.8850    9.5560 C.ar  1205  L8B1205     0.2851
     30  OAS      -51.9140  -15.3670    8.4420 O.2   1205  L8B1205    -0.4311
@<TRIPOS>BOND
     1     1     2    1
     2     2     3   ar
     3     2     4   ar
     4     3     6   ar
     5     4     5   ar
     6     6     5   ar
     7     6     7    1
     8     7     8    1
     9     8     9    2
    10     8    10   am
    11    11    10    1
    12    11    12    1
    13    10    15    1
    14    13    12    1
    15    12    14    1
    16    15    16    1
    17    15    14    1
    18    17    16    2
    19    16    18   am
    20    18    19    1
    21    19    20    1
    22    20    21   ar
    23    20    23   ar
    24    21    22   ar
    25    23    24   ar
    26    22    25   ar
    27    24    25   ar
    28    25    26    1
    29    26    30   ar
    30    26    27   ar
    31    30    29   ar
    32    27    28   ar
    33    29    28   ar
