@<TRIPOS>MOLECULE
3zrk_ZRK_A_1.pdb
 16 18 0 0 0
SMALL
GASTEIGER

@<TRIPOS>ATOM
      1  C1       105.1820   21.9270  -10.2670 C.2   1400  ZRK1400     0.1142
      2  C2       105.2610   23.0400  -11.0100 C.2   1400  ZRK1400     0.0597
      3  C3       104.0910   23.8060  -11.0360 C.ar  1400  ZRK1400     0.1578
      4  C4       102.9370   23.4740  -10.3700 C.ar  1400  ZRK1400     0.1206
      5  C5       102.8510   22.2840   -9.5800 C.1   1400  ZRK1400     0.1576
      6  O8       101.8240   21.9760   -8.9870 O.2   1400  ZRK1400    -0.2218
      7  O10      103.8940   24.9830  -11.7020 O.2   1400  ZRK1400    -0.4527
      8  C11      102.6150   25.3850  -11.4500 C.ar  1400  ZRK1400     0.1461
      9  C12      102.2020   26.6240  -12.0500 C.ar  1400  ZRK1400     0.0377
     10  C17      103.0810   27.3790  -12.7980 C.ar  1400  ZRK1400     0.0237
     11  C16      102.6320   28.5640  -13.3410 C.ar  1400  ZRK1400     0.0990
     12  C9       101.9760   24.4800  -10.6270 C.ar  1400  ZRK1400     0.0522
     13  N15      101.3890   29.0400  -13.1950 N.ar  1400  ZRK1400    -0.2423
     14  C14      100.5630   28.2830  -12.4640 C.ar  1400  ZRK1400     0.0990
     15  N3       104.0400   21.5640   -9.5840 N.2   1400  ZRK1400    -0.1745
     16  C13      100.9150   27.0860  -11.8770 C.ar  1400  ZRK1400     0.0237
@<TRIPOS>BOND
     1    11    13   ar
     2    11    10   ar
     3    13    14   ar
     4    10     9   ar
     5    14    16   ar
     6     9    16   ar
     7     9     8    1
     8     7     8   ar
     9     7     3   ar
    10     8    12   ar
    11     3     2    1
    12     3     4   ar
    13     2     1    2
    14    12     4   ar
    15     4     5    1
    16     1    15    1
    17    15     5    2
    18     5     6    2
