@<TRIPOS>MOLECULE
3zrl_ZRL_A_1.pdb
 17 19 0 0 0
SMALL
GASTEIGER

@<TRIPOS>ATOM
      1  C13      102.1890   26.8110  -11.8400 C.ar  1390  ZRL1390     0.0212
      2  C17      104.2630   27.3180  -12.8850 C.ar  1390  ZRL1390     0.0212
      3  C8       103.4450   24.3190  -10.7620 C.ar  1390  ZRL1390     0.0186
      4  C14      101.7160   28.0170  -12.3190 C.ar  1390  ZRL1390     0.0989
      5  C16      103.6930   28.4970  -13.3160 C.ar  1390  ZRL1390     0.0989
      6  C12      103.4890   26.4530  -12.1350 C.ar  1390  ZRL1390     0.0091
      7  C7       104.2780   23.2150  -10.4620 C.ar  1390  ZRL1390     0.0901
      8  C9       104.0210   25.2110  -11.6410 C.ar  1390  ZRL1390     0.0303
      9  C11      105.4830   23.2770  -11.1140 C.ar  1390  ZRL1390     0.0481
     10  C3       106.2440   21.3150  -10.1960 C.2   1390  ZRL1390     0.1182
     11  C5       104.0030   22.1200   -9.5910 C.1   1390  ZRL1390     0.1550
     12  C2       106.5040   22.3390  -11.0100 C.2   1390  ZRL1390     0.0612
     13  N15      102.4330   28.8760  -13.0550 N.ar  1390  ZRL1390    -0.2423
     14  N4       105.0470   21.2100   -9.5170 N.2   1390  ZRL1390    -0.1741
     15  O6       102.9370   22.0370   -9.0020 O.2   1390  ZRL1390    -0.2219
     16  S10      105.5870   24.6720  -12.1060 S.2   1390  ZRL1390    -0.0856
     17 BR1       108.0750   22.5920  -11.9870 Br    1390  ZRL1390    -0.0468
@<TRIPOS>BOND
     1     5    13   ar
     2     5     2   ar
     3    13     4   ar
     4     2     6   ar
     5     4     1   ar
     6     6     1   ar
     7     6     8    1
     8    16     8   ar
     9    16     9   ar
    10    17    12    1
    11     8     3   ar
    12     9    12    1
    13     9     7   ar
    14    12    10    2
    15     3     7   ar
    16     7    11    1
    17    10    14    1
    18    11    14    2
    19    11    15    2
