@<TRIPOS>MOLECULE
3zrm_ZRM_A_1.pdb
 23 26 0 0 0
SMALL
GASTEIGER

@<TRIPOS>ATOM
      1  C4       108.4140   21.0740  -11.7200 C.ar  1388  ZRM1388     0.0033
      2  C6       108.3530   23.4530  -11.7750 C.ar  1388  ZRM1388     0.0033
      3  C3       109.6950   21.0790  -12.2320 C.ar  1388  ZRM1388     0.0420
      4  C7       109.6310   23.4750  -12.2950 C.ar  1388  ZRM1388     0.0420
      5  C19      104.0540   27.0970  -12.9880 C.ar  1388  ZRM1388     0.0212
      6  C23      101.9920   26.5690  -11.9280 C.ar  1388  ZRM1388     0.0212
      7  C14      103.2510   24.1130  -10.8430 C.ar  1388  ZRM1388     0.0186
      8  C20      103.4690   28.2740  -13.4050 C.ar  1388  ZRM1388     0.0989
      9  C22      101.5010   27.7690  -12.4050 C.ar  1388  ZRM1388     0.0989
     10  C18      103.2930   26.2270  -12.2310 C.ar  1388  ZRM1388     0.0091
     11  C5       107.7310   22.2530  -11.4860 C.ar  1388  ZRM1388     0.0022
     12  C13      104.1050   23.0400  -10.4930 C.ar  1388  ZRM1388     0.0896
     13  C2       110.2940   22.2840  -12.5150 C.ar  1388  ZRM1388     0.1957
     14  C15      103.8430   25.0030  -11.7150 C.ar  1388  ZRM1388     0.0303
     15  C17      105.3400   23.1230  -11.0930 C.ar  1388  ZRM1388     0.0419
     16  C9       106.0750   21.2160  -10.0860 C.2   1388  ZRM1388     0.1115
     17  C8       106.3830   22.2160  -10.9190 C.2   1388  ZRM1388     0.0267
     18  C11      103.7990   21.9620   -9.6030 C.1   1388  ZRM1388     0.1550
     19  N21      102.2090   28.6420  -13.1320 N.ar  1388  ZRM1388    -0.2423
     20  N10      104.8520   21.0810   -9.4680 N.2   1388  ZRM1388    -0.1747
     21  O12      102.7090   21.8670   -9.0520 O.2   1388  ZRM1388    -0.2219
     22  O1       111.5720   22.2830  -13.0310 O.3   1388  ZRM1388    -0.2866
     23  S16      105.4480   24.5050  -12.1080 S.2   1388  ZRM1388    -0.0861
@<TRIPOS>BOND
     1     8    19   ar
     2     8     5   ar
     3    19     9   ar
     4    22    13    1
     5     5    10   ar
     6    13     4   ar
     7    13     3   ar
     8     9     6   ar
     9     4     2   ar
    10     3     1   ar
    11    10     6   ar
    12    10    14    1
    13    23    14   ar
    14    23    15   ar
    15     2    11   ar
    16     1    11   ar
    17    14     7   ar
    18    11    17    1
    19    15    17    1
    20    15    12   ar
    21    17    16    2
    22     7    12   ar
    23    12    18    1
    24    16    20    1
    25    18    20    2
    26    18    21    2
