@<TRIPOS>MOLECULE
3zrp_PLP_A_1.pdb
 15 15 0 0 0
SMALL
GASTEIGER

@<TRIPOS>ATOM
      1  N1       -24.0960  -23.1530  -19.2080 N.2   1189  PLP1189    -0.2458
      2  C2       -24.6250  -22.9660  -17.9510 C.2   1189  PLP1189     0.0942
      3  C2A      -25.8360  -23.7660  -17.5480 C.3   1189  PLP1189     0.0552
      4  C3       -24.0310  -22.0560  -17.0480 C.2   1189  PLP1189     0.1899
      5  O3       -24.4900  -21.9310  -15.9160 O.2   1189  PLP1189    -0.2898
      6  C4       -22.8930  -21.3320  -17.4210 C.3   1189  PLP1189     0.0852
      7  C4A      -22.2510  -20.3810  -16.4040 C.3   1189  PLP1189     0.0127
      8  C5       -22.3970  -21.5330  -18.7270 C.2   1189  PLP1189     0.0118
      9  C6       -22.9840  -22.4640  -19.6090 C.2   1189  PLP1189     0.0929
     10  C5A      -21.1950  -20.8090  -19.2580 C.3   1189  PLP1189     0.1779
     11  O4P      -19.9680  -21.1760  -18.6220 O.3   1189  PLP1189    -0.2656
     12  P        -18.6760  -20.2570  -18.6370 P.3   1189  PLP1189     0.5329
     13  O1P      -17.7090  -21.0830  -17.8480 O.3   1189  PLP1189    -0.1145
     14  O2P      -19.1400  -19.0240  -17.9360 O.3   1189  PLP1189    -0.1145
     15  O3P      -18.3750  -20.0940  -20.0850 O.2   1189  PLP1189    -0.2224
@<TRIPOS>BOND
     1    15    12    2
     2     9     1    1
     3     9     8    2
     4    10     8    1
     5    10    11    1
     6     1     2    2
     7     8     6    1
     8    12    11    1
     9    12    14    1
    10    12    13    1
    11     2     3    1
    12     2     4    1
    13     6     4    1
    14     6     7    1
    15     4     5    2
