@<TRIPOS>MOLECULE
3zrq_PMP_A_1.pdb
 16 16 0 0 0
SMALL
GASTEIGER

@<TRIPOS>ATOM
      1  N1        23.8840   -2.8680   19.5250 N.ar  500  PMP500     -0.2452
      2  C2        24.4470   -2.5480   18.3270 C.ar  500  PMP500      0.0978
      3  C2A       25.6250   -3.3680   17.8770 C.3   500  PMP500      0.0555
      4  C3        23.8570   -1.5990   17.4870 C.ar  500  PMP500      0.2063
      5  O3        24.3550   -1.4190   16.2380 O.3   500  PMP500     -0.2856
      6  C4        22.7740   -0.8610   17.9920 C.ar  500  PMP500      0.0369
      7  C4A       22.2830    0.3870   17.3120 C.3   500  PMP500      0.1386
      8  N4A       21.9990    0.1420   15.9590 N.3   500  PMP500     -0.1261
      9  C5        22.2300   -1.1910   19.2440 C.ar  500  PMP500      0.0275
     10  C6        22.8050   -2.1940   20.0090 C.ar  500  PMP500      0.0965
     11  C5A       20.9940   -0.5090   19.8190 C.3   500  PMP500      0.1816
     12  O4P       19.8860   -0.8620   18.9970 O.3   500  PMP500     -0.2653
     13  P         18.6030    0.1130   18.9410 P.3   500  PMP500      0.5329
     14  O1P       19.0010    1.4400   18.3310 O.3   500  PMP500     -0.1145
     15  O2P       18.0840    0.3150   20.3540 O.3   500  PMP500     -0.1145
     16  O3P       17.6060   -0.6270   18.0900 O.2   500  PMP500     -0.2224
@<TRIPOS>BOND
     1     8     7    1
     2     5     4    1
     3     7     6    1
     4     4     6   ar
     5     4     2   ar
     6     3     2    1
     7     6     9   ar
     8    16    13    2
     9     2     1   ar
    10    14    13    1
    11    13    12    1
    12    13    15    1
    13    12    11    1
    14     9    11    1
    15     9    10   ar
    16     1    10   ar
