@<TRIPOS>MOLECULE
3zrr_PXG_A_1.pdb
 25 26 0 0 0
SMALL
GASTEIGER

@<TRIPOS>ATOM
      1  N1       -23.5430  -23.3370  -19.3620 N.ar  470  PXG470     -0.2452
      2  C2       -24.0500  -23.1410  -18.1260 C.ar  470  PXG470      0.0978
      3  C2A      -25.2420  -23.9560  -17.6620 C.3   470  PXG470      0.0555
      4  C3       -23.4540  -22.1980  -17.2770 C.ar  470  PXG470      0.2065
      5  O3       -23.9720  -22.0350  -16.0350 O.3   470  PXG470     -0.2856
      6  C5       -21.8570  -21.6720  -18.9800 C.ar  470  PXG470      0.0278
      7  C6       -22.4670  -22.6390  -19.8080 C.ar  470  PXG470      0.0965
      8  C5A      -20.6510  -20.8780  -19.5020 C.3   470  PXG470      0.1816
      9  OP4      -19.5120  -21.2450  -18.7200 O.3   470  PXG470     -0.2653
     10  P        -18.2010  -20.3520  -18.7400 P.3   470  PXG470      0.5329
     11  OP1      -17.2570  -21.1510  -17.8830 O.3   470  PXG470     -0.1145
     12  OP2      -18.6380  -18.9970  -18.1990 O.3   470  PXG470     -0.1145
     13  OP3      -17.8840  -20.3040  -20.2210 O.2   470  PXG470     -0.2224
     14  C4       -22.3510  -21.4620  -17.6970 C.ar  470  PXG470      0.0394
     15  C4A      -21.6640  -20.4380  -16.8060 C.3   470  PXG470      0.1415
     16  C7       -24.5180  -16.1430  -13.4850 C.2   470  PXG470      0.3878
     17  C8       -23.3620  -16.8080  -14.1720 C.ar  470  PXG470      0.0810
     18  O2       -24.9310  -15.0380  -13.9230 O.co2 470  PXG470     -0.2406
     19  C9       -23.4420  -18.1470  -14.5810 C.ar  470  PXG470      0.0227
     20  C10      -22.3590  -18.7490  -15.2240 C.ar  470  PXG470      0.0659
     21  C11      -21.2050  -17.9900  -15.4310 C.ar  470  PXG470      0.0161
     22  C12      -21.1190  -16.6550  -15.0160 C.ar  470  PXG470      0.0015
     23  C13      -22.2050  -16.0680  -14.3840 C.ar  470  PXG470      0.0067
     24  O8       -25.0140  -16.7150  -12.4820 O.co2 470  PXG470     -0.2406
     25  N9       -22.4160  -20.0420  -15.6340 N.pl3 470  PXG470     -0.2327
@<TRIPOS>BOND
     1    13    10    2
     2     7     1   ar
     3     7     6   ar
     4     8     6    1
     5     8     9    1
     6     1     2   ar
     7     6    14   ar
     8    10     9    1
     9    10    12    1
    10    10    11    1
    11     2     3    1
    12     2     4   ar
    13    14     4   ar
    14    14    15    1
    15     4     5    1
    16    15    25    1
    17    25    20    1
    18    21    20   ar
    19    21    22   ar
    20    20    19   ar
    21    22    23   ar
    22    19    17   ar
    23    23    17   ar
    24    17    16    1
    25    18    16   ar
    26    16    24   ar
