@<TRIPOS>MOLECULE
3zry_ANP_A_1.pdb
 31 33 0 0 0
SMALL
GASTEIGER

@<TRIPOS>ATOM
      1  N1        -6.1900  -42.7420   17.8920 N.2   600  ANP600      0.0021
      2  C2        -5.0560  -43.4300   18.1640 C.3   600  ANP600      0.5254
      3  N3        -3.8710  -43.0950   17.5610 N.2   600  ANP600     -0.0055
      4  C4        -3.8020  -42.0670   16.6810 C.2   600  ANP600      0.3518
      5  C5        -4.9950  -41.3570   16.4030 C.2   600  ANP600      0.2526
      6  C6        -6.1810  -41.7240   17.0330 C.2   600  ANP600      0.4393
      7  N6        -7.3900  -40.9950   16.7470 N.pl3 600  ANP600      0.2180
      8  N7        -4.7030  -40.4010   15.5200 N.2   600  ANP600     -0.2095
      9  C8        -3.4140  -40.4670   15.2250 C.3   600  ANP600      0.3377
     10  PA         0.7190  -39.4650   13.1360 P.3   600  ANP600      0.2220
     11  PB         1.9780  -37.3420   12.5500 P.3   600  ANP600      0.4669
     12  PG         4.5340  -37.4510   11.7750 P.3   600  ANP600      0.4884
     13  C1'        0.7140  -41.5270   16.3080 C.3   600  ANP600      0.1821
     14  O1A        2.0110  -40.1360   13.0400 O.3   600  ANP600     -0.4370
     15  O1B        1.7070  -38.1210   11.3610 O.2   600  ANP600     -0.2351
     16  O1G        3.8260  -36.6770   10.6190 O.2   600  ANP600     -0.2331
     17  C2'        0.5940  -42.9230   15.7760 C.3   600  ANP600      0.2184
     18  O2'        1.3910  -43.1130   14.6620 O.3   600  ANP600     -0.2174
     19  O2A        0.3680  -39.9770   14.4720 O.3   600  ANP600     -0.3111
     20  O2B        1.7680  -35.7950   12.5160 O.3   600  ANP600     -0.1253
     21  O2G        5.2890  -38.6310   11.2570 O.3   600  ANP600     -0.1240
     22  C3'       -0.8410  -43.0770   15.4540 C.3   600  ANP600      0.2570
     23  O3'       -1.4100  -44.0710   16.2230 O.3   600  ANP600     -0.2130
     24  O3A        1.2230  -38.1520   13.4980 O.3   600  ANP600     -0.2360
     25  N3B        3.3850  -37.9330   12.8780 N.3   600  ANP600     -0.0163
     26  O3G        5.4870  -36.4530   12.4890 O.3   600  ANP600     -0.1240
     27  C4'       -1.3720  -41.6990   15.7130 C.3   600  ANP600      0.3186
     28  O4'       -0.5760  -41.0880   16.7090 O.3   600  ANP600     -0.3135
     29  O5'       -0.3070  -39.6010   11.9660 O.2   600  ANP600     -0.5170
     30  C5'        1.3320  -40.5710   15.2980 C.3   600  ANP600      0.1813
     31  N9        -2.8180  -41.4600   15.8930 N.pl3 600  ANP600     -0.1439
@<TRIPOS>BOND
     1    16    12    2
     2    21    12    1
     3    15    11    2
     4    12    26    1
     5    12    25    1
     6    29    10    2
     7    20    11    1
     8    11    25    1
     9    11    24    1
    10    14    10    1
    11    10    24    1
    12    10    19    1
    13    19    30    1
    14    18    17    1
    15     9     8    1
    16     9    31    1
    17    30    13    1
    18    22    27    1
    19    22    17    1
    20    22    23    1
    21     8     5    2
    22    27    31    1
    23    27    28    1
    24    17    13    1
    25    31     4    1
    26    13    28    1
    27     5     4    1
    28     5     6    1
    29     4     3    2
    30     7     6    1
    31     6     1    2
    32     3     2    1
    33     1     2    1
