@<TRIPOS>MOLECULE
3zry_III_I_3.pdb
 45 44 0 0 0
SMALL
GASTEIGER

@<TRIPOS>ATOM
      1  N          3.2700  -22.7120   75.5820 N.3    53  ALA53      -0.1231
      2  CA         3.8270  -23.1960   74.3240 C.3    53  ALA53       0.1694
      3  C          3.1320  -24.4640   73.8400 C.2    53  ALA53       0.2592
      4  O          2.2380  -24.4090   72.9950 O.2    53  ALA53      -0.2718
      5  CB         5.3300  -23.4110   74.4500 C.3    53  ALA53       0.0304
      6  N          3.5500  -25.6060   74.3760 N.am   54  SER54      -0.1966
      7  CA         2.9950  -26.8900   73.9640 C.3    54  SER54       0.1728
      8  C          1.4910  -26.9720   74.2090 C.2    54  SER54       0.2616
      9  O          0.9500  -26.2610   75.0540 O.2    54  SER54      -0.2715
     10  CB         3.7240  -28.0450   74.6570 C.3    54  SER54       0.0334
     11  N          0.8260  -27.8440   73.4600 N.am   55  GLU55      -0.1963
     12  CA        -0.6290  -27.9410   73.4930 C.3    55  GLU55       0.1728
     13  C         -1.1140  -28.8940   74.5820 C.2    55  GLU55       0.2616
     14  O         -0.5290  -28.9630   75.6630 O.2    55  GLU55      -0.2715
     15  CB        -1.1840  -28.3360   72.1220 C.3    55  GLU55       0.0334
     16  N         -2.1960  -29.6300   74.2920 N.am   56  PRO56      -0.1963
     17  CA        -2.7820  -30.7100   75.0930 C.3    56  PRO56       0.1728
     18  C         -3.2180  -31.8910   74.2320 C.2    56  PRO56       0.2616
     19  O         -2.6920  -32.9940   74.3810 O.2    56  PRO56      -0.2715
     20  CB        -3.9420  -30.0280   75.8250 C.3    56  PRO56       0.0334
     21  N         -4.1670  -31.6430   73.3340 N.am   57  THR57      -0.1963
     22  CA        -4.6270  -32.6460   72.3800 C.3    57  THR57       0.1728
     23  C         -5.7460  -32.0810   71.5120 C.2    57  THR57       0.2616
     24  O         -6.3660  -31.0790   71.8670 O.2    57  THR57      -0.2715
     25  CB        -5.1260  -33.9220   73.0850 C.3    57  THR57       0.0334
     26  N         -6.0060  -32.7260   70.3650 N.am   58  PRO58      -0.1963
     27  CA        -7.0680  -32.2430   69.4750 C.3    58  PRO58       0.1728
     28  C         -8.4000  -32.9700   69.6500 C.2    58  PRO58       0.2616
     29  O         -8.4200  -34.1390   70.0360 O.2    58  PRO58      -0.2715
     30  CB        -6.4640  -32.3980   68.0740 C.3    58  PRO58       0.0334
     31  N         -9.4970  -32.2770   69.3640 N.am   59  MET59      -0.1963
     32  CA       -10.8260  -32.8730   69.4280 C.3    59  MET59       0.1728
     33  C        -11.8380  -32.0210   68.6710 C.2    59  MET59       0.2616
     34  O        -11.6980  -30.8010   68.5970 O.2    59  MET59      -0.2715
     35  CB       -11.2660  -33.0570   70.8820 C.3    59  MET59       0.0334
     36  N        -12.8550  -32.6650   68.1090 N.am   60  THR60      -0.1963
     37  CA       -13.9270  -31.9340   67.4460 C.3    60  THR60       0.1728
     38  C        -14.7130  -31.1160   68.4650 C.2    60  THR60       0.2616
     39  O        -14.9430  -31.5650   69.5870 O.2    60  THR60      -0.2715
     40  CB       -14.8760  -32.8780   66.6820 C.3    60  THR60       0.0334
     41  N        -15.1150  -29.9120   68.0670 N.am   61  LYS61      -0.1977
     42  CA       -15.7460  -28.9640   68.9830 C.3    61  LYS61       0.1597
     43  C        -16.8460  -29.5930   69.8350 C.2    61  LYS61       0.2287
     44  O        -17.6630  -30.3690   69.3390 O.2    61  LYS61      -0.2864
     45  CB       -16.2620  -27.7350   68.2280 C.3    61  LYS61       0.0319
@<TRIPOS>BOND
     1    40    37    1
     2    37    36    1
     3    37    38    1
     4    41    38   am
     5    41    42    1
     6    30    27    1
     7    36    33   am
     8    45    42    1
     9    38    39    2
    10    34    33    2
    11    33    32    1
    12    42    43    1
    13    44    43    2
    14    31    32    1
    15    31    28   am
    16    32    35    1
    17    27    28    1
    18    27    26    1
    19    28    29    2
    20    26    23   am
    21    23    24    2
    22    23    22    1
    23    15    12    1
    24    22    25    1
    25    22    21    1
    26     4     3    2
    27    21    18   am
    28    11    12    1
    29    11     8   am
    30    12    13    1
    31     3     2    1
    32     3     6   am
    33     7     8    1
    34     7     6    1
    35     7    10    1
    36     8     9    2
    37    18    19    2
    38    18    17    1
    39    16    13   am
    40    16    17    1
    41     2     5    1
    42     2     1    1
    43    13    14    2
    44    17    20    1
