@<TRIPOS>MOLECULE
3zs0_MAN_C_1.pdb
 11 11 0 0 0
SMALL
GASTEIGER

@<TRIPOS>ATOM
      1  C1        10.2830  -10.6950   34.1560 C.3   1588  MAN1588     0.1777
      2  C2         9.1510  -11.3240   33.3530 C.3   1588  MAN1588     0.2141
      3  C3         9.6850  -11.8320   32.0090 C.3   1588  MAN1588     0.2173
      4  C4        10.3950  -10.7320   31.2210 C.3   1588  MAN1588     0.2142
      5  C5        11.4760  -10.0990   32.1060 C.3   1588  MAN1588     0.1810
      6  C6        12.2090   -8.9310   31.4340 C.3   1588  MAN1588     0.2141
      7  O2         8.1430  -10.3590   33.1370 O.3   1588  MAN1588    -0.2176
      8  O3         8.6050  -12.3340   31.2570 O.3   1588  MAN1588    -0.2175
      9  O4        10.9400  -11.3030   30.0470 O.3   1588  MAN1588    -0.2176
     10  O5        10.9060   -9.6850   33.3510 O.3   1588  MAN1588    -0.3481
     11  O6        11.3360   -7.8550   31.1410 O.3   1588  MAN1588    -0.2176
@<TRIPOS>BOND
     1     9     4    1
     2    11     6    1
     3     4     3    1
     4     4     5    1
     5     8     3    1
     6     6     5    1
     7     3     2    1
     8     5    10    1
     9     7     2    1
    10    10     1    1
    11     2     1    1
