@<TRIPOS>MOLECULE
3zs0_ZS0_C_1.pdb
 19 21 0 0 0
SMALL
GASTEIGER

@<TRIPOS>ATOM
      1  C1        -3.4910   19.6170   17.2480 C.2   1579  ZS01579     0.2585
      2  C2        -2.6610   18.9450   16.3450 C.2   1579  ZS01579     0.3643
      3  N3        -1.4050   19.4570   16.5500 N.2   1579  ZS01579    -0.0332
      4  C4        -1.4810   20.3960   17.5450 C.3   1579  ZS01579     0.3928
      5  N5        -2.7160   20.4840   17.9540 N.2   1579  ZS01579    -0.1992
      6  N6        -5.3630   18.3540   16.3530 N.2   1579  ZS01579    -0.2516
      7  C7        -4.5330   17.7160   15.4870 C.1   1579  ZS01579     0.2007
      8  N8        -3.1990   17.9990   15.4780 N.am  1579  ZS01579    -0.1035
      9  C9        -4.9230   19.2850   17.2470 C.1   1579  ZS01579     0.2408
     10  O10       -5.6940   19.8520   18.0180 O.2   1579  ZS01579    -0.2068
     11  S11       -5.2150   16.5350   14.3980 S.2   1579  ZS01579     0.0668
     12  C12       -2.2760   17.2900   14.5760 C.3   1579  ZS01579     0.2457
     13  C13       -2.2400   17.8010   13.1600 C.ar  1579  ZS01579     0.0256
     14  C14       -2.0430   19.1580   12.9170 C.ar  1579  ZS01579     0.0020
     15  C15       -1.9990   19.6050   11.6070 C.ar  1579  ZS01579     0.0294
     16  C16       -2.1530   18.6910   10.5590 C.ar  1579  ZS01579     0.1401
     17  C17       -2.3490   17.3320   10.8020 C.ar  1579  ZS01579     0.0294
     18  C18       -2.3970   16.8880   12.1170 C.ar  1579  ZS01579     0.0020
     19  F19       -2.1010   19.1410    9.2930 F     1579  ZS01579    -0.2042
@<TRIPOS>BOND
     1    19    16    1
     2    16    17   ar
     3    16    15   ar
     4    17    18   ar
     5    15    14   ar
     6    18    13   ar
     7    14    13   ar
     8    13    12    1
     9    11     7    2
    10    12     8    1
    11     8     7    1
    12     8     2    1
    13     7     6    2
    14     2     3    2
    15     2     1    1
    16     6     9    2
    17     3     4    1
    18     9     1    1
    19     9    10    2
    20     1     5    2
    21     4     5    1
