@<TRIPOS>MOLECULE
3zs0_HEM_C_1.pdb
 43 50 0 0 0
SMALL
GASTEIGER

@<TRIPOS>ATOM
      1  CHA       -5.4900   12.6070   18.5060 C.2   1580  HEM1580     0.0000
      2  CHB       -9.0250   15.3820   16.7680 C.2   1580  HEM1580     0.0000
      3  CHC      -12.1890   13.3350   19.9150 C.2   1580  HEM1580     0.0000
      4  CHD       -8.5390   10.7140   21.8200 C.2   1580  HEM1580     0.0000
      5  C1A       -6.2230   13.5240   17.6860 C.ar  1580  HEM1580     0.0000
      6  C2A       -5.6210   14.2670   16.6700 C.ar  1580  HEM1580     0.0000
      7  C3A       -6.6520   15.0600   16.1920 C.ar  1580  HEM1580     0.0000
      8  C4A       -7.7520   14.7090   16.9610 C.ar  1580  HEM1580     0.0000
      9  CMA       -6.6060   16.0750   15.0780 C.3   1580  HEM1580     0.0000
     10  CAA       -4.1820   14.2000   16.1760 C.3   1580  HEM1580     0.0000
     11  CBA       -4.2520   13.3650   14.8760 C.3   1580  HEM1580     0.0000
     12  CGA       -2.8770   12.9970   14.3600 C.2   1580  HEM1580     0.0000
     13  O1A       -2.3630   13.7090   13.4680 O.co2 1580  HEM1580     0.0000
     14  O2A       -2.2870   11.9970   14.8500 O.co2 1580  HEM1580     0.0000
     15  C1B      -10.2160   15.1810   17.5860 C.2   1580  HEM1580     0.0000
     16  C2B      -11.4390   16.0290   17.4770 C.2   1580  HEM1580     0.0000
     17  C3B      -12.3050   15.4090   18.3700 C.2   1580  HEM1580     0.0000
     18  C4B      -11.5810   14.2670   18.9580 C.2   1580  HEM1580     0.0000
     19  CMB      -11.6330   17.2510   16.5980 C.3   1580  HEM1580     0.0000
     20  CAB      -13.7030   15.7650   18.7540 C.3   1580  HEM1580     0.0000
     21  CBB      -14.2630   17.1600   18.6640 C.3   1580  HEM1580     0.0000
     22  C1C      -11.5110   12.3460   20.7400 C.ar  1580  HEM1580     0.0000
     23  C2C      -12.1980   11.4970   21.7540 C.ar  1580  HEM1580     0.0000
     24  C3C      -11.1370   10.7440   22.2840 C.ar  1580  HEM1580     0.0000
     25  C4C       -9.9080   11.1750   21.5630 C.ar  1580  HEM1580     0.0000
     26  CMC      -13.6730   11.5060   22.0460 C.3   1580  HEM1580     0.0000
     27  CAC      -11.1030    9.7240   23.3650 C.3   1580  HEM1580     0.0000
     28  CBC      -12.2570    8.8800   23.8100 C.3   1580  HEM1580     0.0000
     29  C1D       -7.2770   11.1730   21.1970 C.2   1580  HEM1580     0.0000
     30  C2D       -5.8910   10.8880   21.6940 C.2   1580  HEM1580     0.0000
     31  C3D       -5.0150   11.4390   20.7740 C.2   1580  HEM1580     0.0000
     32  C4D       -5.9340   12.0250   19.7650 C.2   1580  HEM1580     0.0000
     33  CMD       -5.4910   10.1680   22.9490 C.3   1580  HEM1580     0.0000
     34  CAD       -3.4920   11.4760   20.8330 C.3   1580  HEM1580     0.0000
     35  CBD       -3.0650   12.6740   21.7090 C.3   1580  HEM1580     0.0000
     36  CGD       -1.5650   12.9310   21.7770 C.2   1580  HEM1580     0.0000
     37  O1D       -1.0700   13.9150   21.1630 O.co2 1580  HEM1580     0.0000
     38  O2D       -0.8360   12.1660   22.4490 O.co2 1580  HEM1580     0.0000
     39  NA        -7.5380   13.6560   17.7730 N.ar  1580  HEM1580     0.0000
     40  NB       -10.3180   14.2250   18.5160 N.2   1580  HEM1580     0.0000
     41  NC       -10.2290   12.0260   20.5980 N.ar  1580  HEM1580     0.0000
     42  ND        -7.2230   11.8760   20.0750 N.2   1580  HEM1580     0.0000
     43 FE         -8.9020   12.7840   19.1640 Fe    1580  HEM1580     0.0000
@<TRIPOS>BOND
     1    13    12   ar
     2    12    14   ar
     3    12    11    1
     4    11    10    1
     5     9     7    1
     6    10     6    1
     7     7     6   ar
     8     7     8   ar
     9    19    16    1
    10     6     5   ar
    11     2     8    2
    12     2    15    1
    13     8    39   ar
    14    16    15    1
    15    16    17    2
    16    15    40    2
    17     5    39   ar
    18     5     1    2
    19    39    43    1
    20    17    20    1
    21    17    18    1
    22     1    32    1
    23    40    18    1
    24    40    43    1
    25    21    20    1
    26    18     3    2
    27    43    42    1
    28    43    41    1
    29    32    42    2
    30    32    31    1
    31     3    22    1
    32    42    29    1
    33    41    22   ar
    34    41    25   ar
    35    22    23   ar
    36    31    34    1
    37    31    30    2
    38    34    35    1
    39    37    36   ar
    40    29    30    1
    41    29     4    2
    42    25     4    1
    43    25    24   ar
    44    30    33    1
    45    35    36    1
    46    23    26    1
    47    23    24   ar
    48    36    38   ar
    49    24    27    1
    50    27    28    1
