@<TRIPOS>MOLECULE
3zs1_PVW_A_1.pdb
 15 16 0 0 0
SMALL
GASTEIGER

@<TRIPOS>ATOM
      1  C1        -3.2070   19.6670   12.7380 C.3   606  PVW606      0.1743
      2  O2        -2.8070   18.3850   13.1970 O.3   606  PVW606     -0.3466
      3  C3        -1.8480   18.5990   14.2230 C.3   606  PVW606      0.1941
      4  C4        -2.1780   17.7560   15.4420 C.3   606  PVW606      0.2506
      5  N5        -3.2740   18.2970   16.2260 N.am  606  PVW606     -0.1052
      6  C6        -3.1200   19.3110   17.1520 C.2   606  PVW606      0.3641
      7  C7        -4.1910   19.7860   17.8590 C.2   606  PVW606      0.2585
      8  C8        -5.5250   19.3220   17.7440 C.1   606  PVW606      0.2408
      9  O9        -6.4670   19.7600   18.3890 O.2   606  PVW606     -0.2068
     10  N10       -5.6060   18.3120   16.8080 N.2   606  PVW606     -0.2516
     11  C11       -4.5540   17.7960   16.0580 C.1   606  PVW606      0.2005
     12  S12       -4.8400   16.5790   14.9580 S.2   606  PVW606      0.0668
     13  N13       -3.6830   20.7640   18.6590 N.2   606  PVW606     -0.1992
     14  C14       -2.3410   20.8320   18.4010 C.3   606  PVW606      0.3928
     15  N15       -1.9590   19.9610   17.4870 N.2   606  PVW606     -0.0332
@<TRIPOS>BOND
     1     1     2    1
     2     2     3    1
     3     3     4    1
     4    12    11    2
     5     4     5    1
     6    11     5    1
     7    11    10    2
     8     5     6    1
     9    10     8    2
    10     6    15    2
    11     6     7    1
    12    15    14    1
    13     8     7    1
    14     8     9    2
    15     7    13    2
    16    14    13    1
