@<TRIPOS>MOLECULE
3zs1_HEM_A_1.pdb
 43 50 0 0 0
SMALL
GASTEIGER

@<TRIPOS>ATOM
      1  CHA       -5.4730   12.5580   18.6960 C.2   605  HEM605      0.0000
      2  CHB       -9.0610   15.1980   16.7880 C.2   605  HEM605      0.0000
      3  CHC      -12.2130   13.2550   19.9170 C.2   605  HEM605      0.0000
      4  CHD       -8.6100   10.5970   21.7540 C.2   605  HEM605      0.0000
      5  C1A       -6.1930   13.4020   17.7560 C.ar  605  HEM605      0.0000
      6  C2A       -5.6230   14.0460   16.6620 C.ar  605  HEM605      0.0000
      7  C3A       -6.6740   14.8170   16.1360 C.ar  605  HEM605      0.0000
      8  C4A       -7.7600   14.5720   16.9500 C.ar  605  HEM605      0.0000
      9  CMA       -6.7160   15.7370   14.9420 C.3   605  HEM605      0.0000
     10  CAA       -4.1790   13.8990   16.1870 C.3   605  HEM605      0.0000
     11  CBA       -4.1800   13.1750   14.8390 C.3   605  HEM605      0.0000
     12  CGA       -2.7810   12.9800   14.3070 C.2   605  HEM605      0.0000
     13  O1A       -2.2900   13.8400   13.5570 O.co2 605  HEM605      0.0000
     14  O2A       -2.1520   11.9460   14.6200 O.co2 605  HEM605      0.0000
     15  C1B      -10.1920   15.0910   17.7090 C.2   605  HEM605      0.0000
     16  C2B      -11.4440   15.8190   17.4440 C.2   605  HEM605      0.0000
     17  C3B      -12.3070   15.3100   18.4000 C.2   605  HEM605      0.0000
     18  C4B      -11.5410   14.3110   19.1680 C.2   605  HEM605      0.0000
     19  CMB      -11.5520   16.9720   16.4600 C.3   605  HEM605      0.0000
     20  CAB      -13.7380   15.6210   18.6890 C.3   605  HEM605      0.0000
     21  CBB      -14.2940   17.0090   18.6180 C.3   605  HEM605      0.0000
     22  C1C      -11.5440   12.2490   20.7010 C.ar  605  HEM605      0.0000
     23  C2C      -12.2200   11.3270   21.6530 C.ar  605  HEM605      0.0000
     24  C3C      -11.1530   10.5450   22.1260 C.ar  605  HEM605      0.0000
     25  C4C       -9.9450   11.0600   21.4750 C.ar  605  HEM605      0.0000
     26  CMC      -13.6920   11.2820   21.9560 C.3   605  HEM605      0.0000
     27  CAC      -11.0680    9.4800   23.1500 C.3   605  HEM605      0.0000
     28  CBC      -12.2310    8.9740   23.9180 C.3   605  HEM605      0.0000
     29  C1D       -7.3780   11.2680   21.3730 C.2   605  HEM605      0.0000
     30  C2D       -6.0720   10.7180   21.7870 C.2   605  HEM605      0.0000
     31  C3D       -5.1910   11.1870   20.8360 C.2   605  HEM605      0.0000
     32  C4D       -6.0160   12.0130   19.9360 C.2   605  HEM605      0.0000
     33  CMD       -5.8380    9.8650   23.0150 C.3   605  HEM605      0.0000
     34  CAD       -3.6830   11.1220   20.8010 C.3   605  HEM605      0.0000
     35  CBD       -3.3330   12.4090   21.5870 C.3   605  HEM605      0.0000
     36  CGD       -1.8620   12.7570   21.7980 C.2   605  HEM605      0.0000
     37  O1D       -1.3400   13.7340   21.1920 O.co2 605  HEM605      0.0000
     38  O2D       -1.1930   12.0930   22.6050 O.co2 605  HEM605      0.0000
     39  NA        -7.4940   13.6490   17.8600 N.ar  605  HEM605      0.0000
     40  NB       -10.2670   14.2770   18.7610 N.2   605  HEM605      0.0000
     41  NC       -10.2390   11.9820   20.5740 N.ar  605  HEM605      0.0000
     42  ND        -7.2830   12.0730   20.3370 N.2   605  HEM605      0.0000
     43 FE         -8.8760   12.7770   19.1910 Fe    605  HEM605      0.0000
@<TRIPOS>BOND
     1    13    12   ar
     2    12    14   ar
     3    12    11    1
     4    11    10    1
     5     9     7    1
     6     7     6   ar
     7     7     8   ar
     8    10     6    1
     9    19    16    1
    10     6     5   ar
    11     2     8    2
    12     2    15    1
    13     8    39   ar
    14    16    15    1
    15    16    17    2
    16    15    40    2
    17     5    39   ar
    18     5     1    2
    19    39    43    1
    20    17    20    1
    21    17    18    1
    22    21    20    1
    23     1    32    1
    24    40    18    1
    25    40    43    1
    26    18     3    2
    27    43    42    1
    28    43    41    1
    29     3    22    1
    30    32    42    2
    31    32    31    1
    32    42    29    1
    33    41    22   ar
    34    41    25   ar
    35    22    23   ar
    36    34    31    1
    37    34    35    1
    38    31    30    2
    39    37    36   ar
    40    29     4    2
    41    29    30    1
    42    25     4    1
    43    25    24   ar
    44    35    36    1
    45    23    26    1
    46    23    24   ar
    47    30    33    1
    48    36    38   ar
    49    24    27    1
    50    27    28    1
