@<TRIPOS>MOLECULE
3zs1_FUC_C_1.pdb
 10 10 0 0 0
SMALL
GASTEIGER

@<TRIPOS>ATOM
      1  C1         2.9880   -4.7730   37.8540 C.3   1645  FUC1645     0.1776
      2  C2         2.3070   -6.1420   37.7100 C.3   1645  FUC1645     0.2141
      3  C3         1.1310   -6.1830   38.6860 C.3   1645  FUC1645     0.2172
      4  C4         0.1390   -5.0720   38.3360 C.3   1645  FUC1645     0.2116
      5  C5         0.8420   -3.7070   38.1800 C.3   1645  FUC1645     0.1483
      6  C6        -0.1040   -2.6840   37.5550 C.3   1645  FUC1645     0.0349
      7  O2         3.1900   -7.2030   37.9860 O.3   1645  FUC1645    -0.2176
      8  O3         0.5030   -7.4440   38.6460 O.3   1645  FUC1645    -0.2175
      9  O4        -0.5160   -5.4330   37.1350 O.3   1645  FUC1645    -0.2177
     10  O5         2.0680   -3.7740   37.4250 O.3   1645  FUC1645    -0.3508
@<TRIPOS>BOND
     1     9     4    1
     2    10     1    1
     3    10     5    1
     4     6     5    1
     5     2     1    1
     6     2     7    1
     7     2     3    1
     8     5     4    1
     9     4     3    1
    10     8     3    1
