@<TRIPOS>MOLECULE
3zs4_1PR_A_1.pdb
 37 38 0 0 0
SMALL
GASTEIGER

@<TRIPOS>ATOM
      1  O9'        6.6570  -15.3610   -4.0870 O.3   1246  1PR1246    -0.1145
      2  O8'        6.8630  -15.4850   -6.6080 O.2   1246  1PR1246    -0.2224
      3  O'1        8.4840  -14.0570   -5.2920 O.3   1246  1PR1246    -0.1145
      4  O6'        8.6430  -16.5850   -5.1180 O.3   1246  1PR1246    -0.2675
      5  C5'        8.1640  -17.8160   -5.6330 C.3   1246  1PR1246     0.1859
      6  C4'        8.9000  -18.9940   -5.0170 C.3   1246  1PR1246     0.1798
      7  O4'        9.3160  -18.7190   -3.6580 O.3   1246  1PR1246    -0.3353
      8  C3'        7.8430  -20.1110   -4.9530 C.3   1246  1PR1246     0.2155
      9  O3'        8.4050  -21.3070   -5.5270 O.3   1246  1PR1246    -0.2176
     10  C2'        7.5830  -20.2650   -3.4530 C.3   1246  1PR1246     0.2272
     11  O2'        7.2300  -21.6140   -3.1260 O.3   1246  1PR1246    -0.2161
     12  C1'        8.9690  -19.9120   -2.9140 C.3   1246  1PR1246     0.2123
     13  N1         8.9790  -19.7030   -1.4350 N.3   1246  1PR1246    -0.2092
     14  C2         8.7070  -18.5630   -0.7890 C.3   1246  1PR1246     0.2039
     15  N3         8.8190  -18.7470    0.5310 N.2   1246  1PR1246    -0.2491
     16  C4         9.1670  -20.0130    0.7250 C.2   1246  1PR1246     0.1430
     17  C9         9.4180  -20.6920    2.0750 C.2   1246  1PR1246     0.3001
     18  O9         9.9570  -21.8000    2.1330 O.2   1246  1PR1246    -0.2653
     19  N9         9.0190  -19.9960    3.1410 N.am  1246  1PR1246    -0.0826
     20  N6         9.6050  -21.8870   -0.7230 N.3   1246  1PR1246    -0.1789
     21  C5         9.2700  -20.6150   -0.5110 C.3   1246  1PR1246     0.1821
     22  C7        10.4440  -22.2180   -1.8880 C.3   1246  1PR1246     0.1801
     23  C1B        9.9630  -24.5420   -2.0760 C.3   1246  1PR1246     0.1572
     24  C2B       10.3200  -25.7860   -1.2960 C.2   1246  1PR1246     0.2009
     25  C3B       11.1730  -26.8760   -1.9930 C.3   1246  1PR1246     0.2427
     26  C4B       10.7620  -28.3410   -1.6520 C.3   1246  1PR1246     0.2193
     27  C5B       10.7690  -28.5450   -0.1260 C.3   1246  1PR1246     0.1896
     28  N8        11.0030  -23.5600   -1.7720 N.3   1246  1PR1246    -0.1916
     29  O2B        9.9610  -25.8670   -0.1220 O.2   1246  1PR1246    -0.2918
     30  O3B       11.1940  -26.6350   -3.4080 O.3   1246  1PR1246    -0.2122
     31  O4B        9.4990  -28.7570   -2.2140 O.3   1246  1PR1246    -0.2172
     32  O6B        9.7890  -29.4210    0.3580 O.3   1246  1PR1246    -0.2674
     33  P7B       10.2710  -30.6160    1.3200 P.3   1246  1PR1246     0.5327
     34  O'L       11.7000  -30.1900    1.8750 O.3   1246  1PR1246    -0.1145
     35  O8B       10.5190  -31.8320    0.3200 O.2   1246  1PR1246    -0.2224
     36  O9B        9.2790  -30.8540    2.3910 O.3   1246  1PR1246    -0.1145
     37  P7'        7.7220  -15.3170   -5.2660 P.3   1246  1PR1246     0.5327
@<TRIPOS>BOND
     1     2    37    2
     2     5     4    1
     3     5     6    1
     4     9     8    1
     5     3    37    1
     6    37     4    1
     7    37     1    1
     8     6     8    1
     9     6     7    1
    10     8    10    1
    11     7    12    1
    12    10    11    1
    13    10    12    1
    14    30    25    1
    15    12    13    1
    16    31    26    1
    17    23    28    1
    18    23    24    1
    19    25    26    1
    20    25    24    1
    21    22    28    1
    22    22    20    1
    23    26    27    1
    24    13    14    1
    25    13    21    1
    26    24    29    2
    27    14    15    1
    28    20    21    1
    29    21    16    1
    30    27    32    1
    31    35    33    2
    32    32    33    1
    33    15    16    2
    34    16    17    1
    35    33    34    1
    36    33    36    1
    37    17    18    2
    38    17    19   am
