@<TRIPOS>MOLECULE
3zs5_SB2_A_1.pdb
 27 30 0 0 0
SMALL
GASTEIGER

@<TRIPOS>ATOM
      1  O2        21.4950   39.2170   24.6280 O.2   1000  SB21000    -0.2514
      2  C1        20.4710   36.8950   25.3950 C.3   1000  SB21000     0.1110
      3  S1        20.4250   38.3520   24.3140 S.O   1000  SB21000     0.0658
      4  CA1       22.1290   35.8970   21.5670 C.ar  1000  SB21000     0.0126
      5  CA2       21.6760   36.4370   22.7620 C.ar  1000  SB21000     0.0094
      6  CA3       21.0170   37.6520   22.7820 C.ar  1000  SB21000     0.0562
      7  CA4       20.8110   38.3390   21.5990 C.ar  1000  SB21000     0.0094
      8  CA5       21.2680   37.8190   20.3990 C.ar  1000  SB21000     0.0126
      9  CA6       21.9640   36.6100   20.3760 C.ar  1000  SB21000     0.0856
     10  NB1       22.5320   36.6210   12.7700 N.ar  1000  SB21000    -0.2423
     11  CB2       22.7800   37.6150   13.6260 C.ar  1000  SB21000     0.0990
     12  CB3       22.8830   37.3660   14.9820 C.ar  1000  SB21000     0.0233
     13  CB4       22.7400   36.0520   15.4780 C.ar  1000  SB21000     0.0362
     14  CB5       22.4610   35.0450   14.5480 C.ar  1000  SB21000     0.0233
     15  CB6       22.3910   35.3720   13.2070 C.ar  1000  SB21000     0.0990
     16  NC1       22.3030   36.6340   17.8870 N.2   1000  SB21000    -0.3372
     17  CC2       22.4070   36.0200   19.0930 C.1   1000  SB21000     0.1379
     18  NC3       22.8630   34.7900   18.9300 N.2   1000  SB21000    -0.3372
     19  CC4       23.1140   34.5900   17.6100 C.2   1000  SB21000     0.1740
     20  CC5       22.7780   35.7450   16.9230 C.2   1000  SB21000     0.1741
     21  CD1       23.0970   32.0960   17.4960 C.ar  1000  SB21000     0.0050
     22  CD2       23.6360   30.9040   17.0550 C.ar  1000  SB21000     0.0297
     23  CD3       24.7640   30.9210   16.2400 C.ar  1000  SB21000     0.1401
     24  CD4       25.3430   32.1200   15.8660 C.ar  1000  SB21000     0.0297
     25  CD5       24.8140   33.3150   16.2920 C.ar  1000  SB21000     0.0050
     26  CD6       23.6720   33.3100   17.1080 C.ar  1000  SB21000     0.0333
     27  FD3       25.2770   29.7440   15.8080 F     1000  SB21000    -0.2042
@<TRIPOS>BOND
     1    10    15   ar
     2    10    11   ar
     3    15    14   ar
     4    11    12   ar
     5    14    13   ar
     6    12    13   ar
     7    13    20    1
     8    27    23    1
     9    24    23   ar
    10    24    25   ar
    11    23    22   ar
    12    25    26   ar
    13    20    19    1
    14    20    16    2
    15    22    21   ar
    16    26    21   ar
    17    26    19    1
    18    19    18    2
    19    16    17    2
    20    18    17    2
    21    17     9    1
    22     9     8   ar
    23     9     4   ar
    24     8     7   ar
    25     4     5   ar
    26     7     6   ar
    27     5     6   ar
    28     6     3    1
    29     3     1    2
    30     3     2    1
