@<TRIPOS>MOLECULE
3zs6_III_B_1.pdb
 21 20 0 0 0
SMALL
GASTEIGER

@<TRIPOS>ATOM
      1  N         11.6840   -4.0980   17.4870 N.3     1  ASP1       -0.1225
      2  CA        11.3660   -5.5190   17.5680 C.3     1  ASP1        0.1805
      3  C         11.5040   -6.0060   19.0110 C.2     1  ASP1        0.2598
      4  O         12.3230   -5.4820   19.7770 O.2     1  ASP1       -0.2718
      5  CB        12.2470   -6.3340   16.6020 C.3     1  ASP1        0.1424
      6  CG        13.7500   -6.1840   16.8790 C.2     1  ASP1        0.3668
      7  OD1       14.1420   -6.0840   18.0590 O.co2   1  ASP1       -0.2456
      8  OD2       14.5510   -6.1890   15.9070 O.co2   1  ASP1       -0.2456
      9  N         10.6980   -6.9960   19.3860 N.am    2  VAL2       -0.1966
     10  CA        10.7300   -7.5060   20.7520 C.3     2  VAL2        0.1727
     11  C         11.9850   -8.3450   21.0250 C.2     2  VAL2        0.2617
     12  O         12.4560   -9.0860   20.1630 O.2     2  VAL2       -0.2715
     13  CB         9.4590   -8.3170   21.0920 C.3     2  VAL2        0.0290
     14  CG1        8.2530   -7.3980   21.2100 C.3     2  VAL2        0.0023
     15  CG2        9.2140   -9.3760   20.0450 C.3     2  VAL2        0.0023
     16  N         12.5270   -8.2100   22.2310 N.am    3  ALA3       -0.1942
     17  CA        13.6880   -8.9950   22.6520 C.3     3  ALA3        0.1979
     18  C         13.3470   -9.8350   23.8810 C.2     3  ALA3        0.3842
     19  O         13.9110  -10.9030   24.1260 O.co2   3  ALA3       -0.2437
     20  CB        14.8650   -8.0790   22.9520 C.3     3  ALA3        0.0356
     21  OXT       12.4890   -9.4510   24.6690 O.co2   3  ALA3       -0.2437
@<TRIPOS>BOND
     1     8     6   ar
     2     5     6    1
     3     5     2    1
     4     6     7   ar
     5     1     2    1
     6     2     3    1
     7     3     9   am
     8     3     4    2
     9     9    10    1
    10    15    13    1
    11    12    11    2
    12    10    11    1
    13    10    13    1
    14    11    16   am
    15    13    14    1
    16    16    17    1
    17    17    20    1
    18    17    18    1
    19    18    19   ar
    20    18    21   ar
