@<TRIPOS>MOLECULE
3zs7_ATP_A_1.pdb
 31 33 0 0 0
SMALL
GASTEIGER

@<TRIPOS>ATOM
      1  PG        -6.9740   -7.6900  -17.3270 P.3   1301  ATP1301     0.5373
      2  O1G       -7.6690   -6.4570  -17.8620 O.3   1301  ATP1301    -0.1143
      3  O2G       -6.9530   -7.8030  -15.8200 O.3   1301  ATP1301    -0.1143
      4  O3G       -5.6450   -7.9830  -17.9740 O.2   1301  ATP1301    -0.2221
      5  PB        -7.5120  -10.4040  -18.0800 P.3   1301  ATP1301     0.2277
      6  O1B       -7.0110  -10.5920  -19.4900 O.2   1301  ATP1301    -0.5168
      7  O2B       -6.6380  -10.8030  -16.9150 O.3   1301  ATP1301    -0.4368
      8  O3B       -7.9600   -8.8720  -17.8450 O.3   1301  ATP1301    -0.2258
      9  PA        -9.8670  -11.5590  -19.1600 P.3   1301  ATP1301     0.2189
     10  O1A       -9.2970  -10.9670  -20.4230 O.2   1301  ATP1301    -0.5170
     11  O2A      -10.2030  -13.0280  -19.1290 O.3   1301  ATP1301    -0.4371
     12  O3A       -8.8980  -11.2180  -17.9190 O.3   1301  ATP1301    -0.2700
     13  O5'      -11.1920  -10.7340  -18.7790 O.3   1301  ATP1301    -0.3112
     14  C5'      -11.8260  -10.9030  -17.5150 C.3   1301  ATP1301     0.1813
     15  C4'      -13.3320  -11.0160  -17.7260 C.3   1301  ATP1301     0.1821
     16  O4'      -13.9020   -9.7770  -18.1630 O.3   1301  ATP1301    -0.3135
     17  C3'      -13.6790  -12.0380  -18.7990 C.3   1301  ATP1301     0.2184
     18  O3'      -13.9830  -13.3170  -18.2350 O.3   1301  ATP1301    -0.2174
     19  C2'      -14.8910  -11.4710  -19.5050 C.3   1301  ATP1301     0.2570
     20  O2'      -16.0690  -12.1940  -19.1470 O.3   1301  ATP1301    -0.2130
     21  C1'      -15.0040  -10.0280  -19.0450 C.3   1301  ATP1301     0.3186
     22  N9       -14.9930   -9.1430  -20.2370 N.pl3 1301  ATP1301    -0.1439
     23  C8       -16.0630   -8.8810  -21.0230 C.3   1301  ATP1301     0.3377
     24  N7       -15.7260   -8.0400  -22.0360 N.2   1301  ATP1301    -0.2095
     25  C5       -14.4130   -7.7580  -21.9020 C.2   1301  ATP1301     0.2526
     26  C6       -13.4180   -6.9350  -22.6210 C.2   1301  ATP1301     0.4393
     27  N6       -13.7620   -6.2280  -23.7200 N.pl3 1301  ATP1301     0.2180
     28  N1       -12.1540   -6.9160  -22.1470 N.2   1301  ATP1301     0.0021
     29  C2       -11.7860   -7.6130  -21.0570 C.3   1301  ATP1301     0.5254
     30  N3       -12.6400   -8.3770  -20.3540 N.2   1301  ATP1301    -0.0055
     31  C4       -13.9370   -8.4900  -20.7170 C.2   1301  ATP1301     0.3518
@<TRIPOS>BOND
     1    27    26    1
     2    26    28    2
     3    26    25    1
     4    28    29    1
     5    24    25    2
     6    24    23    1
     7    25    31    1
     8    29    30    1
     9    23    22    1
    10    31    30    2
    11    31    22    1
    12    10     9    2
    13    22    21    1
    14    19    20    1
    15    19    21    1
    16    19    17    1
    17     6     5    2
    18     9    11    1
    19     9    13    1
    20     9    12    1
    21    21    16    1
    22    17    18    1
    23    17    15    1
    24    13    14    1
    25    16    15    1
    26     5    12    1
    27     5     8    1
    28     5     7    1
    29     4     1    2
    30     2     1    1
    31     8     1    1
    32    15    14    1
    33     1     3    1
