@<TRIPOS>MOLECULE
3zs9_ADP_A_1.pdb
 27 29 0 0 0
SMALL
GASTEIGER

@<TRIPOS>ATOM
      1  PB       -16.0360    1.7210  -15.6570 P.3   401  ADP401      0.5373
      2  O1B      -15.1630    2.8590  -15.9050 O.3   401  ADP401     -0.1143
      3  O2B      -15.6220    0.3900  -16.3560 O.2   401  ADP401     -0.2221
      4  O3B      -17.5550    1.8950  -16.0810 O.3   401  ADP401     -0.1143
      5  PA       -17.3440    0.9330  -13.0620 P.3   401  ADP401      0.2231
      6  O1A      -18.3290    2.0210  -12.9540 O.3   401  ADP401     -0.4370
      7  O2A      -17.8400   -0.4340  -13.6610 O.2   401  ADP401     -0.5169
      8  O3A      -16.2870    1.3160  -14.1690 O.3   401  ADP401     -0.2261
      9  O5'      -16.5440    0.6560  -11.7150 O.3   401  ADP401     -0.3111
     10  C5'      -15.6260   -0.4300  -11.6190 C.3   401  ADP401      0.1813
     11  C4'      -15.9440   -1.1840  -10.3280 C.3   401  ADP401      0.1821
     12  O4'      -15.6330   -0.3650   -9.1950 O.3   401  ADP401     -0.3135
     13  C3'      -17.4420   -1.5730  -10.2200 C.3   401  ADP401      0.2184
     14  O3'      -17.4670   -2.8240   -9.5620 O.3   401  ADP401     -0.2174
     15  C2'      -18.0300   -0.4500   -9.3210 C.3   401  ADP401      0.2570
     16  O2'      -19.0900   -0.8340   -8.4810 O.3   401  ADP401     -0.2130
     17  C1'      -16.8230   -0.0900   -8.4180 C.3   401  ADP401      0.3186
     18  N9       -16.7130    1.2860   -8.0630 N.pl3 401  ADP401     -0.1439
     19  C8       -16.5800    2.4450   -8.8660 C.3   401  ADP401      0.3377
     20  N7       -16.3040    3.5390   -8.1310 N.2   401  ADP401     -0.2095
     21  C5       -16.2320    3.0860   -6.8090 C.2   401  ADP401      0.2526
     22  C6       -16.0000    3.7140   -5.5540 C.2   401  ADP401      0.4393
     23  N6       -15.7170    5.0590   -5.5140 N.pl3 401  ADP401      0.2180
     24  N1       -16.0100    2.9860   -4.3940 N.2   401  ADP401      0.0021
     25  C2       -16.2570    1.6560   -4.5010 C.3   401  ADP401      0.5254
     26  N3       -16.5010    0.9200   -5.6050 N.2   401  ADP401     -0.0055
     27  C4       -16.4860    1.6630   -6.7380 C.2   401  ADP401      0.3518
@<TRIPOS>BOND
     1     3     1    2
     2     4     1    1
     3     2     1    1
     4     1     8    1
     5     8     5    1
     6     7     5    2
     7     5     6    1
     8     5     9    1
     9     9    10    1
    10    10    11    1
    11    11    13    1
    12    11    12    1
    13    13    14    1
    14    13    15    1
    15    15    16    1
    16    15    17    1
    17    12    17    1
    18    19    20    1
    19    19    18    1
    20    17    18    1
    21    20    21    2
    22    18    27    1
    23    21    27    1
    24    21    22    1
    25    27    26    2
    26    26    25    1
    27    22    23    1
    28    22    24    2
    29    25    24    1
