@<TRIPOS>MOLECULE
3zsc_AQA_A_1.pdb
 11 11 0 0 0
SMALL
GASTEIGER

@<TRIPOS>ATOM
      1  O6A       16.1920   29.3290   78.5730 O.co2 1338  AQA1338    -0.2371
      2  C6        17.1400   30.1600   78.5080 C.2   1338  AQA1338     0.4208
      3  O6B       17.4360   30.7620   77.4250 O.co2 1338  AQA1338    -0.2371
      4  C5        17.9010   30.3900   79.7610 C.2   1338  AQA1338     0.2164
      5  O5        17.2390   30.1000   81.0410 O.2   1338  AQA1338    -0.4664
      6  C4        19.2100   30.8200   79.7640 C.2   1338  AQA1338     0.0526
      7  C3        19.8900   31.2980   81.0510 C.3   1338  AQA1338     0.2111
      8  O3        21.3360   31.2910   81.0060 O.3   1338  AQA1338    -0.2153
      9  C2        19.3440   30.4990   82.2350 C.3   1338  AQA1338     0.2297
     10  O2        19.8600   31.0590   83.4470 O.3   1338  AQA1338    -0.2160
     11  C1        17.8110   30.5580   82.2810 C.3   1338  AQA1338     0.2413
@<TRIPOS>BOND
     1     3     2   ar
     2     2     1   ar
     3     2     4    1
     4     4     6    2
     5     4     5    1
     6     6     7    1
     7     8     7    1
     8     5    11    1
     9     7     9    1
    10     9    11    1
    11     9    10    1
