@<TRIPOS>MOLECULE
3zsc_ADA_A_1.pdb
 13 13 0 0 0
SMALL
GASTEIGER

@<TRIPOS>ATOM
      1  C1        11.9770   36.1660   85.9620 C.3   1336  ADA1336     0.3028
      2  C2        13.5150   36.3020   85.9630 C.3   1336  ADA1336     0.2435
      3  C3        14.0630   36.7850   84.5990 C.3   1336  ADA1336     0.2204
      4  C4        13.4380   35.9480   83.4580 C.3   1336  ADA1336     0.2229
      5  C5        11.8910   35.9380   83.5580 C.3   1336  ADA1336     0.2530
      6  C6        11.2270   35.1500   82.4620 C.2   1336  ADA1336     0.3941
      7  O2        13.9150   37.1900   87.0190 O.3   1336  ADA1336    -0.2148
      8  O3        15.5090   36.7030   84.5780 O.3   1336  ADA1336    -0.2174
      9  O4        13.8600   34.5810   83.5200 O.3   1336  ADA1336    -0.2171
     10  O5        11.4930   35.4000   84.8200 O.3   1336  ADA1336    -0.3149
     11  O6B       11.6830   35.2780   81.3250 O.co2 1336  ADA1336    -0.2429
     12  O6A       10.2230   34.4280   82.6950 O.co2 1336  ADA1336    -0.2429
     13  O1        11.4280   37.4940   85.9670 O.3   1336  ADA1336    -0.1869
@<TRIPOS>BOND
     1    11     6   ar
     2     6    12   ar
     3     6     5    1
     4     4     9    1
     5     4     5    1
     6     4     3    1
     7     5    10    1
     8     8     3    1
     9     3     2    1
    10    10     1    1
    11     1     2    1
    12     1    13    1
    13     2     7    1
