@<TRIPOS>MOLECULE
3zse_FXP_A_1.pdb
 18 19 0 0 0
SMALL
GASTEIGER

@<TRIPOS>ATOM
      1  C1A        8.4170   21.5940   14.1960 C.3   1207  FXP1207     0.1801
      2  C2A        9.5040   22.6420   14.5260 C.3   1207  FXP1207     0.2229
      3  C3A        8.8960   23.7150   15.4420 C.3   1207  FXP1207     0.2163
      4  C4A        7.5470   24.1830   14.8970 C.3   1207  FXP1207     0.1803
      5  C5A        7.3590   23.6210   13.5060 C.3   1207  FXP1207     0.1744
      6  F2A       10.6600   22.0720   15.0810 F     1207  FXP1207    -0.2317
      7  O3A        9.7530   24.8780   15.5200 O.3   1207  FXP1207    -0.2174
      8  O4A        6.5010   23.7100   15.7780 O.3   1207  FXP1207    -0.3257
      9  O5A        7.2930   22.1780   13.4630 O.3   1207  FXP1207    -0.3481
     10  C1B        5.6190   24.7230   16.2440 C.3   1207  FXP1207     0.2695
     11  C2B        4.3350   24.0210   16.7110 C.3   1207  FXP1207     0.2406
     12  C3B        3.4250   25.0300   17.4620 C.3   1207  FXP1207     0.2198
     13  C4B        4.2150   25.7930   18.5730 C.3   1207  FXP1207     0.2143
     14  C5B        5.4730   26.4170   17.9660 C.3   1207  FXP1207     0.1803
     15  O2B        3.6650   23.4410   15.5830 O.3   1207  FXP1207    -0.2149
     16  O3B        2.3100   24.3600   18.0380 O.3   1207  FXP1207    -0.2174
     17  O4B        3.4600   26.8730   19.1460 O.3   1207  FXP1207    -0.2176
     18  O5B        6.2460   25.3270   17.3850 O.3   1207  FXP1207    -0.3257
@<TRIPOS>BOND
     1     9     5    1
     2     9     1    1
     3     5     4    1
     4     1     2    1
     5     2     6    1
     6     2     3    1
     7     4     3    1
     8     4     8    1
     9     3     7    1
    10    15    11    1
    11     8    10    1
    12    10    11    1
    13    10    18    1
    14    11    12    1
    15    18    14    1
    16    12    16    1
    17    12    13    1
    18    14    13    1
    19    13    17    1
