@<TRIPOS>MOLECULE
3zsg_T75_A_1.pdb
 29 32 0 0 0
SMALL
GASTEIGER

@<TRIPOS>ATOM
      1  O24       22.2010   40.4820   14.5900 O.2   400  T75400     -0.2680
      2  C22       22.2450   40.3780   13.3730 C.2   400  T75400      0.2703
      3  C23       22.1520   41.6130   12.5550 C.ar  400  T75400      0.0554
      4  C29       22.9060   41.7300   11.3740 C.ar  400  T75400      0.0046
      5  C28       22.8210   42.8830   10.6110 C.ar  400  T75400      0.0001
      6  C27       22.0170   43.9290   11.0180 C.ar  400  T75400      0.0000
      7  C26       21.2810   43.8290   12.1860 C.ar  400  T75400      0.0001
      8  C25       21.3450   42.6800   12.9590 C.ar  400  T75400      0.0046
      9  N19       22.4140   39.1990   12.7170 N.am  400  T75400     -0.1566
     10  C8        22.5150   37.9120   13.2800 C.ar  400  T75400      0.1545
     11  C7        22.6060   37.6570   14.6530 C.ar  400  T75400      0.0332
     12  N9        22.5070   36.8960   12.4260 N.ar  400  T75400     -0.2273
     13  C10       22.6030   35.6370   12.8360 C.ar  400  T75400      0.1001
     14  C11       22.6890   35.3000   14.1710 C.ar  400  T75400      0.0177
     15  C6        22.7110   36.3320   15.1160 C.ar  400  T75400     -0.0011
     16  C5        22.7430   36.0820   16.5690 C.3   400  T75400      0.1283
     17  S4        22.0850   37.2880   17.6620 S.3   400  T75400     -0.0759
     18  C3        22.3900   36.2920   19.0060 C.2   400  T75400      0.1346
     19  C20       22.1340   36.7480   20.4210 C.3   400  T75400      0.0656
     20  C21       21.8970   35.5590   21.3430 C.3   400  T75400      0.0084
     21  N2        22.9190   35.1790   18.6430 N.2   400  T75400     -0.4032
     22  C1        23.1510   34.9990   17.3320 C.2   400  T75400      0.1233
     23  C12       23.8170   33.7640   16.8290 C.ar  400  T75400      0.0263
     24  C17       24.9980   33.8320   16.0490 C.ar  400  T75400      0.0022
     25  C16       25.6320   32.6680   15.6280 C.ar  400  T75400     -0.0002
     26  C15       25.0870   31.4190   15.9480 C.ar  400  T75400     -0.0043
     27  C14       23.9230   31.3590   16.7090 C.ar  400  T75400     -0.0218
     28  C18       23.3050   30.0300   17.1030 C.3   400  T75400      0.0310
     29  C13       23.3120   32.5140   17.1580 C.ar  400  T75400     -0.0020
@<TRIPOS>BOND
     1     5     6   ar
     2     5     4   ar
     3     6     7   ar
     4     4     3   ar
     5     7     8   ar
     6    12    13   ar
     7    12    10   ar
     8     3     8   ar
     9     3     2    1
    10     9    10    1
    11     9     2   am
    12    13    14   ar
    13    10    11   ar
    14     2     1    2
    15    14    15   ar
    16    11    15   ar
    17    15    16    1
    18    25    26   ar
    19    25    24   ar
    20    26    27   ar
    21    24    23   ar
    22    16    22    1
    23    16    17    1
    24    27    28    1
    25    27    29   ar
    26    23    29   ar
    27    23    22    1
    28    22    21    2
    29    17    18    1
    30    21    18    2
    31    18    19    1
    32    19    20    1
