@<TRIPOS>MOLECULE
3zsh_469_A_1.pdb
 36 39 0 0 0
SMALL
GASTEIGER

@<TRIPOS>ATOM
      1  CAC       21.3390   44.0810    8.5880 C.3   400  469400      0.1153
      2  NBG       21.8280   44.6880    9.8380 N.am  400  469400     -0.2699
      3  CAD       22.3870   46.0530    9.7720 C.3   400  469400      0.1153
      4  CAV       21.7560   43.9900   10.9970 C.2   400  469400      0.2883
      5  OAG       22.1490   44.4570   12.0540 O.2   400  469400     -0.2664
      6  CAU       21.1620   42.6050   10.9870 C.2   400  469400      0.2501
      7  OAF       21.6720   41.7140   10.3330 O.2   400  469400     -0.2817
      8  CBB       19.9230   42.3160   11.7100 C.ar  400  469400      0.0622
      9  CBC       19.4040   40.9630   11.9830 C.ar  400  469400      0.0207
     10  CAP       19.8700   39.6800   11.7210 C.ar  400  469400      0.0069
     11  CAQ       18.9940   43.2060   12.2450 C.ar  400  469400      0.0793
     12  NBJ       17.9910   42.5090   12.8340 N.ar  400  469400     -0.3239
     13  CAE       16.8100   43.0660   13.5070 C.3   400  469400      0.1305
     14  CBD       18.2030   41.1570   12.6930 C.ar  400  469400      0.0609
     15  CAO       17.4650   40.0630   13.1030 C.ar  400  469400      0.0287
     16  CAY       17.9060   38.7960   12.8360 C.ar  400  469400      0.0635
     17 CLA        16.9160   37.4800   13.3890 Cl    400  469400     -0.0820
     18  CBA       19.1200   38.5800   12.1490 C.ar  400  469400      0.0642
     19  CAW       19.5970   37.2040   11.8800 C.2   400  469400      0.2499
     20  OAH       19.6590   36.7980   10.7360 O.2   400  469400     -0.2699
     21  NBI       19.9690   36.4290   12.9240 N.am  400  469400     -0.2749
     22  CBF       20.4560   35.0210   12.7960 C.3   400  469400      0.0917
     23  CAS       21.6310   34.6730   13.7040 C.3   400  469400      0.0924
     24  CAB       19.4090   34.0000   13.2500 C.3   400  469400      0.0230
     25  CAT       19.8960   36.9990   14.2780 C.3   400  469400      0.1096
     26  CBE       20.3670   36.0070   15.3090 C.3   400  469400      0.0777
     27  CAA       20.6520   36.8290   16.5320 C.3   400  469400      0.0192
     28  NBH       21.6260   35.3730   14.9810 N.3   400  469400     -0.2672
     29  CAR       22.1060   34.6840   16.1880 C.3   400  469400      0.0992
     30  CAZ       22.7300   33.3260   16.0470 C.ar  400  469400     -0.0060
     31  CAM       21.9850   32.2320   16.4490 C.ar  400  469400     -0.0006
     32  CAK       22.5210   30.9650   16.3640 C.ar  400  469400      0.0294
     33  CAX       23.8120   30.8220   15.8940 C.ar  400  469400      0.1401
     34  FAI       24.3130   29.5910   15.8120 F     400  469400     -0.2042
     35  CAL       24.5740   31.9170   15.4970 C.ar  400  469400      0.0294
     36  CAN       24.0230   33.1790   15.5700 C.ar  400  469400     -0.0006
@<TRIPOS>BOND
     1     1     2    1
     2     3     2    1
     3     2     4   am
     4     7     6    2
     5    20    19    2
     6     6     4    1
     7     6     8    1
     8     4     5    2
     9     8     9   ar
    10     8    11   ar
    11    10     9   ar
    12    10    18   ar
    13    19    18    1
    14    19    21   am
    15     9    14   ar
    16    18    16   ar
    17    11    12   ar
    18    14    12   ar
    19    14    15   ar
    20    22    21    1
    21    22    24    1
    22    22    23    1
    23    12    13    1
    24    16    15   ar
    25    16    17    1
    26    21    25    1
    27    23    28    1
    28    25    26    1
    29    28    26    1
    30    28    29    1
    31    26    27    1
    32    35    36   ar
    33    35    33   ar
    34    36    30   ar
    35    34    33    1
    36    33    32   ar
    37    30    29    1
    38    30    31   ar
    39    32    31   ar
