@<TRIPOS>MOLECULE
3zsi_52P_A_1.pdb
 28 31 0 0 0
SMALL
GASTEIGER

@<TRIPOS>ATOM
      1  F1        -6.4750   -1.8380   14.7850 F     1000  52P1000    -0.2041
      2  C2        -5.7860   -1.1450   15.7090 C.ar  1000  52P1000     0.1424
      3  C3        -4.6290   -0.4640   15.3620 C.ar  1000  52P1000     0.0303
      4  C4        -3.9320    0.2440   16.3260 C.ar  1000  52P1000     0.0111
      5  C5        -4.3950    0.2730   17.6400 C.ar  1000  52P1000     0.0585
      6  S6        -3.5100    1.1770   18.8620 S.3   1000  52P1000    -0.0642
      7  C7        -3.0230   -0.0610   20.0210 C.2   1000  52P1000     0.1284
      8  C8        -2.6530    0.3470   21.3240 C.2   1000  52P1000     0.0287
      9  C9        -2.2710   -0.5750   22.2460 C.2   1000  52P1000     0.0193
     10  C10       -2.2540   -1.9420   21.8900 C.2   1000  52P1000     0.0823
     11  C11       -1.8670   -2.9420   22.8050 C.2   1000  52P1000     0.0995
     12  C12       -1.4610   -2.6290   24.1980 C.ar  1000  52P1000     0.0333
     13  C13       -2.3450   -2.8760   25.2550 C.ar  1000  52P1000     0.0592
     14 CL14       -3.9090   -3.5480   24.9430 Cl    1000  52P1000    -0.0822
     15  C15       -1.9780   -2.5860   26.5560 C.ar  1000  52P1000     0.0115
     16  C16       -0.7300   -2.0490   26.8180 C.ar  1000  52P1000     0.0017
     17  C17        0.1540   -1.7990   25.7810 C.ar  1000  52P1000     0.0115
     18  C18       -0.2020   -2.0850   24.4740 C.ar  1000  52P1000     0.0592
     19 CL19        0.9170   -1.7580   23.1910 Cl    1000  52P1000    -0.0822
     20  C20       -1.8820   -4.2860   22.3510 C.1   1000  52P1000     0.1530
     21  O21       -1.5580   -5.1930   23.1050 O.2   1000  52P1000    -0.2222
     22  N22       -2.2520   -4.5640   21.0870 N.2   1000  52P1000    -0.1780
     23  C23       -2.6060   -3.6250   20.2500 C.3   1000  52P1000     0.2529
     24  N24       -2.6210   -2.3140   20.6090 N.pl3 1000  52P1000    -0.1849
     25  N25       -3.0060   -1.3330   19.6810 N.2   1000  52P1000    -0.1695
     26  C26       -5.5560   -0.4150   17.9840 C.ar  1000  52P1000     0.1483
     27  F27       -6.0150   -0.3930   19.2540 F     1000  52P1000    -0.2036
     28  C28       -6.2470   -1.1190   17.0130 C.ar  1000  52P1000     0.0598
@<TRIPOS>BOND
     1     1     2    1
     2     3     2   ar
     3     3     4   ar
     4     2    28   ar
     5     4     5   ar
     6    28    26   ar
     7     5    26   ar
     8     5     6    1
     9    26    27    1
    10     6     7    1
    11    25     7    2
    12    25    24    1
    13     7     8    1
    14    23    24    1
    15    23    22    1
    16    24    10    1
    17    22    20    2
    18     8     9    2
    19    10     9    1
    20    10    11    2
    21    20    11    1
    22    20    21    2
    23    11    12    1
    24    19    18    1
    25    12    18   ar
    26    12    13   ar
    27    18    17   ar
    28    14    13    1
    29    13    15   ar
    30    17    16   ar
    31    15    16   ar
