@<TRIPOS>MOLECULE
3zsj_LAT_A_1.pdb
 23 24 0 0 0
SMALL
GASTEIGER

@<TRIPOS>ATOM
      1  C1       -19.7880    8.6820   -1.3320 C.3   501  LAT501      0.2695
      2  C2       -18.3150    9.0440   -1.2660 C.3   501  LAT501      0.2406
      3  C3       -17.4730    7.8180   -1.5810 C.3   501  LAT501      0.2198
      4  C4       -17.8900    6.6570   -0.6600 C.3   501  LAT501      0.2144
      5  C5       -19.3590    6.4270   -0.7920 C.3   501  LAT501      0.1835
      6  C6       -19.8810    5.3140    0.0670 C.3   501  LAT501      0.2142
      7  O1       -20.5170    9.7870   -0.8610 O.3   501  LAT501     -0.3257
      8  O2       -18.0630   10.0480   -2.3070 O.3   501  LAT501     -0.2149
      9  O3       -16.0790    8.1210   -1.2980 O.3   501  LAT501     -0.2174
     10  O4       -17.5490    7.0040    0.6960 O.3   501  LAT501     -0.2176
     11  O5       -20.1060    7.6020   -0.4590 O.3   501  LAT501     -0.3256
     12  O6       -21.2610    5.0950   -0.1940 O.3   501  LAT501     -0.2176
     13  C1'      -24.4060   11.1470   -1.1650 C.3   501  LAT501      0.3023
     14  C2'      -24.1570   10.2150   -0.0030 C.3   501  LAT501      0.2433
     15  C3'      -22.6550   10.1320    0.1890 C.3   501  LAT501      0.2168
     16  C4'      -21.9160    9.7110   -1.1220 C.3   501  LAT501      0.1804
     17  C5'      -22.3460   10.6160   -2.2340 C.3   501  LAT501      0.1804
     18  C6'      -21.7590   10.1210   -3.5890 C.3   501  LAT501      0.2141
     19  O2'      -24.8400   10.7830    1.1200 O.3   501  LAT501     -0.2148
     20  O3'      -22.4730    9.2620    1.2670 O.3   501  LAT501     -0.2175
     21  O5'      -23.7580   10.6400   -2.3220 O.3   501  LAT501     -0.3237
     22  O6'      -22.1850    8.7140   -3.7680 O.3   501  LAT501     -0.2176
     23  O1'      -25.8040   11.2070   -1.4270 O.3   501  LAT501     -0.1869
@<TRIPOS>BOND
     1    22    18    1
     2    18    17    1
     3    21    17    1
     4    21    13    1
     5     8     2    1
     6    17    16    1
     7     3     9    1
     8     3     2    1
     9     3     4    1
    10    23    13    1
    11     1     2    1
    12     1     7    1
    13     1    11    1
    14    13    14    1
    15    16     7    1
    16    16    15    1
    17     5     4    1
    18     5    11    1
    19     5     6    1
    20     4    10    1
    21    12     6    1
    22    14    15    1
    23    14    19    1
    24    15    20    1
