@<TRIPOS>MOLECULE
3zsn_MIV_A_1.pdb
 49 51 0 0 0
SMALL
GASTEIGER

@<TRIPOS>ATOM
      1  O5       -14.2850    3.3270   56.5070 O.2   460  MIV460     -0.2449
      2  C24      -13.6900    3.4680   55.4370 C.2   460  MIV460      0.3410
      3  C23      -14.0220    4.4540   54.3760 C.2   460  MIV460      0.0774
      4  C22      -14.6430    5.6050   54.5920 C.2   460  MIV460     -0.0174
      5  C20      -14.8730    6.5200   53.4260 C.3   460  MIV460      0.0495
      6  C21      -13.9790    7.7290   53.7250 C.3   460  MIV460      0.0072
      7  C11      -16.3590    6.9580   53.2460 C.3   460  MIV460      0.1217
      8  O2       -16.4540    7.8650   52.1200 O.3   460  MIV460     -0.3308
      9  C12      -16.7920    9.2090   52.4620 C.3   460  MIV460      0.2679
     10  O4       -18.2210    9.2710   52.5830 O.3   460  MIV460     -0.3311
     11  C18      -18.6790   10.5960   52.8900 C.3   460  MIV460      0.1194
     12  C19      -20.1730   10.4930   53.1530 C.3   460  MIV460      0.0322
     13  C17      -18.3170   11.5840   51.7650 C.3   460  MIV460      0.0483
     14  C14      -16.7860   11.6250   51.6260 C.3   460  MIV460      0.0957
     15  N        -16.3340   12.5600   50.5480 N.3   460  MIV460     -0.2691
     16  C16      -17.0020   12.4610   49.2550 C.3   460  MIV460      0.0897
     17  C15      -16.2350   13.9580   50.9960 C.3   460  MIV460      0.0897
     18  C13      -16.2740   10.1820   51.3780 C.3   460  MIV460      0.2224
     19  O3       -14.8370   10.0850   51.2380 O.3   460  MIV460     -0.2163
     20  C9       -17.3740    5.8270   53.0320 C.3   460  MIV460      0.0281
     21  C10      -18.8230    6.2670   53.3100 C.3   460  MIV460      0.0025
     22  C8       -17.2000    5.2060   51.6300 C.3   460  MIV460      0.0101
     23  C6       -18.1280    4.0300   51.2980 C.3   460  MIV460      0.0620
     24  C7       -17.9890    3.5380   49.8530 C.3   460  MIV460      0.0081
     25  C5       -17.8950    2.9020   52.2640 C.2   460  MIV460      0.1727
     26  O1       -18.8810    2.3790   52.7550 O.2   460  MIV460     -0.2914
     27  C4       -16.5250    2.4380   52.6350 C.2   460  MIV460      0.0374
     28  C3       -16.3070    1.3100   53.3350 C.2   460  MIV460      0.0026
     29  C2       -14.9110    0.9550   53.6650 C.2   460  MIV460     -0.0043
     30  C1       -14.5280    0.6030   54.9030 C.2   460  MIV460     -0.0203
     31  O6       -12.5590    2.5980   55.1660 O.3   460  MIV460     -0.4488
     32  C25      -12.4590    1.4340   56.0140 C.3   460  MIV460      0.1755
     33  C26      -11.0060    1.1630   56.4040 C.3   460  MIV460      0.0441
     34  C27      -10.1020    2.3860   56.3660 C.3   460  MIV460      0.0038
     35  C28      -13.0490    0.2870   55.1880 C.3   460  MIV460      0.0918
     36  C29      -12.8070   -1.0700   55.8480 C.3   460  MIV460      0.1527
     37  O7       -13.2780   -1.1500   57.1900 O.3   460  MIV460     -0.3282
     38  C30      -14.2700   -2.1870   57.2980 C.3   460  MIV460      0.2659
     39  O11      -15.5100   -1.5150   57.5200 O.3   460  MIV460     -0.3284
     40  C36      -16.7120   -2.2700   57.6890 C.3   460  MIV460      0.1507
     41  C37      -17.8740   -1.2970   58.0020 C.3   460  MIV460      0.0350
     42  C35      -16.5150   -3.4020   58.7220 C.3   460  MIV460      0.2084
     43  O10      -17.6510   -4.2760   58.7180 O.3   460  MIV460     -0.2178
     44  C33      -15.2350   -4.1940   58.3810 C.3   460  MIV460      0.1799
     45  O9       -15.3800   -4.8670   57.0810 O.3   460  MIV460     -0.3482
     46  C34      -16.2010   -6.0430   57.0090 C.3   460  MIV460      0.1742
     47  C31      -14.0410   -3.1920   58.4430 C.3   460  MIV460      0.2009
     48  O8       -12.6790   -3.7200   58.4360 O.3   460  MIV460     -0.3458
     49  C32      -12.2570   -4.4840   59.5750 C.3   460  MIV460      0.1743
@<TRIPOS>BOND
     1    16    15    1
     2    24    23    1
     3    15    17    1
     4    15    14    1
     5    19    18    1
     6    23    22    1
     7    23    25    1
     8    18    14    1
     9    18     9    1
    10    14    13    1
    11    22    20    1
    12    13    11    1
    13     8     9    1
    14     8     7    1
    15    25    27    1
    16    25    26    2
    17     9    10    1
    18    10    11    1
    19    27    28    2
    20    11    12    1
    21    20     7    1
    22    20    21    1
    23     7     5    1
    24    28    29    1
    25     5     6    1
    26     5     4    1
    27    29    30    2
    28     3     4    2
    29     3     2    1
    30    30    35    1
    31    31     2    1
    32    31    32    1
    33    35    36    1
    34    35    32    1
    35     2     1    2
    36    36    37    1
    37    32    33    1
    38    34    33    1
    39    46    45    1
    40    45    44    1
    41    37    38    1
    42    38    39    1
    43    38    47    1
    44    39    40    1
    45    40    41    1
    46    40    42    1
    47    44    47    1
    48    44    42    1
    49    48    47    1
    50    48    49    1
    51    43    42    1
