@<TRIPOS>MOLECULE
3zsn_HEM_A_1.pdb
 43 50 0 0 0
SMALL
GASTEIGER

@<TRIPOS>ATOM
      1  CHA      -11.0360   -7.5530   60.8240 C.2   450  HEM450      0.0000
      2  CHB       -6.5060   -5.8080   60.5260 C.2   450  HEM450      0.0000
      3  CHC       -6.3460   -7.2290   55.9480 C.2   450  HEM450      0.0000
      4  CHD      -10.8610   -8.9950   56.2470 C.2   450  HEM450      0.0000
      5  C1A       -9.8030   -7.0070   61.1270 C.2   450  HEM450      0.0000
      6  C2A       -9.4050   -6.5240   62.4420 C.2   450  HEM450      0.0000
      7  C3A       -8.1500   -6.0810   62.3580 C.2   450  HEM450      0.0000
      8  C4A       -7.7520   -6.1990   60.9740 C.2   450  HEM450      0.0000
      9  CMA       -7.2950   -5.4230   63.5050 C.3   450  HEM450      0.0000
     10  CAA      -10.2580   -6.5330   63.7300 C.3   450  HEM450      0.0000
     11  CBA      -10.9450   -5.1610   63.8930 C.3   450  HEM450      0.0000
     12  CGA      -11.6940   -4.9510   65.1820 C.2   450  HEM450      0.0000
     13  O1A      -11.7600   -5.8960   66.0090 O.co2 450  HEM450      0.0000
     14  O2A      -12.2560   -3.8190   65.3760 O.co2 450  HEM450      0.0000
     15  C1B       -6.0770   -5.9800   59.2480 C.ar  450  HEM450      0.0000
     16  C2B       -4.8060   -5.5370   58.6970 C.ar  450  HEM450      0.0000
     17  C3B       -4.8170   -5.9310   57.4250 C.ar  450  HEM450      0.0000
     18  C4B       -6.0340   -6.6430   57.1510 C.ar  450  HEM450      0.0000
     19  CMB       -3.6790   -4.7680   59.4430 C.3   450  HEM450      0.0000
     20  CAB       -3.7510   -5.7600   56.3220 C.2   450  HEM450      0.0000
     21  CBB       -2.4570   -5.6490   56.5820 C.2   450  HEM450      0.0000
     22  C1C       -7.5150   -7.9200   55.6470 C.2   450  HEM450      0.0000
     23  C2C       -7.8050   -8.6520   54.4270 C.2   450  HEM450      0.0000
     24  C3C       -9.0860   -9.0990   54.5320 C.2   450  HEM450      0.0000
     25  C4C       -9.5960   -8.6920   55.8070 C.2   450  HEM450      0.0000
     26  CMC       -6.8200   -8.8190   53.2480 C.3   450  HEM450      0.0000
     27  CAC       -9.9730   -9.9450   53.5870 C.2   450  HEM450      0.0000
     28  CBC       -9.4900  -10.4030   52.4160 C.2   450  HEM450      0.0000
     29  C1D      -11.3990   -8.7320   57.4670 C.ar  450  HEM450      0.0000
     30  C2D      -12.7960   -8.9100   57.8390 C.ar  450  HEM450      0.0000
     31  C3D      -12.8140   -8.4740   59.2870 C.ar  450  HEM450      0.0000
     32  C4D      -11.4680   -8.0280   59.6030 C.ar  450  HEM450      0.0000
     33  CMD      -13.8970   -9.5190   56.9560 C.3   450  HEM450      0.0000
     34  CAD      -13.9450   -8.4170   60.2800 C.3   450  HEM450      0.0000
     35  CBD      -13.9810   -9.7880   60.9040 C.3   450  HEM450      0.0000
     36  CGD      -15.1370   -9.9150   61.8790 C.2   450  HEM450      0.0000
     37  O1D      -15.6720   -8.9020   62.3790 O.co2 450  HEM450      0.0000
     38  O2D      -15.5490  -11.0620   62.1940 O.co2 450  HEM450      0.0000
     39  NA        -8.7290   -6.8630   60.2680 N.2   450  HEM450      0.0000
     40  NB        -6.8020   -6.6520   58.2980 N.ar  450  HEM450      0.0000
     41  NC        -8.6120   -7.9780   56.4780 N.2   450  HEM450      0.0000
     42  ND       -10.6860   -8.2020   58.5070 N.ar  450  HEM450      0.0000
     43 FE         -8.6660   -7.4870   58.4000 Fe    450  HEM450      0.0000
@<TRIPOS>BOND
     1    28    27    2
     2    26    23    1
     3    27    24    1
     4    23    24    2
     5    23    22    1
     6    24    25    1
     7    22     3    2
     8    22    41    1
     9    25     4    1
    10    25    41    2
    11     3    18    1
    12     4    29    2
    13    20    21    2
    14    20    17    1
    15    41    43    1
    16    33    30    1
    17    18    17   ar
    18    18    40   ar
    19    17    16   ar
    20    29    30   ar
    21    29    42   ar
    22    30    31   ar
    23    40    43    1
    24    40    15   ar
    25    43    42    1
    26    43    39    1
    27    42    32   ar
    28    16    15   ar
    29    16    19    1
    30    15     2    1
    31    31    32   ar
    32    31    34    1
    33    32     1    2
    34    39     8    1
    35    39     5    2
    36    34    35    1
    37     2     8    2
    38     1     5    1
    39    35    36    1
    40     8     7    1
    41     5     6    1
    42    36    38   ar
    43    36    37   ar
    44     7     6    2
    45     7     9    1
    46     6    10    1
    47    10    11    1
    48    11    12    1
    49    12    14   ar
    50    12    13   ar
