@<TRIPOS>MOLECULE
3zso_O2N_A_1.pdb
 44 48 0 0 0
SMALL
GASTEIGER

@<TRIPOS>ATOM
      1  C1       -11.1980   48.6360    5.7650 C.ar  1219  O2N1219     0.0001
      2  C2       -12.1670   49.3520    5.0980 C.ar  1219  O2N1219    -0.0003
      3  C3       -10.1340   48.1430    5.0200 C.ar  1219  O2N1219     0.0043
      4  C4       -12.0970   49.5930    3.7350 C.ar  1219  O2N1219    -0.0028
      5  C5       -11.4330   45.7610   -1.7080 C.ar  1219  O2N1219     0.0006
      6  C6        -7.5110   45.0570   -0.0520 C.ar  1219  O2N1219     0.0008
      7  C7        -9.0860   44.1280    1.4740 C.ar  1219  O2N1219     0.0008
      8  C8        -5.2450   45.7400    3.4850 C.ar  1219  O2N1219     0.0008
      9  C9        -6.8620   44.1580    4.2050 C.ar  1219  O2N1219     0.0008
     10  C10      -12.1820   45.0440   -2.6950 C.ar  1219  O2N1219     0.0399
     11  C11       -8.0190   44.2790   -1.1000 C.ar  1219  O2N1219     0.0366
     12  C12       -9.6300   43.3030    0.4780 C.ar  1219  O2N1219     0.0366
     13  C13       -4.3690   45.1910    4.4190 C.ar  1219  O2N1219     0.0366
     14  C14       -5.9900   43.5460    5.1380 C.ar  1219  O2N1219     0.0366
     15  C15      -10.0470   48.3700    3.6580 C.ar  1219  O2N1219     0.0524
     16  C16      -13.3770   45.9810   -0.2340 C.ar  1219  O2N1219     0.1141
     17  C17       -8.0280   44.9890    1.2360 C.ar  1219  O2N1219     0.0018
     18  C18       -6.5240   45.2110    3.3620 C.ar  1219  O2N1219     0.0018
     19  C19      -11.0350   49.1020    3.0010 C.ar  1219  O2N1219    -0.0017
     20  C20      -12.0130   46.2190   -0.4920 C.ar  1219  O2N1219     0.0034
     21  C21      -13.5130   44.8600   -2.4080 C.ar  1219  O2N1219     0.1766
     22  C22      -14.0810   45.2910   -1.2220 C.ar  1219  O2N1219     0.1825
     23  C23       -9.0620   43.3710   -0.7840 C.ar  1219  O2N1219     0.1387
     24  C24       -4.7340   44.1160    5.2220 C.ar  1219  O2N1219     0.1387
     25  C25      -10.1880   50.4690   -1.8410 C.2   1219  O2N1219    -0.0035
     26  C26      -10.5950   49.2370   -1.4870 C.2   1219  O2N1219    -0.0088
     27  C27       -8.8760   47.8470    2.9210 C.2   1219  O2N1219     0.2651
     28  C28      -14.1030   46.3470    1.0410 C.2   1219  O2N1219     0.3905
     29  C29      -15.6260   44.2650   -2.3770 C.3   1219  O2N1219     0.4294
     30  C30      -10.0940   41.2730   -1.5770 C.3   1219  O2N1219     0.2525
     31  C31       -4.2950   42.9450    7.2050 C.3   1219  O2N1219     0.2525
     32  C32      -10.9890   49.4020    1.5390 C.3   1219  O2N1219     0.0998
     33  C33      -11.2370   46.9690    0.5810 C.3   1219  O2N1219     0.1000
     34  C34      -11.8720   49.0400   -0.7170 C.3   1219  O2N1219     0.0994
     35  C35       -7.4560   45.8790    2.3540 C.3   1219  O2N1219     0.1400
     36  N36       -8.5540   46.4980    3.0730 N.am  1219  O2N1219    -0.1944
     37  N37      -11.7660   48.4410    0.6520 N.3   1219  O2N1219    -0.2613
     38  O38      -14.9210   45.4650    1.4580 O.co2 1219  O2N1219    -0.2404
     39  O39       -8.2340   48.6430    2.2300 O.2   1219  O2N1219    -0.2684
     40  O40      -13.8560   47.3660    1.7630 O.co2 1219  O2N1219    -0.2404
     41  O41      -14.4350   44.2300   -3.1870 O.3   1219  O2N1219    -0.4346
     42  O42      -15.4470   44.9910   -1.1430 O.3   1219  O2N1219    -0.4344
     43  O43       -9.5610   42.5890   -1.8390 O.3   1219  O2N1219    -0.4714
     44  O44       -3.7480   43.6550    6.0940 O.3   1219  O2N1219    -0.4714
@<TRIPOS>BOND
     1    41    21    1
     2    41    29    1
     3    10    21   ar
     4    10     5   ar
     5    21    22   ar
     6    29    42    1
     7    25    26    2
     8    43    30    1
     9    43    23    1
    10     5    20   ar
    11    26    34    1
    12    22    42    1
    13    22    16   ar
    14    11    23   ar
    15    11     6   ar
    16    23    12   ar
    17    34    37    1
    18    20    16   ar
    19    20    33    1
    20    16    28    1
    21     6    17   ar
    22    12     7   ar
    23    33    37    1
    24    37    32    1
    25    28    38   ar
    26    28    40   ar
    27    17     7   ar
    28    17    35    1
    29    32    19    1
    30    39    27    2
    31    35    36    1
    32    35    18    1
    33    27    36   am
    34    27    15    1
    35    19    15   ar
    36    19     4   ar
    37    18     8   ar
    38    18     9   ar
    39     8    13   ar
    40    15     3   ar
    41     4     2   ar
    42     9    14   ar
    43    13    24   ar
    44     3     1   ar
    45     2     1   ar
    46    14    24   ar
    47    24    44    1
    48    44    31    1
