@<TRIPOS>MOLECULE
3zsq_O4N_A_1.pdb
 39 42 0 0 0
SMALL
GASTEIGER

@<TRIPOS>ATOM
      1  C1       -11.6750   35.2310    7.0140 C.ar  1215  O4N1215     0.0001
      2  C2       -12.7850   34.8420    6.2940 C.ar  1215  O4N1215    -0.0003
      3  C3       -10.6210   35.9020    6.3410 C.ar  1215  O4N1215     0.0043
      4  C4       -12.8650   35.0840    4.9420 C.ar  1215  O4N1215    -0.0028
      5  C5        -9.4130   33.3640   -0.4800 C.ar  1215  O4N1215     0.0006
      6  C6        -6.7700   36.5390    1.4710 C.ar  1215  O4N1215     0.0005
      7  C7        -6.6790   34.5590    2.8120 C.ar  1215  O4N1215     0.0005
      8  C8        -9.3250   32.3810   -1.4400 C.ar  1215  O4N1215     0.0399
      9  C9        -6.4370   35.7430    0.3690 C.ar  1215  O4N1215     0.0366
     10  C10       -6.3720   33.7720    1.7240 C.ar  1215  O4N1215     0.0366
     11  C11      -10.7270   36.1490    4.9800 C.ar  1215  O4N1215     0.0524
     12  C12      -10.6080   31.8330    0.9950 C.ar  1215  O4N1215     0.1141
     13  C13       -6.8820   35.9370    2.7030 C.ar  1215  O4N1215    -0.0024
     14  C14      -11.8620   35.7320    4.2620 C.ar  1215  O4N1215    -0.0017
     15  C15      -10.0740   33.1070    0.7410 C.ar  1215  O4N1215     0.0034
     16  C16       -9.8790   31.1520   -1.1970 C.ar  1215  O4N1215     0.1766
     17  C17      -10.4860   30.8660    0.0210 C.ar  1215  O4N1215     0.1825
     18  C18       -6.2510   34.3710    0.5040 C.ar  1215  O4N1215     0.1387
     19  C19      -12.4730   37.2430   -0.5130 C.2   1215  O4N1215    -0.0035
     20  C20      -11.8860   36.0500   -0.3560 C.2   1215  O4N1215    -0.0088
     21  C21       -9.6200   36.8400    4.3240 C.2   1215  O4N1215     0.2648
     22  C22      -11.2720   31.4800    2.3300 C.2   1215  O4N1215     0.3905
     23  C23      -10.4760   29.0410   -1.1770 C.3   1215  O4N1215     0.4294
     24  C24       -5.0400   37.8170    6.8400 C.3   1215  O4N1215     0.0001
     25  C25       -5.6750   32.3020   -0.5290 C.3   1215  O4N1215     0.2525
     26  C26      -12.0270   35.9400    2.7360 C.3   1215  O4N1215     0.0998
     27  C27      -10.1660   34.2720    1.7290 C.3   1215  O4N1215     0.1000
     28  C28      -12.3920   34.9150    0.4800 C.3   1215  O4N1215     0.0994
     29  C29       -6.3600   37.7950    6.0330 C.3   1215  O4N1215     0.0021
     30  C30       -6.0880   36.8300    4.8890 C.3   1215  O4N1215     0.0262
     31  C31       -7.2060   36.8340    3.8980 C.3   1215  O4N1215     0.1178
     32  N32       -8.3840   36.3970    4.6270 N.am  1215  O4N1215    -0.1989
     33  N33      -11.6810   34.7400    1.8270 N.3   1215  O4N1215    -0.2613
     34  O34      -11.0620   30.2890    2.7380 O.co2 1215  O4N1215    -0.2404
     35  O35       -9.8010   37.7530    3.5090 O.2   1215  O4N1215    -0.2684
     36  O36      -11.8040   32.4040    3.0000 O.co2 1215  O4N1215    -0.2404
     37  O37       -9.9260   30.0620   -2.0030 O.3   1215  O4N1215    -0.4346
     38  O38      -11.0080   29.5570    0.0760 O.3   1215  O4N1215    -0.4344
     39  O39       -5.9890   33.7080   -0.6660 O.3   1215  O4N1215    -0.4714
@<TRIPOS>BOND
     1    37    16    1
     2    37    23    1
     3     8    16   ar
     4     8     5   ar
     5    16    17   ar
     6    23    38    1
     7    39    25    1
     8    39    18    1
     9    19    20    2
    10     5    15   ar
    11    20    28    1
    12    17    38    1
    13    17    12   ar
    14     9    18   ar
    15     9     6   ar
    16    28    33    1
    17    18    10   ar
    18    15    12   ar
    19    15    27    1
    20    12    22    1
    21     6    13   ar
    22    10     7   ar
    23    27    33    1
    24    33    26    1
    25    22    34   ar
    26    22    36   ar
    27    13     7   ar
    28    13    31    1
    29    26    14    1
    30    35    21    2
    31    31    32    1
    32    31    30    1
    33    14     4   ar
    34    14    11   ar
    35    21    32   am
    36    21    11    1
    37    30    29    1
    38     4     2   ar
    39    11     3   ar
    40    29    24    1
    41     2     1   ar
    42     3     1   ar
