@<TRIPOS>MOLECULE
3zsr_O3N_A_1.pdb
 40 43 0 0 0
SMALL
GASTEIGER

@<TRIPOS>ATOM
      1  C1        36.1980   -7.7290    5.0930 C.ar  1215  O3N1215     0.0001
      2  C2        36.4750   -6.5250    4.4800 C.ar  1215  O3N1215    -0.0003
      3  C3        36.1330   -8.9000    4.3600 C.ar  1215  O3N1215     0.0043
      4  C4        36.6770   -6.5030    3.1140 C.ar  1215  O3N1215    -0.0028
      5  C5        33.3980   -8.1250   -2.1770 C.ar  1215  O3N1215     0.0006
      6  C6        32.5110   -7.6630   -3.1310 C.ar  1215  O3N1215     0.0398
      7  C7        36.3410   -8.8710    2.9930 C.ar  1215  O3N1215     0.0524
      8  C8        32.7560   -6.3560   -0.6860 C.ar  1215  O3N1215     0.1140
      9  C9        36.6120   -7.6640    2.3700 C.ar  1215  O3N1215    -0.0017
     10  C10       33.5210   -7.4810   -0.9580 C.ar  1215  O3N1215     0.0034
     11  C11       31.7610   -6.5430   -2.8740 C.ar  1215  O3N1215     0.1724
     12  C12       31.8630   -5.8950   -1.6530 C.ar  1215  O3N1215     0.1784
     13  C13       38.1650   -7.5880   -2.3070 C.2   1215  O3N1215    -0.0035
     14  C14       36.8460   -7.4990   -2.1220 C.2   1215  O3N1215    -0.0088
     15  C15       36.2620  -10.1430    2.2390 C.2   1215  O3N1215     0.2645
     16  C16       32.8340   -5.6590    0.6420 C.2   1215  O3N1215     0.3905
     17  C17       30.9070   -3.6670   -6.5230 C.2   1215  O3N1215     0.3650
     18  C18       31.8170  -12.1430   -0.8660 C.3   1215  O3N1215     0.0000
     19  C19       32.8120  -11.0500   -0.5550 C.3   1215  O3N1215     0.0001
     20  C20       31.7570  -13.1110    0.3020 C.3   1215  O3N1215     0.0001
     21  C21       34.1960  -11.6010   -0.2460 C.3   1215  O3N1215     0.0018
     22  C22       32.6900  -12.6440    1.4090 C.3   1215  O3N1215     0.0018
     23  C23       30.0820   -4.5020   -2.2970 C.3   1215  O3N1215     0.2487
     24  C24       34.1150  -12.5680    0.9210 C.3   1215  O3N1215     0.0217
     25  C25       30.5800   -4.7540   -3.6940 C.3   1215  O3N1215     0.2100
     26  C26       36.8570   -7.5530    0.9040 C.3   1215  O3N1215     0.0998
     27  C27       34.5240   -8.0280    0.0190 C.3   1215  O3N1215     0.1000
     28  C28       36.2300   -6.5000   -1.2030 C.3   1215  O3N1215     0.0994
     29  C29       29.8710   -4.6850   -6.0930 C.3   1215  O3N1215     0.1179
     30  C30       35.1050  -12.2810    2.0430 C.3   1215  O3N1215     0.1154
     31  C31       29.4980   -4.3150   -4.6750 C.3   1215  O3N1215     0.0593
     32  N32       35.1400  -10.9060    2.4720 N.am  1215  O3N1215    -0.2017
     33  N33       35.7060   -7.0610    0.0890 N.3   1215  O3N1215    -0.2613
     34  O34       31.7020   -5.3160    1.1310 O.co2 1215  O3N1215    -0.2404
     35  O35       31.9070   -4.1590   -7.1270 O.co2 1215  O3N1215    -0.2457
     36  O36       37.1360  -10.4670    1.4480 O.2   1215  O3N1215    -0.2684
     37  O37       33.9300   -5.5500    1.2570 O.co2 1215  O3N1215    -0.2404
     38  O38       30.6510   -2.4590   -6.2590 O.co2 1215  O3N1215    -0.2457
     39  O39       31.1280   -4.7430   -1.3570 O.3   1215  O3N1215    -0.4683
     40  O40       30.9050   -6.1300   -3.8800 O.3   1215  O3N1215    -0.4723
@<TRIPOS>BOND
     1    35    17   ar
     2    17    38   ar
     3    17    29    1
     4    29    31    1
     5    31    25    1
     6    40    25    1
     7    40    11    1
     8    25    23    1
     9     6    11   ar
    10     6     5   ar
    11    11    12   ar
    12    13    14    2
    13    23    39    1
    14     5    10   ar
    15    14    28    1
    16    12    39    1
    17    12     8   ar
    18    28    33    1
    19    10     8   ar
    20    10    27    1
    21    18    19    1
    22    18    20    1
    23     8    16    1
    24    19    21    1
    25    21    24    1
    26    27    33    1
    27    33    26    1
    28    20    22    1
    29    16    34   ar
    30    16    37   ar
    31    26     9    1
    32    24    22    1
    33    24    30    1
    34    36    15    2
    35    30    32    1
    36    15    32   am
    37    15     7    1
    38     9     7   ar
    39     9     4   ar
    40     7     3   ar
    41     4     2   ar
    42     3     1   ar
    43     2     1   ar
