@<TRIPOS>MOLECULE
3zsv_ZSV_A_1.pdb
 42 45 0 0 0
SMALL
GASTEIGER

@<TRIPOS>ATOM
      1  C1        11.6180    5.6440   19.4770 C.ar  1215  ZSV1215     0.0001
      2  C2        12.7210    6.0930   18.7800 C.ar  1215  ZSV1215    -0.0003
      3  C3        10.5740    5.0210   18.8100 C.ar  1215  ZSV1215     0.0043
      4  C4        12.7870    5.9150   17.4110 C.ar  1215  ZSV1215    -0.0028
      5  C5         9.4900    7.7780   12.2530 C.ar  1215  ZSV1215     0.0006
      6  C6         6.9180    4.4980   13.9800 C.ar  1215  ZSV1215     0.0006
      7  C7         6.4850    6.4040   15.3350 C.ar  1215  ZSV1215     0.0006
      8  C8         9.4600    8.7580   11.2760 C.ar  1215  ZSV1215     0.0398
      9  C9         6.6730    5.2530   12.8560 C.ar  1215  ZSV1215     0.0366
     10  C10        6.2460    7.1760   14.2090 C.ar  1215  ZSV1215     0.0366
     11  C11       10.6510    4.8480   17.4390 C.ar  1215  ZSV1215     0.0524
     12  C12       10.7960    9.2230   13.6540 C.ar  1215  ZSV1215     0.1140
     13  C13        6.8300    5.0690   15.2300 C.ar  1215  ZSV1215    -0.0004
     14  C14       11.7530    5.2970   16.7370 C.ar  1215  ZSV1215    -0.0017
     15  C15       10.1530    8.0080   13.4470 C.ar  1215  ZSV1215     0.0034
     16  C16       10.1060    9.9560   11.4710 C.ar  1215  ZSV1215     0.1724
     17  C17       10.7600   10.2020   12.6660 C.ar  1215  ZSV1215     0.1784
     18  C18        6.3350    6.5850   12.9650 C.ar  1215  ZSV1215     0.1387
     19  C19       12.4610    4.0870   11.8550 C.2   1215  ZSV1215    -0.0035
     20  C20       11.7590    5.1550   12.2470 C.2   1215  ZSV1215    -0.0088
     21  C21        9.5250    4.1850   16.7580 C.2   1215  ZSV1215     0.2648
     22  C22       11.4800    9.5130   14.9560 C.2   1215  ZSV1215     0.3905
     23  C23       12.2660   12.0550    7.6730 C.2   1215  ZSV1215     0.3650
     24  C24       11.1700   12.4060   11.9130 C.3   1215  ZSV1215     0.2487
     25  C25       11.1380   11.8070   10.5330 C.3   1215  ZSV1215     0.2100
     26  C26        5.4880    8.5350   11.9670 C.3   1215  ZSV1215     0.2525
     27  C27        7.0890    4.2320   16.4510 C.3   1215  ZSV1215     0.1418
     28  C28       11.8590    5.1210   15.2610 C.3   1215  ZSV1215     0.0998
     29  C29       10.1760    6.9020   14.4600 C.3   1215  ZSV1215     0.1000
     30  C30       12.3090    6.2190   13.1400 C.3   1215  ZSV1215     0.0994
     31  C31       10.8560   12.4350    8.1000 C.3   1215  ZSV1215     0.1179
     32  C32       10.9600   12.9310    9.5300 C.3   1215  ZSV1215     0.0593
     33  N33        8.2920    4.6440   17.1270 N.am  1215  ZSV1215    -0.1968
     34  N34       11.6060    6.3600   14.4650 N.3   1215  ZSV1215    -0.2613
     35  O35       11.2290   10.6670   15.4180 O.co2 1215  ZSV1215    -0.2404
     36  O36       13.2120   12.8130    8.0330 O.co2 1215  ZSV1215    -0.2457
     37  O37        9.7120    3.2960   15.9410 O.2   1215  ZSV1215    -0.2684
     38  O38       12.1240    8.6260   15.5700 O.co2 1215  ZSV1215    -0.2404
     39  O39       12.3300   11.0010    6.9790 O.co2 1215  ZSV1215    -0.2457
     40  O40       11.4400   11.4020   12.8900 O.3   1215  ZSV1215    -0.4683
     41  O41       10.0440   10.8860   10.4460 O.3   1215  ZSV1215    -0.4723
     42  O42        6.1250    7.2700   11.7730 O.3   1215  ZSV1215    -0.4714
@<TRIPOS>BOND
     1    39    23   ar
     2    23    36   ar
     3    23    31    1
     4    31    32    1
     5    32    25    1
     6    41    25    1
     7    41    16    1
     8    25    24    1
     9     8    16   ar
    10     8     5   ar
    11    16    17   ar
    12    42    26    1
    13    42    18    1
    14    19    20    2
    15    24    40    1
    16    20    30    1
    17     5    15   ar
    18    17    40    1
    19    17    12   ar
    20     9    18   ar
    21     9     6   ar
    22    18    10   ar
    23    30    34    1
    24    15    12   ar
    25    15    29    1
    26    12    22    1
    27     6    13   ar
    28    10     7   ar
    29    29    34    1
    30    34    28    1
    31    22    35   ar
    32    22    38   ar
    33    13     7   ar
    34    13    27    1
    35    28    14    1
    36    37    21    2
    37    27    33    1
    38    14     4   ar
    39    14    11   ar
    40    21    33   am
    41    21    11    1
    42     4     2   ar
    43    11     3   ar
    44     2     1   ar
    45     3     1   ar
