@<TRIPOS>MOLECULE
3zsw_ZSW_A_1.pdb
 37 39 0 0 0
SMALL
GASTEIGER

@<TRIPOS>ATOM
      1  C1        -9.8260   47.5920    4.8750 C.ar  1217  ZSW1217     0.0001
      2  C2       -10.6750   48.5200    4.3070 C.ar  1217  ZSW1217    -0.0003
      3  C3        -8.9890   46.8430    4.0750 C.ar  1217  ZSW1217     0.0043
      4  C4       -10.6940   48.6950    2.9370 C.ar  1217  ZSW1217    -0.0028
      5  C5       -11.6330   44.9920   -2.2660 C.ar  1217  ZSW1217     0.0006
      6  C6       -12.5450   44.5530   -3.2070 C.ar  1217  ZSW1217     0.0398
      7  C7        -9.0170   47.0180    2.7100 C.ar  1217  ZSW1217     0.0524
      8  C8       -13.3940   45.4970   -0.6970 C.ar  1217  ZSW1217     0.1140
      9  C9        -9.8700   47.9430    2.1260 C.ar  1217  ZSW1217    -0.0017
     10  C10      -12.0410   45.4570   -1.0260 C.ar  1217  ZSW1217     0.0034
     11  C11      -13.8830   44.6010   -2.8810 C.ar  1217  ZSW1217     0.1724
     12  C12      -14.3130   45.0460   -1.6400 C.ar  1217  ZSW1217     0.1784
     13  C13      -10.3760   49.9850   -2.4190 C.2   1217  ZSW1217    -0.0035
     14  C14      -10.4640   48.6840   -2.1250 C.2   1217  ZSW1217    -0.0088
     15  C15       -8.1180   46.1620    1.9080 C.2   1217  ZSW1217     0.2645
     16  C16      -13.8480   45.9580    0.6430 C.2   1217  ZSW1217     0.3905
     17  C17      -16.8830   45.5580   -6.4420 C.2   1217  ZSW1217     0.3650
     18  C19       -9.0980   42.4120    0.4650 C.3   1217  ZSW1217     0.0018
     19  C18       -7.7440   43.0790    0.5610 C.3   1217  ZSW1217     0.0217
     20  C20       -7.5000   43.6490    1.9370 C.3   1217  ZSW1217     0.0957
     21  C22       -6.0170   43.8260    2.1850 C.3   1217  ZSW1217     0.0234
     22  C23      -16.4880   44.3990   -2.2340 C.3   1217  ZSW1217     0.2487
     23  C25      -16.0540   44.6830   -3.6480 C.3   1217  ZSW1217     0.2100
     24  C26       -9.9400   48.1690    0.6530 C.3   1217  ZSW1217     0.0998
     25  C27      -10.9850   45.9470   -0.0810 C.3   1217  ZSW1217     0.1000
     26  C28      -11.5350   48.1780   -1.2430 C.3   1217  ZSW1217     0.0994
     27  C29      -16.5820   44.1220   -6.0450 C.3   1217  ZSW1217     0.1179
     28  C31      -17.0270   44.0090   -4.6020 C.3   1217  ZSW1217     0.0593
     29  N32       -8.2960   44.8310    2.2410 N.am  1217  ZSW1217    -0.2034
     30  N33      -11.0820   47.4660   -0.0040 N.3   1217  ZSW1217    -0.2613
     31  O37      -14.7060   45.2140    1.2190 O.co2 1217  ZSW1217    -0.2404
     32  O35      -17.9390   46.0780   -5.9920 O.co2 1217  ZSW1217    -0.2457
     33  O36       -7.3930   46.6350    1.0500 O.2   1217  ZSW1217    -0.2684
     34  O34      -13.3090   46.9650    1.1780 O.co2 1217  ZSW1217    -0.2404
     35  O38      -16.0200   46.0890   -7.1910 O.co2 1217  ZSW1217    -0.2457
     36  O39      -15.6670   45.1100   -1.3110 O.3   1217  ZSW1217    -0.4683
     37  O40      -14.7520   44.1530   -3.8440 O.3   1217  ZSW1217    -0.4723
@<TRIPOS>BOND
     1    35    17   ar
     2    17    27    1
     3    17    32   ar
     4    27    28    1
     5    28    23    1
     6    37    23    1
     7    37    11    1
     8    23    22    1
     9     6    11   ar
    10     6     5   ar
    11    11    12   ar
    12    13    14    2
    13     5    10   ar
    14    22    36    1
    15    14    26    1
    16    12    36    1
    17    12     8   ar
    18    26    30    1
    19    10     8   ar
    20    10    25    1
    21     8    16    1
    22    25    30    1
    23    30    24    1
    24    18    19    1
    25    19    20    1
    26    16    34   ar
    27    16    31   ar
    28    24     9    1
    29    33    15    2
    30    15    29   am
    31    15     7    1
    32    20    21    1
    33    20    29    1
    34     9     7   ar
    35     9     4   ar
    36     7     3   ar
    37     4     2   ar
    38     3     1   ar
    39     2     1   ar
