@<TRIPOS>MOLECULE
3zsx_N44_A_1.pdb
 34 37 0 0 0
SMALL
GASTEIGER

@<TRIPOS>ATOM
      1  C1        -8.6990   42.1900   -0.2160 C.ar  1215  N441215    -0.0000
      2  C2       -10.5610   48.0060    5.9460 C.ar  1215  N441215     0.0001
      3  C3        -8.3660   41.6880    1.0240 C.ar  1215  N441215    -0.0003
      4  C4        -8.4790   43.5210   -0.4930 C.ar  1215  N441215    -0.0003
      5  C5       -11.4430   48.8430    5.3080 C.ar  1215  N441215    -0.0003
      6  C6        -9.5690   47.3550    5.2370 C.ar  1215  N441215     0.0043
      7  C7        -7.8310   42.5170    1.9820 C.ar  1215  N441215    -0.0026
      8  C8        -7.9500   44.3510    0.4730 C.ar  1215  N441215    -0.0026
      9  C9       -11.3160   49.0260    3.9420 C.ar  1215  N441215    -0.0028
     10  C10      -11.4150   45.4100   -1.4350 C.ar  1215  N441215     0.0006
     11  C11      -12.2240   44.8440   -2.4120 C.ar  1215  N441215     0.0399
     12  C12       -9.4420   47.5320    3.8700 C.ar  1215  N441215     0.0524
     13  C13      -13.2840   45.6280    0.1090 C.ar  1215  N441215     0.1141
     14  C14       -7.6250   43.8540    1.7210 C.ar  1215  N441215    -0.0006
     15  C15      -10.3280   48.3820    3.2220 C.ar  1215  N441215    -0.0017
     16  C16      -11.9300   45.7920   -0.1960 C.ar  1215  N441215     0.0034
     17  C17      -13.5540   44.6850   -2.0970 C.ar  1215  N441215     0.1766
     18  C18      -14.0720   45.0580   -0.8820 C.ar  1215  N441215     0.1825
     19  C19       -9.7750   49.8150   -1.5440 C.2   1215  N441215    -0.0035
     20  C20      -10.4420   48.6770   -1.3170 C.2   1215  N441215    -0.0088
     21  C21       -8.3530   46.8170    3.1400 C.2   1215  N441215     0.2648
     22  C22      -13.8630   46.0140    1.4470 C.2   1215  N441215     0.3905
     23  C23      -15.6780   44.2290   -2.1100 C.3   1215  N441215     0.4294
     24  C24       -7.0610   44.7550    2.7740 C.3   1215  N441215     0.1418
     25  C25      -10.2600   48.6390    1.7570 C.3   1215  N441215     0.0998
     26  C26      -10.9790   46.4010    0.7950 C.3   1215  N441215     0.1000
     27  C27      -11.5650   48.6040   -0.3400 C.3   1215  N441215     0.0994
     28  N28       -8.1140   45.4850    3.4500 N.am  1215  N441215    -0.1968
     29  N29      -11.2360   47.8790    0.9330 N.3   1215  N441215    -0.2613
     30  O30      -14.8250   45.3120    1.8660 O.co2 1215  N441215    -0.2404
     31  O31       -7.7010   47.4220    2.3030 O.2   1215  N441215    -0.2684
     32  O32      -13.3620   46.9690    2.1130 O.co2 1215  N441215    -0.2404
     33  O33      -14.4970   44.1510   -2.9400 O.3   1215  N441215    -0.4346
     34  O34      -15.4420   44.8020   -0.8110 O.3   1215  N441215    -0.4344
@<TRIPOS>BOND
     1    33    23    1
     2    33    17    1
     3    11    17   ar
     4    11    10   ar
     5    23    34    1
     6    17    18   ar
     7    19    20    2
     8    10    16   ar
     9    20    27    1
    10    18    34    1
    11    18    13   ar
    12     4     1   ar
    13     4     8   ar
    14    27    29    1
    15     1     3   ar
    16    16    13   ar
    17    16    26    1
    18    13    22    1
    19     8    14   ar
    20    26    29    1
    21    29    25    1
    22     3     7   ar
    23    22    30   ar
    24    22    32   ar
    25    14     7   ar
    26    14    24    1
    27    25    15    1
    28    31    21    2
    29    24    28    1
    30    21    28   am
    31    21    12    1
    32    15    12   ar
    33    15     9   ar
    34    12     6   ar
    35     9     5   ar
    36     6     2   ar
    37     5     2   ar
