@<TRIPOS>MOLECULE
3zsy_OM3_A_1.pdb
 32 35 0 0 0
SMALL
GASTEIGER

@<TRIPOS>ATOM
      1  C1       -10.7620   47.9740    5.9960 C.ar  1214  OM31214     0.0001
      2  C2       -11.6040   48.8670    5.3900 C.ar  1214  OM31214    -0.0003
      3  C3        -9.8120   47.3360    5.2180 C.ar  1214  OM31214     0.0043
      4  C4       -11.4940   49.0920    4.0320 C.ar  1214  OM31214    -0.0028
      5  C5       -11.5710   45.5560   -1.4770 C.ar  1214  OM31214     0.0006
      6  C6       -12.3420   44.9120   -2.4300 C.ar  1214  OM31214     0.0399
      7  C7        -9.6870   47.5650    3.8570 C.ar  1214  OM31214     0.0524
      8  C8       -13.4090   45.6030    0.0840 C.ar  1214  OM31214     0.1141
      9  C9       -10.5510   48.4650    3.2520 C.ar  1214  OM31214    -0.0017
     10  C10      -12.0790   45.8970   -0.2310 C.ar  1214  OM31214     0.0034
     11  C11      -13.6500   44.6310   -2.1100 C.ar  1214  OM31214     0.1766
     12  C12      -14.1690   44.9640   -0.8950 C.ar  1214  OM31214     0.1825
     13  C13       -8.6240   46.8240    3.0990 C.2   1214  OM31214     0.2645
     14  C14      -14.0140   45.9130    1.4150 C.2   1214  OM31214     0.3905
     15  C15       -8.7120   41.7900   -0.2290 C.3   1214  OM31214     0.0000
     16  C16       -9.6870   42.7990    0.3090 C.3   1214  OM31214     0.0001
     17  C17       -7.9070   41.3130    0.9540 C.3   1214  OM31214     0.0001
     18  C18       -8.9180   43.9910    0.8430 C.3   1214  OM31214     0.0018
     19  C19       -7.1360   42.4740    1.5640 C.3   1214  OM31214     0.0018
     20  C20      -15.7000   43.9590   -2.0820 C.3   1214  OM31214     0.4294
     21  C21       -8.1020   43.5380    2.0300 C.3   1214  OM31214     0.0217
     22  C22      -11.6600   48.7800   -0.3750 C.3   1214  OM31214     0.0902
     23  C23      -10.5150   48.8040    1.7950 C.3   1214  OM31214     0.0996
     24  C24      -11.1300   46.5880    0.7200 C.3   1214  OM31214     0.0997
     25  C25       -7.4440   44.7240    2.7340 C.3   1214  OM31214     0.1154
     26  N26       -8.4910   45.4950    3.3790 N.am  1214  OM31214    -0.2017
     27  N27      -11.4530   48.0530    0.9100 N.3   1214  OM31214    -0.2639
     28  O28      -14.9650   45.1730    1.8120 O.co2 1214  OM31214    -0.2404
     29  O29       -7.9110   47.3540    2.2670 O.2   1214  OM31214    -0.2684
     30  O30      -13.5220   46.8350    2.1100 O.co2 1214  OM31214    -0.2404
     31  O31      -14.5530   44.0200   -2.9320 O.3   1214  OM31214    -0.4346
     32  O32      -15.4970   44.5850   -0.8100 O.3   1214  OM31214    -0.4344
@<TRIPOS>BOND
     1    31    11    1
     2    31    20    1
     3     6    11   ar
     4     6     5   ar
     5    11    12   ar
     6    20    32    1
     7     5    10   ar
     8    12    32    1
     9    12     8   ar
    10    22    27    1
    11    10     8   ar
    12    10    24    1
    13    15    16    1
    14    15    17    1
    15     8    14    1
    16    16    18    1
    17    24    27    1
    18    18    21    1
    19    27    23    1
    20    17    19    1
    21    14    28   ar
    22    14    30   ar
    23    19    21    1
    24    23     9    1
    25    21    25    1
    26    29    13    2
    27    25    26    1
    28    13    26   am
    29    13     7    1
    30     9     7   ar
    31     9     4   ar
    32     7     3   ar
    33     4     2   ar
    34     3     1   ar
    35     2     1   ar
