@<TRIPOS>MOLECULE
3zsz_OM2_A_1.pdb
 29 31 0 0 0
SMALL
GASTEIGER

@<TRIPOS>ATOM
      1  C1        10.2620  -48.0120    6.2140 C.ar  1215  OM21215     0.0001
      2  C2        11.0820  -48.8570    5.4910 C.ar  1215  OM21215    -0.0003
      3  C3         9.2760  -47.2570    5.5920 C.ar  1215  OM21215     0.0043
      4  C4        10.8970  -48.9370    4.1200 C.ar  1215  OM21215    -0.0028
      5  C5        11.3250  -44.9980   -0.9090 C.ar  1215  OM21215     0.0006
      6  C6        12.1910  -44.5200   -1.8840 C.ar  1215  OM21215     0.0399
      7  C7         9.0970  -47.3250    4.2200 C.ar  1215  OM21215     0.0524
      8  C8        13.1900  -45.5680    0.5200 C.ar  1215  OM21215     0.1141
      9  C9         9.9140  -48.1800    3.4960 C.ar  1215  OM21215    -0.0017
     10  C10       11.8080  -45.5270    0.2880 C.ar  1215  OM21215     0.0034
     11  C11       13.5540  -44.5660   -1.6450 C.ar  1215  OM21215     0.1766
     12  C12       14.0410  -45.0710   -0.4730 C.ar  1215  OM21215     0.1825
     13  C13        8.0380  -46.5020    3.5090 C.2   1215  OM21215     0.2645
     14  C14       13.7490  -46.1020    1.8010 C.2   1215  OM21215     0.3905
     15  C15       15.7280  -44.2460   -1.6520 C.3   1215  OM21215     0.4294
     16  C16        7.9040  -42.1320    1.4780 C.3   1215  OM21215     0.0018
     17  C17        6.1730  -43.5540    3.4870 C.3   1215  OM21215     0.0234
     18  C18       10.9630  -48.2390   -0.0680 C.3   1215  OM21215     0.0902
     19  C19        9.7360  -48.2680    2.0130 C.3   1215  OM21215     0.0996
     20  C20       10.8210  -46.0610    1.3010 C.3   1215  OM21215     0.0997
     21  C21        8.4550  -43.1240    2.4500 C.3   1215  OM21215     0.0217
     22  C22        7.4270  -44.1730    2.8620 C.3   1215  OM21215     0.0957
     23  N23        8.0350  -45.1340    3.7710 N.am  1215  OM21215    -0.2034
     24  N24       10.8180  -47.5770    1.2740 N.3   1215  OM21215    -0.2639
     25  O25       14.7890  -45.5190    2.2480 O.co2 1215  OM21215    -0.2404
     26  O26        7.2350  -47.0020    2.7250 O.2   1215  OM21215    -0.2684
     27  O27       13.1430  -47.0500    2.3700 O.co2 1215  OM21215    -0.2404
     28  O28       14.5680  -44.1390   -2.4920 O.3   1215  OM21215    -0.4346
     29  O29       15.4380  -45.0110   -0.4540 O.3   1215  OM21215    -0.4344
@<TRIPOS>BOND
     1    28    15    1
     2    28    11    1
     3     6    11   ar
     4     6     5   ar
     5    15    29    1
     6    11    12   ar
     7     5    10   ar
     8    12    29    1
     9    12     8   ar
    10    18    24    1
    11    10     8   ar
    12    10    20    1
    13     8    14    1
    14    24    20    1
    15    24    19    1
    16    16    21    1
    17    14    25   ar
    18    14    27   ar
    19    19     9    1
    20    21    22    1
    21    26    13    2
    22    22    17    1
    23    22    23    1
    24     9     4   ar
    25     9     7   ar
    26    13    23   am
    27    13     7    1
    28     4     2   ar
    29     7     3   ar
    30     2     1   ar
    31     3     1   ar
