@<TRIPOS>MOLECULE
3zt0_ZT0_A_1.pdb
 34 37 0 0 0
SMALL
GASTEIGER

@<TRIPOS>ATOM
      1  C1        11.1190    7.5230   -5.9610 C.ar  1213  ZT01213     0.0001
      2  C2        12.1150    8.2320   -5.3240 C.ar  1213  ZT01213    -0.0003
      3  C3        10.0500    7.0690   -5.2220 C.ar  1213  ZT01213     0.0043
      4  C4        12.0710    8.4950   -3.9680 C.ar  1213  ZT01213    -0.0028
      5  C5        11.4600    4.7710    1.3480 C.ar  1213  ZT01213     0.0006
      6  C6         7.5120    3.9890   -0.5110 C.ar  1213  ZT01213     0.0006
      7  C7         9.3330    3.1450   -1.7990 C.ar  1213  ZT01213     0.0006
      8  C8        12.1600    4.0870    2.3490 C.ar  1213  ZT01213     0.0399
      9  C9         7.9190    3.2390    0.5610 C.ar  1213  ZT01213     0.0366
     10  C10        9.7550    2.3760   -0.7230 C.ar  1213  ZT01213     0.0366
     11  C11       10.0180    7.3380   -3.8630 C.ar  1213  ZT01213     0.0524
     12  C12       13.4240    4.8630   -0.0820 C.ar  1213  ZT01213     0.1141
     13  C13        8.2070    3.9530   -1.6900 C.ar  1213  ZT01213    -0.0004
     14  C14       11.0100    8.0430   -3.2180 C.ar  1213  ZT01213    -0.0017
     15  C15       12.0790    5.1420    0.1470 C.ar  1213  ZT01213     0.0034
     16  C16       13.4800    3.8120    2.1000 C.ar  1213  ZT01213     0.1766
     17  C17       14.0970    4.1820    0.9350 C.ar  1213  ZT01213     0.1825
     18  C18        9.0200    2.4360    0.4650 C.ar  1213  ZT01213     0.1387
     19  C19        8.8490    6.8090   -3.1340 C.2   1213  ZT01213     0.2648
     20  C20       14.0990    5.2540   -1.3960 C.2   1213  ZT01213     0.3905
     21  C21       15.5290    3.1000    2.2020 C.3   1213  ZT01213     0.4294
     22  C22       11.5300    7.8200    0.5930 C.3   1213  ZT01213     0.0902
     23  C23       10.6080    1.1310    1.5140 C.3   1213  ZT01213     0.2525
     24  C24        7.6440    4.8040   -2.7820 C.3   1213  ZT01213     0.1418
     25  C25       11.0040    8.3460   -1.7440 C.3   1213  ZT01213     0.0996
     26  C26       11.2830    5.8820   -0.9100 C.3   1213  ZT01213     0.0997
     27  N27        8.6070    5.5330   -3.5110 N.am  1213  ZT01213    -0.1968
     28  N28       11.6510    7.3400   -0.8100 N.3   1213  ZT01213    -0.2639
     29  O29       15.0380    4.4870   -1.7610 O.co2 1213  ZT01213    -0.2404
     30  O30        8.2110    7.4490   -2.3060 O.2   1213  ZT01213    -0.2684
     31  O31       13.6880    6.2490   -2.0810 O.co2 1213  ZT01213    -0.2404
     32  O32       14.3290    3.1960    2.9630 O.3   1213  ZT01213    -0.4346
     33  O33       15.4360    3.8250    0.9680 O.3   1213  ZT01213    -0.4344
     34  O34        9.3150    1.7440    1.6410 O.3   1213  ZT01213    -0.4714
@<TRIPOS>BOND
     1     1     2   ar
     2     1     3   ar
     3     2     4   ar
     4     3    11   ar
     5     4    14   ar
     6    11    14   ar
     7    11    19    1
     8    27    19   am
     9    27    24    1
    10    14    25    1
    11    19    30    2
    12    24    13    1
    13    31    20   ar
    14     7    13   ar
    15     7    10   ar
    16    29    20   ar
    17    25    28    1
    18    13     6   ar
    19    20    12    1
    20    26    28    1
    21    26    15    1
    22    28    22    1
    23    10    18   ar
    24     6     9   ar
    25    12    15   ar
    26    12    17   ar
    27    15     5   ar
    28    18     9   ar
    29    18    34    1
    30    17    33    1
    31    17    16   ar
    32    33    21    1
    33     5     8   ar
    34    23    34    1
    35    16     8   ar
    36    16    32    1
    37    21    32    1
