@<TRIPOS>MOLECULE
3zt1_OM1_A_1.pdb
 33 36 0 0 0
SMALL
GASTEIGER

@<TRIPOS>ATOM
      1  C15      -11.3470   35.0940    5.8460 C.ar  1215  OM11215     0.0001
      2  C16      -12.4430   34.7230    5.0920 C.ar  1215  OM11215    -0.0003
      3  C14      -10.2650   35.7270    5.2500 C.ar  1215  OM11215     0.0043
      4  C17      -12.4470   34.9780    3.7310 C.ar  1215  OM11215    -0.0027
      5  C23       -9.3550   33.1610   -1.4380 C.ar  1215  OM11215     0.0007
      6  C6        -5.8750   34.4380    1.7680 C.ar  1215  OM11215     0.0006
      7  C10       -6.7990   36.2310    0.5030 C.ar  1215  OM11215     0.0006
      8  C24       -9.3180   32.2300   -2.4700 C.ar  1215  OM11215     0.0399
      9  C7        -5.6950   33.6950    0.6150 C.ar  1215  OM11215     0.0366
     10  C9        -6.6250   35.5060   -0.6540 C.ar  1215  OM11215     0.0366
     11  C13      -10.2760   35.9790    3.8840 C.ar  1215  OM11215     0.0524
     12  C30      -10.5860   31.6370   -0.0180 C.ar  1215  OM11215     0.1142
     13  C5        -6.4290   35.7020    1.7200 C.ar  1215  OM11215    -0.0004
     14  C18      -11.3740   35.5990    3.1290 C.ar  1215  OM11215    -0.0004
     15  C22       -9.9760   32.8820   -0.2220 C.ar  1215  OM11215     0.0048
     16  C25       -9.9340   31.0150   -2.2570 C.ar  1215  OM11215     0.1766
     17  C29      -10.5390   30.7240   -1.0670 C.ar  1215  OM11215     0.1825
     18  C8        -6.0780   34.2390   -0.5970 C.ar  1215  OM11215     0.1387
     19  C2        -9.1020   36.6510    3.2680 C.2   1215  OM11215     0.2648
     20  C31      -11.2660   31.2650    1.2650 C.2   1215  OM11215     0.3905
     21  C27      -10.5350   28.9280   -2.3310 C.3   1215  OM11215     0.4294
     22  C12       -5.5900   32.1990   -1.6480 C.3   1215  OM11215     0.2525
     23  C4        -6.6280   36.4890    2.9800 C.3   1215  OM11215     0.1418
     24  C19      -11.4570   35.8400    1.6540 C.3   1215  OM11215     0.1155
     25  C21       -9.9500   33.9800    0.8020 C.3   1215  OM11215     0.1157
     26  N3        -7.8860   36.0860    3.5800 N.am  1215  OM11215    -0.1968
     27  N20      -11.3040   34.5930    0.8470 N.3   1215  OM11215    -0.2085
     28  O33      -11.2110   30.0470    1.6240 O.co2 1215  OM11215    -0.2404
     29  O1        -9.2340   37.6360    2.5420 O.2   1215  OM11215    -0.2684
     30  O32      -11.8280   32.1900    1.9190 O.co2 1215  OM11215    -0.2404
     31  O26      -10.0050   29.9760   -3.1650 O.3   1215  OM11215    -0.4346
     32  O28      -11.0750   29.4530   -1.0910 O.3   1215  OM11215    -0.4344
     33  O11       -5.9530   33.5750   -1.8080 O.3   1215  OM11215    -0.4714
@<TRIPOS>BOND
     1    31    21    1
     2    31    16    1
     3     8    16   ar
     4     8     5   ar
     5    21    32    1
     6    16    17   ar
     7    33    22    1
     8    33    18    1
     9     5    15   ar
    10    32    17    1
    11    17    12   ar
    12    10    18   ar
    13    10     7   ar
    14    18     9   ar
    15    15    12   ar
    16    15    25    1
    17    12    20    1
    18     7    13   ar
    19     9     6   ar
    20    25    27    1
    21    27    24    1
    22    20    28   ar
    23    20    30   ar
    24    24    14    1
    25    13     6   ar
    26    13    23    1
    27    29    19    2
    28    23    26    1
    29    14     4   ar
    30    14    11   ar
    31    19    26   am
    32    19    11    1
    33     4     2   ar
    34    11     3   ar
    35     2     1   ar
    36     3     1   ar
