@<TRIPOS>MOLECULE
3zt2_ZT2_A_1.pdb
 23 26 0 0 0
SMALL
GASTEIGER

@<TRIPOS>ATOM
      1  C1       -31.0220   28.6060    0.4650 C.ar  1216  ZT21216    -0.0000
      2  C2       -31.3000   27.4720   -0.2810 C.ar  1216  ZT21216    -0.0003
      3  C3       -31.8480   29.7120    0.3510 C.ar  1216  ZT21216    -0.0002
      4  C4       -33.1840   32.2220    1.8450 C.ar  1216  ZT21216     0.0035
      5  C5       -32.4000   27.4850   -1.0960 C.ar  1216  ZT21216    -0.0038
      6  C6       -32.4520   32.8150    2.8790 C.ar  1216  ZT21216     0.0402
      7  C7       -32.9340   29.7270   -0.4920 C.ar  1216  ZT21216    -0.0008
      8  C8       -33.3240   32.7580    0.5900 C.ar  1216  ZT21216     0.0096
      9  C9       -32.7430   34.0160    0.3250 C.ar  1216  ZT21216     0.1168
     10  C10      -33.2130   28.5940   -1.2240 C.ar  1216  ZT21216    -0.0144
     11  C11      -31.8660   34.0070    2.5600 C.ar  1216  ZT21216     0.1766
     12  C12      -32.0150   34.5880    1.3400 C.ar  1216  ZT21216     0.1827
     13  C13      -33.9430   30.7310   -0.7880 C.2   1216  ZT21216     0.0348
     14  C14      -34.9150   30.1040   -1.7170 C.2   1216  ZT21216     0.1774
     15  C15      -34.1500   32.0360   -0.4180 C.2   1216  ZT21216     0.0032
     16  C16      -32.8460   34.6660   -1.0390 C.2   1216  ZT21216     0.3908
     17  C17      -34.4110   28.7400   -2.0820 C.3   1216  ZT21216     0.0954
     18  C18      -30.6430   35.7000    2.4880 C.3   1216  ZT21216     0.4294
     19  O19      -31.8180   35.2260   -1.4970 O.co2 1216  ZT21216    -0.2404
     20  O20      -35.9610   30.6070   -2.1200 O.2   1216  ZT21216    -0.2910
     21  O21      -33.9450   34.5890   -1.7000 O.co2 1216  ZT21216    -0.2404
     22  O22      -31.0870   34.7500    3.3480 O.3   1216  ZT21216    -0.4346
     23  O23      -31.3650   35.7920    1.2490 O.3   1216  ZT21216    -0.4344
@<TRIPOS>BOND
     1    20    14    2
     2    17    14    1
     3    17    10    1
     4    14    13    1
     5    21    16   ar
     6    19    16   ar
     7    10     5   ar
     8    10     7   ar
     9     5     2   ar
    10    16     9    1
    11    13     7    1
    12    13    15    2
    13     7     3   ar
    14    15     8    1
    15     2     1   ar
    16     9     8   ar
    17     9    12   ar
    18     3     1   ar
    19     8     4   ar
    20    23    12    1
    21    23    18    1
    22    12    11   ar
    23     4     6   ar
    24    18    22    1
    25    11     6   ar
    26    11    22    1
