@<TRIPOS>MOLECULE
3zt3_ZT4_A_1.pdb
 23 26 0 0 0
SMALL
GASTEIGER

@<TRIPOS>ATOM
      1  C1       -30.8300   28.9060    0.8530 C.ar  1216  ZT41216    -0.0000
      2  C2       -30.9620   27.6980    0.2230 C.ar  1216  ZT41216    -0.0003
      3  C3       -31.7000   29.9440    0.5690 C.ar  1216  ZT41216    -0.0005
      4  C4       -33.3270   32.2570    1.9100 C.ar  1216  ZT41216     0.0035
      5  C5       -31.9920   27.5060   -0.6750 C.ar  1216  ZT41216    -0.0042
      6  C6       -32.6360   32.9460    2.9270 C.ar  1216  ZT41216     0.0402
      7  C7       -32.7350   29.7590   -0.3190 C.ar  1216  ZT41216    -0.0055
      8  C8       -33.3900   32.7840    0.6220 C.ar  1216  ZT41216     0.0093
      9  C9       -32.7690   34.0270    0.3100 C.ar  1216  ZT41216     0.1168
     10  C10      -32.8610   28.5410   -0.9320 C.ar  1216  ZT41216    -0.0195
     11  C11      -32.0140   34.1210    2.5610 C.ar  1216  ZT41216     0.1766
     12  C12      -32.0970   34.6550    1.3260 C.ar  1216  ZT41216     0.1827
     13  C13      -33.7760   30.7160   -0.7950 C.2   1216  ZT41216     0.0077
     14  C14      -34.0950   32.0210   -0.4510 C.2   1216  ZT41216    -0.0015
     15  C15      -32.8230   34.6480   -1.0660 C.2   1216  ZT41216     0.3908
     16  C16      -34.0220   28.5210   -1.8800 C.3   1216  ZT41216     0.0638
     17  C17      -30.7460   35.8440    2.5540 C.3   1216  ZT41216     0.4294
     18  C18      -34.4390   29.9960   -1.9620 C.3   1216  ZT41216     0.1786
     19  O19      -31.8600   35.3140   -1.5410 O.co2 1216  ZT41216    -0.2404
     20  O20      -33.9150   34.5140   -1.7120 O.co2 1216  ZT41216    -0.2404
     21  O21      -31.3070   34.9130    3.4250 O.3   1216  ZT41216    -0.4346
     22  O22      -31.4280   35.8590    1.2840 O.3   1216  ZT41216    -0.4344
     23  O23      -35.8220   30.1920   -1.8620 O.3   1216  ZT41216    -0.2179
@<TRIPOS>BOND
     1    18    16    1
     2    18    23    1
     3    18    13    1
     4    16    10    1
     5    20    15   ar
     6    19    15   ar
     7    15     9    1
     8    10     5   ar
     9    10     7   ar
    10    13    14    2
    11    13     7    1
    12     5     2   ar
    13    14     8    1
    14     7     3   ar
    15     2     1   ar
    16     9     8   ar
    17     9    12   ar
    18     3     1   ar
    19     8     4   ar
    20    22    12    1
    21    22    17    1
    22    12    11   ar
    23     4     6   ar
    24    17    21    1
    25    11     6   ar
    26    11    21    1
