@<TRIPOS>MOLECULE
3zt4_ZT2_A_1.pdb
 23 26 0 0 0
SMALL
GASTEIGER

@<TRIPOS>ATOM
      1  C1       -30.9510   28.6030    0.5720 C.ar  1216  ZT21216    -0.0000
      2  C2       -31.2390   27.4250   -0.1160 C.ar  1216  ZT21216    -0.0003
      3  C3       -31.7660   29.7180    0.4890 C.ar  1216  ZT21216    -0.0002
      4  C4       -33.1480   32.1580    1.9860 C.ar  1216  ZT21216     0.0035
      5  C5       -32.3740   27.3410   -0.9090 C.ar  1216  ZT21216    -0.0038
      6  C6       -32.4090   32.7920    2.9750 C.ar  1216  ZT21216     0.0402
      7  C7       -32.8820   29.6070   -0.3030 C.ar  1216  ZT21216    -0.0008
      8  C8       -33.2760   32.6720    0.6930 C.ar  1216  ZT21216     0.0096
      9  C9       -32.6590   33.8890    0.3730 C.ar  1216  ZT21216     0.1168
     10  C10      -33.1830   28.4480   -0.9870 C.ar  1216  ZT21216    -0.0144
     11  C11      -31.8190   33.9790    2.6350 C.ar  1216  ZT21216     0.1766
     12  C12      -31.9300   34.5220    1.3810 C.ar  1216  ZT21216     0.1827
     13  C13      -33.9200   30.5820   -0.5990 C.2   1216  ZT21216     0.0348
     14  C14      -34.8980   29.9230   -1.4930 C.2   1216  ZT21216     0.1774
     15  C15      -34.1080   31.8690   -0.2350 C.2   1216  ZT21216     0.0032
     16  C16      -32.7330   34.5380   -0.9590 C.2   1216  ZT21216     0.3908
     17  C17      -34.4520   28.5300   -1.8060 C.3   1216  ZT21216     0.0954
     18  C18      -30.5480   35.7630    2.5580 C.3   1216  ZT21216     0.4294
     19  O19      -31.7150   35.1340   -1.3570 O.co2 1216  ZT21216    -0.2404
     20  O20      -35.9360   30.4300   -1.8880 O.2   1216  ZT21216    -0.2910
     21  O21      -33.8010   34.4940   -1.6110 O.co2 1216  ZT21216    -0.2404
     22  O22      -31.0610   34.7410    3.4520 O.3   1216  ZT21216    -0.4346
     23  O23      -31.2260   35.7450    1.2880 O.3   1216  ZT21216    -0.4344
@<TRIPOS>BOND
     1    20    14    2
     2    17    14    1
     3    17    10    1
     4    21    16   ar
     5    14    13    1
     6    19    16   ar
     7    10     5   ar
     8    10     7   ar
     9    16     9    1
    10     5     2   ar
    11    13     7    1
    12    13    15    2
    13     7     3   ar
    14    15     8    1
    15     2     1   ar
    16     9     8   ar
    17     9    12   ar
    18     3     1   ar
    19     8     4   ar
    20    23    12    1
    21    23    18    1
    22    12    11   ar
    23     4     6   ar
    24    18    22    1
    25    11     6   ar
    26    11    22    1
