@<TRIPOS>MOLECULE
3zt5_MAL_A_1.pdb
 23 24 0 0 0
SMALL
GASTEIGER

@<TRIPOS>ATOM
      1  C1         2.4630  -32.1070    2.1700 C.3   701  MAL701      0.2695
      2  C2         1.9980  -33.3420    1.3760 C.3   701  MAL701      0.2406
      3  C3         3.1640  -34.2990    1.2390 C.3   701  MAL701      0.2198
      4  C4         4.3090  -33.5530    0.4910 C.3   701  MAL701      0.2144
      5  C5         4.7660  -32.3500    1.2930 C.3   701  MAL701      0.1835
      6  C6         5.8030  -31.4970    0.5750 C.3   701  MAL701      0.2142
      7  O1         2.6120  -32.3970    3.5620 O.3   701  MAL701     -0.3257
      8  O2         0.7670  -33.9350    1.9200 O.3   701  MAL701     -0.2149
      9  O3         2.6430  -35.4420    0.5200 O.3   701  MAL701     -0.2174
     10  O4         5.4320  -34.3900    0.2640 O.3   701  MAL701     -0.2176
     11  O5         3.6590  -31.4960    1.6140 O.3   701  MAL701     -0.3256
     12  O6         5.3960  -31.0270   -0.7290 O.3   701  MAL701     -0.2176
     13  C1'        1.7420  -30.4910    7.0100 C.3   701  MAL701      0.3023
     14  C2'        0.8640  -30.0580    5.8630 C.3   701  MAL701      0.2433
     15  C3'        0.8890  -31.1460    4.8170 C.3   701  MAL701      0.2168
     16  C4'        2.3570  -31.2440    4.3320 C.3   701  MAL701      0.1804
     17  C5'        3.3820  -31.3160    5.4290 C.3   701  MAL701      0.1804
     18  C6'        4.7580  -30.8560    4.8620 C.3   701  MAL701      0.2141
     19  O1'        1.3690  -31.8160    7.4060 O.3   701  MAL701     -0.1869
     20  O2'       -0.4640  -29.8750    6.2980 O.3   701  MAL701     -0.2148
     21  O3'       -0.0840  -30.6890    3.8440 O.3   701  MAL701     -0.2175
     22  O5'        3.0800  -30.4580    6.5310 O.3   701  MAL701     -0.3237
     23  O6'        4.7570  -29.4440    4.5450 O.3   701  MAL701     -0.2176
@<TRIPOS>BOND
     1    12     6    1
     2    10     4    1
     3     4     3    1
     4     4     5    1
     5     9     3    1
     6     6     5    1
     7     3     2    1
     8     5    11    1
     9     2     8    1
    10     2     1    1
    11    11     1    1
    12     1     7    1
    13     7    16    1
    14    21    15    1
    15    16    15    1
    16    16    17    1
    17    23    18    1
    18    15    14    1
    19    18    17    1
    20    17    22    1
    21    14    20    1
    22    14    13    1
    23    22    13    1
    24    13    19    1
