@<TRIPOS>MOLECULE
3zt6_MAL_A_1.pdb
 23 24 0 0 0
SMALL
GASTEIGER

@<TRIPOS>ATOM
      1  C1         2.5490  -32.2750    2.3920 C.3   703  MAL703      0.2695
      2  C2         1.9840  -33.4420    1.5740 C.3   703  MAL703      0.2406
      3  C3         3.1850  -34.3460    1.4170 C.3   703  MAL703      0.2198
      4  C4         4.2810  -33.5610    0.6590 C.3   703  MAL703      0.2144
      5  C5         4.6740  -32.2630    1.3840 C.3   703  MAL703      0.1835
      6  C6         5.7490  -31.4620    0.6560 C.3   703  MAL703      0.2142
      7  O1         2.5550  -32.4560    3.8130 O.3   703  MAL703     -0.3257
      8  O2         0.8000  -34.0710    2.1430 O.3   703  MAL703     -0.2149
      9  O3         2.7580  -35.5410    0.7500 O.3   703  MAL703     -0.2174
     10  O4         5.4560  -34.3490    0.4650 O.3   703  MAL703     -0.2176
     11  O5         3.5090  -31.4400    1.6990 O.3   703  MAL703     -0.3256
     12  O6         5.5570  -31.3490   -0.7640 O.3   703  MAL703     -0.2176
     13  C1'        1.7340  -30.8570    7.2420 C.3   703  MAL703      0.3023
     14  C2'        0.8730  -30.3280    6.1070 C.3   703  MAL703      0.2433
     15  C3'        0.9680  -31.2920    4.9590 C.3   703  MAL703      0.2168
     16  C4'        2.4050  -31.2760    4.5070 C.3   703  MAL703      0.1804
     17  C5'        3.4150  -31.4470    5.5910 C.3   703  MAL703      0.1804
     18  C6'        4.7770  -30.9660    5.0310 C.3   703  MAL703      0.2141
     19  O1'        1.4710  -32.2360    7.5880 O.3   703  MAL703     -0.1869
     20  O2'       -0.4760  -30.2220    6.4680 O.3   703  MAL703     -0.2148
     21  O3'        0.0810  -30.9020    3.8920 O.3   703  MAL703     -0.2175
     22  O5'        3.0640  -30.7150    6.7730 O.3   703  MAL703     -0.3237
     23  O6'        4.7980  -29.5710    4.6830 O.3   703  MAL703     -0.2176
@<TRIPOS>BOND
     1    12     6    1
     2    10     4    1
     3     6     5    1
     4     4     5    1
     5     4     3    1
     6     9     3    1
     7     5    11    1
     8     3     2    1
     9     2     8    1
    10     2     1    1
    11    11     1    1
    12     1     7    1
    13     7    16    1
    14    21    15    1
    15    16    15    1
    16    16    17    1
    17    23    18    1
    18    15    14    1
    19    18    17    1
    20    17    22    1
    21    14    20    1
    22    14    13    1
    23    22    13    1
    24    13    19    1
