@<TRIPOS>MOLECULE
3zt7_MAL_A_1.pdb
 23 24 0 0 0
SMALL
GASTEIGER

@<TRIPOS>ATOM
      1  C1         2.3770  -32.3720    2.3620 C.3   703  MAL703      0.2695
      2  C2         1.7360  -33.5100    1.5380 C.3   703  MAL703      0.2406
      3  C3         2.8550  -34.5690    1.4630 C.3   703  MAL703      0.2198
      4  C4         3.9690  -33.9150    0.6260 C.3   703  MAL703      0.2144
      5  C5         4.5430  -32.6580    1.3120 C.3   703  MAL703      0.1835
      6  C6         5.4830  -31.9280    0.3740 C.3   703  MAL703      0.2142
      7  O1         2.1230  -32.3790    3.7830 O.3   703  MAL703     -0.3257
      8  O2         0.4710  -33.9560    2.1140 O.3   703  MAL703     -0.2149
      9  O3         2.4870  -35.8740    0.9630 O.3   703  MAL703     -0.2174
     10  O4         5.0120  -34.8520    0.3660 O.3   703  MAL703     -0.2176
     11  O5         3.5270  -31.7010    1.7660 O.3   703  MAL703     -0.3256
     12  O6         4.8940  -31.9030   -0.9420 O.3   703  MAL703     -0.2176
     13  C1'        1.7260  -30.4530    7.2290 C.3   703  MAL703      0.3023
     14  C2'        0.8030  -29.9470    6.1110 C.3   703  MAL703      0.2433
     15  C3'        0.7710  -30.9520    4.9800 C.3   703  MAL703      0.2168
     16  C4'        2.1740  -31.1330    4.4340 C.3   703  MAL703      0.1804
     17  C5'        3.3020  -31.2740    5.4390 C.3   703  MAL703      0.1804
     18  C6'        4.6350  -30.7750    4.8330 C.3   703  MAL703      0.2141
     19  O1'        1.3050  -31.6820    7.8920 O.3   703  MAL703     -0.1869
     20  O2'       -0.5320  -29.7050    6.5690 O.3   703  MAL703     -0.2148
     21  O3'       -0.1050  -30.5080    3.9220 O.3   703  MAL703     -0.2175
     22  O5'        3.0530  -30.5920    6.6770 O.3   703  MAL703     -0.3237
     23  O6'        4.6900  -29.3470    4.5700 O.3   703  MAL703     -0.2176
@<TRIPOS>BOND
     1    12     6    1
     2    10     4    1
     3     6     5    1
     4     4     5    1
     5     4     3    1
     6     9     3    1
     7     5    11    1
     8     3     2    1
     9     2     8    1
    10     2     1    1
    11    11     1    1
    12     1     7    1
    13     7    16    1
    14    21    15    1
    15    16    15    1
    16    16    17    1
    17    23    18    1
    18    18    17    1
    19    15    14    1
    20    17    22    1
    21    14    20    1
    22    14    13    1
    23    22    13    1
    24    13    19    1
