@<TRIPOS>MOLECULE
3ztc_TR0_C_1.pdb
 31 34 0 0 0
SMALL
GASTEIGER

@<TRIPOS>ATOM
      1  CAA       -9.6990   36.5890   -5.1420 C.3   1205  TR01205     0.0557
      2  CAW       -9.1730   35.4300   -4.3070 C.ar  1205  TR01205     0.1007
      3  CAK       -7.8990   35.2190   -3.9370 C.ar  1205  TR01205     0.0541
      4  NAQ       -9.9840   34.4920   -3.8430 N.ar  1205  TR01205    -0.0817
      5  OAT       -9.1410   33.6300   -3.1290 O.2   1205  TR01205    -0.3576
      6  CAZ       -7.8620   34.0900   -3.2270 C.ar  1205  TR01205     0.1632
      7  CAM       -6.7050   33.3550   -2.5190 C.3   1205  TR01205     0.1523
      8  CAU       -6.8260   33.7850   -1.0420 C.2   1205  TR01205     0.2338
      9  OAB       -6.5860   34.9610   -0.7680 O.2   1205  TR01205    -0.2744
     10  N         -7.2670   32.9950   -0.0310 N.am  1205  TR01205    -0.2699
     11  CD2       -7.7000   31.5850   -0.1590 C.3   1205  TR01205     0.1266
     12  CG        -8.5290   31.3220    1.1190 C.3   1205  TR01205     0.1739
     13  OD1       -9.9320   31.6130    0.9600 O.3   1205  TR01205    -0.2212
     14  CB        -7.9260   32.2660    2.1410 C.3   1205  TR01205     0.0639
     15  CA        -7.4820   33.4840    1.3450 C.3   1205  TR01205     0.1561
     16  C         -6.1970   33.9690    1.9630 C.2   1205  TR01205     0.2598
     17  O         -5.1330   33.4210    1.6990 O.2   1205  TR01205    -0.2715
     18  NAR       -6.3060   34.9720    2.8430 N.am  1205  TR01205    -0.1992
     19  CAL       -5.0970   35.4890    3.5160 C.3   1205  TR01205     0.1415
     20  CA0       -4.4960   30.4780    9.6890 C.ar  1205  TR01205     0.0000
     21  CAX       -4.8420   34.6620    4.7710 C.ar  1205  TR01205    -0.0006
     22  CAF       -3.5730   34.6790    5.3590 C.ar  1205  TR01205    -0.0026
     23  CA1       -2.8910   32.1240   10.3970 C.ar  1205  TR01205     0.0000
     24  CAH       -3.3270   33.9480    6.5210 C.ar  1205  TR01205    -0.0003
     25  CAE       -5.8770   33.9060    5.3480 C.ar  1205  TR01205    -0.0026
     26  CA2       -3.1590   32.8690    9.2310 C.ar  1205  TR01205    -0.0000
     27  CAG       -5.6160   33.1760    6.5110 C.ar  1205  TR01205    -0.0003
     28  CAY       -4.3450   33.1850    7.1090 C.ar  1205  TR01205    -0.0000
     29  CBA       -4.0910   32.4370    8.2760 C.ar  1205  TR01205    -0.0000
     30  CAJ       -4.7490   31.2190    8.5230 C.ar  1205  TR01205    -0.0000
     31  CAI       -3.5710   30.9300   10.6340 C.ar  1205  TR01205     0.0000
@<TRIPOS>BOND
     1     1     2    1
     2     2     3   ar
     3     2     4   ar
     4     3     6   ar
     5     4     5   ar
     6     6     5   ar
     7     6     7    1
     8     7     8    1
     9     8     9    2
    10     8    10   am
    11    11    10    1
    12    11    12    1
    13    10    15    1
    14    13    12    1
    15    12    14    1
    16    15    16    1
    17    15    14    1
    18    17    16    2
    19    16    18   am
    20    18    19    1
    21    19    21    1
    22    21    25   ar
    23    21    22   ar
    24    25    27   ar
    25    22    24   ar
    26    27    28   ar
    27    24    28   ar
    28    28    29    1
    29    29    30   ar
    30    29    26   ar
    31    30    20   ar
    32    26    23   ar
    33    20    31   ar
    34    23    31   ar
