@<TRIPOS>MOLECULE
3ztd_ZTD_C_1.pdb
 29 31 0 0 0
SMALL
GASTEIGER

@<TRIPOS>ATOM
      1  CAA      -56.7560   10.6350    5.4820 C.3   1205  ZTD1205     0.0557
      2  CAW      -56.3720   11.6950    4.4410 C.ar  1205  ZTD1205     0.1007
      3  CAK      -55.1100   11.9720    4.0890 C.ar  1205  ZTD1205     0.0541
      4  NAQ      -57.2640   12.4560    3.7980 N.ar  1205  ZTD1205    -0.0817
      5  OAT      -56.5070   13.2520    2.9820 O.2   1205  ZTD1205    -0.3576
      6  CAZ      -55.1540   12.9460    3.1880 C.ar  1205  ZTD1205     0.1632
      7  CAM      -53.9740   13.6390    2.4240 C.3   1205  ZTD1205     0.1523
      8  CAU      -54.1200   13.2700    0.8960 C.2   1205  ZTD1205     0.2338
      9  OAB      -53.9750   12.0930    0.5890 O.2   1205  ZTD1205    -0.2744
     10  N        -54.4500   14.1080   -0.1210 N.am  1205  ZTD1205    -0.2699
     11  CD2      -54.8700   15.5030    0.0140 C.3   1205  ZTD1205     0.1266
     12  CG       -55.8260   15.6990   -1.1830 C.3   1205  ZTD1205     0.1739
     13  OD1      -57.1530   15.1540   -0.9350 O.3   1205  ZTD1205    -0.2212
     14  CB       -55.0980   14.9200   -2.2620 C.3   1205  ZTD1205     0.0639
     15  CA       -54.6930   13.6720   -1.5060 C.3   1205  ZTD1205     0.1561
     16  C        -53.4320   13.0760   -2.0730 C.2   1205  ZTD1205     0.2598
     17  O        -52.3560   13.6000   -1.7870 O.2   1205  ZTD1205    -0.2715
     18  NAR      -53.6010   11.9660   -2.8200 N.am  1205  ZTD1205    -0.1992
     19  CAL      -52.4890   11.1660   -3.3910 C.3   1205  ZTD1205     0.1415
     20  CAX      -51.9520   11.7350   -4.6990 C.ar  1205  ZTD1205    -0.0006
     21  CAE      -52.7700   12.5080   -5.5430 C.ar  1205  ZTD1205    -0.0023
     22  CAG      -52.2280   13.0170   -6.7380 C.ar  1205  ZTD1205     0.0062
     23  CAF      -50.6170   11.4850   -5.0650 C.ar  1205  ZTD1205    -0.0023
     24  CAH      -50.0810   12.0000   -6.2560 C.ar  1205  ZTD1205     0.0062
     25  CAY      -50.8950   12.7570   -7.1020 C.ar  1205  ZTD1205     0.0756
     26  CBA      -50.3340   13.3330   -8.4100 C.2   1205  ZTD1205     0.3413
     27  CAI      -48.6400   12.7770  -10.2080 C.3   1205  ZTD1205     0.2560
     28  OAD      -50.9670   14.2330   -8.9780 O.2   1205  ZTD1205    -0.2449
     29  OAS      -49.0730   12.9080   -8.8280 O.3   1205  ZTD1205    -0.4413
@<TRIPOS>BOND
     1    27    29    1
     2    28    26    2
     3    29    26    1
     4    26    25    1
     5    25    22   ar
     6    25    24   ar
     7    22    21   ar
     8    24    23   ar
     9    21    20   ar
    10    23    20   ar
    11    20    19    1
    12    19    18    1
    13    18    16   am
    14    14    15    1
    15    14    12    1
    16    16    17    2
    17    16    15    1
    18    15    10    1
    19    12    13    1
    20    12    11    1
    21    10    11    1
    22    10     8   am
    23     9     8    2
    24     8     7    1
    25     7     6    1
    26     5     6   ar
    27     5     4   ar
    28     6     3   ar
    29     4     2   ar
    30     3     2   ar
    31     2     1    1
