@<TRIPOS>MOLECULE
3zte_TRP_A_1.pdb
 15 16 0 0 0
SMALL
GASTEIGER

@<TRIPOS>ATOM
      1  N         48.5640    7.1000  -17.8610 N.3    80  TRP80      -0.1205
      2  CA        49.0820    7.9930  -18.9350 C.3    80  TRP80       0.1987
      3  C         48.7930    9.4360  -18.6370 C.2    80  TRP80       0.3822
      4  O         47.7000    9.7950  -18.1960 O.co2  80  TRP80      -0.2440
      5  CB        48.4340    7.6070  -20.2530 C.3    80  TRP80       0.0585
      6  CG        49.0110    8.4400  -21.3720 C.2    80  TRP80       0.0001
      7  CD1       48.5040    9.6270  -21.8970 C.2    80  TRP80       0.0946
      8  CD2       50.1910    8.1270  -22.2050 C.2    80  TRP80       0.0113
      9  NE1       49.2660   10.0640  -22.9420 N.2    80  TRP80      -0.2442
     10  CE2       50.3000    9.2330  -23.1710 C.2    80  TRP80       0.0804
     11  CE3       51.0940    7.0770  -22.1930 C.2    80  TRP80      -0.0202
     12  CZ2       51.3460    9.2080  -24.0810 C.2    80  TRP80       0.0148
     13  CZ3       52.1340    7.1090  -23.1190 C.3    80  TRP80       0.0521
     14  CH2       52.2410    8.1410  -24.0530 C.2    80  TRP80      -0.0199
     15  OXT       49.6550   10.3000  -18.7900 O.co2  80  TRP80      -0.2440
@<TRIPOS>BOND
     1    12    14    2
     2    12    10    1
     3    14    13    1
     4    10     9    2
     5    10     8    1
     6    13    11    1
     7     9     7    1
     8     8    11    2
     9     8     6    1
    10     7     6    2
    11     6     5    1
    12     5     2    1
    13     2     3    1
    14     2     1    1
    15    15     3   ar
    16     3     4   ar
