@<TRIPOS>MOLECULE
3ztm_HEC_A_1.pdb
 43 50 0 0 0
SMALL
GASTEIGER

@<TRIPOS>ATOM
      1 FE         23.1360  -24.5840    8.3860 Fe    128  HEC128      0.0000
      2  CHA       26.5480  -24.7110    8.4720 C.2   128  HEC128      0.0000
      3  CHB       23.0460  -24.9110   11.7810 C.2   128  HEC128      0.0000
      4  CHC       19.7480  -24.4310    8.3090 C.2   128  HEC128      0.0000
      5  CHD       23.2130  -24.5500    4.9900 C.2   128  HEC128      0.0000
      6  NA        24.5330  -24.7550    9.8410 N.2   128  HEC128      0.0000
      7  C1A       25.8790  -24.7970    9.6940 C.2   128  HEC128      0.0000
      8  C2A       26.5060  -25.0220   10.9690 C.2   128  HEC128      0.0000
      9  C3A       25.5190  -25.0340   11.8830 C.2   128  HEC128      0.0000
     10  C4A       24.2950  -24.8830   11.1880 C.2   128  HEC128      0.0000
     11  CMA       25.6570  -25.2640   13.3850 C.3   128  HEC128      0.0000
     12  CAA       27.9880  -25.2360   11.2610 C.3   128  HEC128      0.0000
     13  CBA       28.6810  -23.9120   11.4700 C.3   128  HEC128      0.0000
     14  CGA       30.1290  -24.1970   11.8380 C.2   128  HEC128      0.0000
     15  O1A       31.0050  -24.2930   10.9460 O.co2 128  HEC128      0.0000
     16  O2A       30.4290  -24.4140   13.0580 O.co2 128  HEC128      0.0000
     17  NB        21.6810  -24.6200    9.7870 N.ar  128  HEC128      0.0000
     18  C1B       21.8270  -24.7820   11.1160 C.ar  128  HEC128      0.0000
     19  C2B       20.5420  -24.8470   11.7830 C.ar  128  HEC128      0.0000
     20  C3B       19.6020  -24.6860   10.8000 C.ar  128  HEC128      0.0000
     21  C4B       20.3310  -24.5610    9.5520 C.ar  128  HEC128      0.0000
     22  CMB       20.3380  -25.0890   13.2540 C.3   128  HEC128      0.0000
     23  CAB       18.0880  -24.6920   10.8640 C.3   128  HEC128      0.0000
     24  CBB       17.5330  -23.8830   12.0630 C.3   128  HEC128      0.0000
     25  NC        21.7500  -24.5030    6.9290 N.2   128  HEC128      0.0000
     26  C1C       20.3870  -24.4240    7.0970 C.2   128  HEC128      0.0000
     27  C2C       19.7160  -24.3830    5.8220 C.2   128  HEC128      0.0000
     28  C3C       20.7110  -24.4160    4.8710 C.2   128  HEC128      0.0000
     29  C4C       21.9600  -24.4880    5.5790 C.2   128  HEC128      0.0000
     30  CMC       18.2240  -24.3350    5.6590 C.3   128  HEC128      0.0000
     31  CAC       20.6190  -24.3760    3.3600 C.3   128  HEC128      0.0000
     32  CBC       19.4060  -23.6900    2.7680 C.3   128  HEC128      0.0000
     33  ND        24.5930  -24.6120    6.9940 N.ar  128  HEC128      0.0000
     34  C1D       24.4320  -24.6090    5.6400 C.ar  128  HEC128      0.0000
     35  C2D       25.7110  -24.6900    4.9850 C.ar  128  HEC128      0.0000
     36  C3D       26.6650  -24.6950    5.9500 C.ar  128  HEC128      0.0000
     37  C4D       25.9520  -24.6640    7.2130 C.ar  128  HEC128      0.0000
     38  CMD       25.8990  -24.7600    3.4800 C.3   128  HEC128      0.0000
     39  CAD       28.1740  -24.7130    5.7910 C.3   128  HEC128      0.0000
     40  CBD       28.7800  -23.2950    5.8670 C.3   128  HEC128      0.0000
     41  CGD       30.2900  -23.2990    5.6420 C.2   128  HEC128      0.0000
     42  O1D       30.7630  -22.5020    4.8000 O.co2 128  HEC128      0.0000
     43  O2D       30.9800  -24.0980    6.3270 O.co2 128  HEC128      0.0000
@<TRIPOS>BOND
     1    32    31    1
     2    31    28    1
     3    38    35    1
     4    42    41   ar
     5    28    29    1
     6    28    27    2
     7    35    34   ar
     8    35    36   ar
     9     5    29    1
    10     5    34    2
    11    29    25    2
    12    34    33   ar
    13    41    40    1
    14    41    43   ar
    15    30    27    1
    16    39    40    1
    17    39    36    1
    18    27    26    1
    19    36    37   ar
    20    25    26    1
    21    25     1    1
    22    33    37   ar
    23    33     1    1
    24    26     4    2
    25    37     2    2
    26     4    21    1
    27     1    17    1
    28     1     6    1
    29     2     7    1
    30    21    17   ar
    31    21    20   ar
    32     7     6    2
    33     7     8    1
    34    17    18   ar
    35     6    10    1
    36    20    23    1
    37    20    19   ar
    38    23    24    1
    39    15    14   ar
    40     8    12    1
    41     8     9    2
    42    18     3    1
    43    18    19   ar
    44    10     3    2
    45    10     9    1
    46    12    13    1
    47    13    14    1
    48    19    22    1
    49    14    16   ar
    50     9    11    1
