@<TRIPOS>MOLECULE
3ztv_ADN_A_1.pdb
 19 21 0 0 0
SMALL
GASTEIGER

@<TRIPOS>ATOM
      1  O5'       10.3160   18.8280   91.8010 O.3   1600  ADN1600    -0.2176
      2  C5'       10.0840   19.0070   90.4020 C.3   1600  ADN1600     0.2143
      3  C4'       11.3970   19.3950   89.7330 C.3   1600  ADN1600     0.1851
      4  O4'       12.3120   18.2960   89.7680 O.3   1600  ADN1600    -0.3134
      5  C3'       11.2330   19.7570   88.2700 C.3   1600  ADN1600     0.2186
      6  O3'       10.9810   21.1560   88.1060 O.3   1600  ADN1600    -0.2174
      7  C2'       12.5660   19.3590   87.6660 C.3   1600  ADN1600     0.2570
      8  O2'       13.5140   20.4290   87.7630 O.3   1600  ADN1600    -0.2130
      9  C1'       13.0440   18.2180   88.5440 C.3   1600  ADN1600     0.3186
     10  N9        12.7500   16.9300   87.8780 N.pl3 1600  ADN1600    -0.1439
     11  C8        11.6430   16.1720   88.0100 C.3   1600  ADN1600     0.3377
     12  N7        11.7310   15.0520   87.2410 N.2   1600  ADN1600    -0.2095
     13  C5        12.9180   15.0930   86.5950 C.2   1600  ADN1600     0.2526
     14  C6        13.6640   14.2460   85.6370 C.2   1600  ADN1600     0.4393
     15  N6        13.1630   13.0810   85.1660 N.pl3 1600  ADN1600     0.2180
     16  N1        14.8760   14.6750   85.2340 N.2   1600  ADN1600     0.0021
     17  C2        15.4150   15.8260   85.6750 C.3   1600  ADN1600     0.5254
     18  N3        14.7990   16.6420   86.5420 N.2   1600  ADN1600    -0.0055
     19  C4        13.5780   16.3290   87.0300 C.2   1600  ADN1600     0.3518
@<TRIPOS>BOND
     1    15    14    1
     2    16    14    2
     3    16    17    1
     4    14    13    1
     5    17    18    1
     6    18    19    2
     7    13    19    1
     8    13    12    2
     9    19    10    1
    10    12    11    1
    11     7     8    1
    12     7     5    1
    13     7     9    1
    14    10    11    1
    15    10     9    1
    16     6     5    1
    17     5     3    1
    18     9     4    1
    19     3     4    1
    20     3     2    1
    21     2     1    1
