@<TRIPOS>MOLECULE
3ztx_ZTX_A_1.pdb
 32 36 0 0 0
SMALL
GASTEIGER

@<TRIPOS>ATOM
      1  N1        12.3520    3.0060    5.9460 N.2   1357  ZTX1357    -0.1669
      2  C2        12.0970    1.8520    5.2710 C.1   1357  ZTX1357     0.1709
      3  N3        10.8650    1.5830    4.7750 N.2   1357  ZTX1357    -0.3191
      4  C4         9.8630    2.4530    4.9120 C.2   1357  ZTX1357     0.2152
      5  C5        10.1040    3.6330    5.6180 C.2   1357  ZTX1357     0.1199
      6  C6        11.3780    3.8900    6.1410 C.2   1357  ZTX1357     0.1306
      7  OAA        7.1050    5.3120    6.3280 O.2   1357  ZTX1357    -0.2695
      8  CAB        7.8560    4.3480    6.1110 C.2   1357  ZTX1357     0.2541
      9  CAC        7.2290    2.9410    6.1050 C.ar  1357  ZTX1357     0.0676
     10  CAD        7.6370    1.8960    5.2620 C.ar  1357  ZTX1357     0.0580
     11  NAE        8.6930    1.9960    4.4040 N.pl3 1357  ZTX1357    -0.2590
     12  CAF        8.6050    1.4480    3.0320 C.3   1357  ZTX1357     0.1198
     13  CAH        5.9370    0.4450    6.2400 C.ar  1357  ZTX1357     0.0013
     14  CAI        5.5210    1.4870    7.0770 C.ar  1357  ZTX1357     0.0002
     15  CAK        6.1550    2.7560    7.0080 C.ar  1357  ZTX1357     0.0058
     16  CAL        6.9930    0.6340    5.3360 C.ar  1357  ZTX1357     0.0150
     17  NAN       13.0720    0.9500    5.1330 N.pl3 1357  ZTX1357    -0.1357
     18  CAO       13.2090   -0.0990    4.3330 C.ar  1357  ZTX1357     0.0827
     19  CAP       12.2440   -0.7450    3.5370 C.ar  1357  ZTX1357     0.0186
     20  CAQ       12.6230   -1.8420    2.7530 C.ar  1357  ZTX1357     0.0159
     21  CAR       13.9650   -2.2830    2.8040 C.ar  1357  ZTX1357     0.0479
     22  NAS       14.5120   -3.3540    2.0860 N.pl3 1357  ZTX1357    -0.3073
     23  CAT       14.9700   -4.5990    2.8000 C.3   1357  ZTX1357     0.0934
     24  CAU       14.6620   -5.8490    1.9520 C.3   1357  ZTX1357     0.0543
     25  CAV       14.9940   -5.6520    0.4480 C.3   1357  ZTX1357     0.1554
     26  OAW       14.5210   -6.7770   -0.2940 O.3   1357  ZTX1357    -0.2230
     27  CAX       14.3210   -4.3890   -0.1240 C.3   1357  ZTX1357     0.0543
     28  CAY       14.7910   -3.1540    0.6410 C.3   1357  ZTX1357     0.0934
     29  CAZ       14.8930   -1.6420    3.5980 C.ar  1357  ZTX1357     0.0159
     30  CBA       14.5050   -0.5600    4.3460 C.ar  1357  ZTX1357     0.0186
     31  NBG        9.1890    4.5860    5.8680 N.am  1357  ZTX1357    -0.2487
     32  CBH        9.6660    5.9870    5.9020 C.3   1357  ZTX1357     0.1205
@<TRIPOS>BOND
     1    26    25    1
     2    27    25    1
     3    27    28    1
     4    25    24    1
     5    28    22    1
     6    24    23    1
     7    22    23    1
     8    22    21    1
     9    20    21   ar
    10    20    19   ar
    11    21    29   ar
    12    12    11    1
    13    19    18   ar
    14    29    30   ar
    15    18    30   ar
    16    18    17    1
    17    11     4    1
    18    11    10    1
    19     3     4    2
    20     3     2    2
    21     4     5    1
    22    17     2    1
    23    10    16   ar
    24    10     9   ar
    25     2     1    2
    26    16    13   ar
    27     5    31    1
    28     5     6    2
    29    31    32    1
    30    31     8   am
    31     1     6    1
    32     9     8    1
    33     9    15   ar
    34     8     7    2
    35    13    14   ar
    36    15    14   ar
