@<TRIPOS>MOLECULE
3ztz_HEC_A_1.pdb
 43 50 0 0 0
SMALL
GASTEIGER

@<TRIPOS>ATOM
      1 FE         23.1300  -24.6010    8.3530 Fe    1126  HEC1126     0.0000
      2  CHA       26.5530  -24.7500    8.4020 C.2   1126  HEC1126     0.0000
      3  CHB       23.0380  -24.9170   11.7240 C.2   1126  HEC1126     0.0000
      4  CHC       19.7320  -24.3700    8.2970 C.2   1126  HEC1126     0.0000
      5  CHD       23.2190  -24.6060    4.9820 C.2   1126  HEC1126     0.0000
      6  NA        24.5210  -24.8340    9.8420 N.2   1126  HEC1126     0.0000
      7  C1A       25.9160  -24.8420    9.6450 C.2   1126  HEC1126     0.0000
      8  C2A       26.5270  -25.0300   10.9160 C.2   1126  HEC1126     0.0000
      9  C3A       25.5110  -25.0520   11.8310 C.2   1126  HEC1126     0.0000
     10  C4A       24.2980  -24.9270   11.1450 C.2   1126  HEC1126     0.0000
     11  CMA       25.6190  -25.2480   13.3560 C.3   1126  HEC1126     0.0000
     12  CAA       28.0050  -25.2620   11.2560 C.3   1126  HEC1126     0.0000
     13  CBA       28.6870  -23.9030   11.4360 C.3   1126  HEC1126     0.0000
     14  CGA       30.1470  -24.2530   11.8510 C.2   1126  HEC1126     0.0000
     15  O1A       30.9970  -24.3160   10.9110 O.co2 1126  HEC1126     0.0000
     16  O2A       30.4600  -24.4770   13.0400 O.co2 1126  HEC1126     0.0000
     17  NB        21.6590  -24.6160    9.7600 N.ar  1126  HEC1126     0.0000
     18  C1B       21.8110  -24.7890   11.0960 C.ar  1126  HEC1126     0.0000
     19  C2B       20.5380  -24.8610   11.7300 C.ar  1126  HEC1126     0.0000
     20  C3B       19.5970  -24.6700   10.7820 C.ar  1126  HEC1126     0.0000
     21  C4B       20.3260  -24.5220    9.5520 C.ar  1126  HEC1126     0.0000
     22  CMB       20.3260  -25.0900   13.2340 C.3   1126  HEC1126     0.0000
     23  CAB       18.0950  -24.6550   10.8270 C.3   1126  HEC1126     0.0000
     24  CBB       17.5420  -23.8570   12.0250 C.3   1126  HEC1126     0.0000
     25  NC        21.7370  -24.5240    6.8900 N.2   1126  HEC1126     0.0000
     26  C1C       20.3870  -24.4080    7.0580 C.2   1126  HEC1126     0.0000
     27  C2C       19.7090  -24.3590    5.7820 C.2   1126  HEC1126     0.0000
     28  C3C       20.7070  -24.4150    4.8410 C.2   1126  HEC1126     0.0000
     29  C4C       21.9690  -24.5120    5.5690 C.2   1126  HEC1126     0.0000
     30  CMC       18.2210  -24.3260    5.6520 C.3   1126  HEC1126     0.0000
     31  CAC       20.6170  -24.3620    3.3120 C.3   1126  HEC1126     0.0000
     32  CBC       19.3840  -23.6670    2.7540 C.3   1126  HEC1126     0.0000
     33  ND        24.6080  -24.7210    6.9200 N.ar  1126  HEC1126     0.0000
     34  C1D       24.4470  -24.6890    5.6210 C.ar  1126  HEC1126     0.0000
     35  C2D       25.6840  -24.7300    4.9570 C.ar  1126  HEC1126     0.0000
     36  C3D       26.6580  -24.7230    5.8980 C.ar  1126  HEC1126     0.0000
     37  C4D       25.9540  -24.7100    7.1480 C.ar  1126  HEC1126     0.0000
     38  CMD       25.8770  -24.8010    3.4200 C.3   1126  HEC1126     0.0000
     39  CAD       28.1580  -24.7400    5.7530 C.3   1126  HEC1126     0.0000
     40  CBD       28.7430  -23.3270    5.7390 C.3   1126  HEC1126     0.0000
     41  CGD       30.2680  -23.2890    5.6100 C.2   1126  HEC1126     0.0000
     42  O1D       30.7590  -22.4790    4.7820 O.co2 1126  HEC1126     0.0000
     43  O2D       30.9770  -24.0760    6.2990 O.co2 1126  HEC1126     0.0000
@<TRIPOS>BOND
     1    32    31    1
     2    31    28    1
     3    38    35    1
     4    42    41   ar
     5    28    29    1
     6    28    27    2
     7    35    34   ar
     8    35    36   ar
     9     5    29    1
    10     5    34    2
    11    29    25    2
    12    41    40    1
    13    41    43   ar
    14    34    33   ar
    15    30    27    1
    16    40    39    1
    17    39    36    1
    18    27    26    1
    19    36    37   ar
    20    25    26    1
    21    25     1    1
    22    33    37   ar
    23    33     1    1
    24    26     4    2
    25    37     2    2
    26     4    21    1
    27     1    17    1
    28     1     6    1
    29     2     7    1
    30    21    17   ar
    31    21    20   ar
    32     7     6    2
    33     7     8    1
    34    17    18   ar
    35     6    10    1
    36    20    23    1
    37    20    19   ar
    38    23    24    1
    39    15    14   ar
    40     8    12    1
    41     8     9    2
    42    18     3    1
    43    18    19   ar
    44    10     3    2
    45    10     9    1
    46    12    13    1
    47    13    14    1
    48    19    22    1
    49     9    11    1
    50    14    16   ar
