@<TRIPOS>MOLECULE
3zu0_A12_A_1.pdb
 27 29 0 0 0
SMALL
GASTEIGER

@<TRIPOS>ATOM
      1  PB         3.6320   77.7560   10.4020 P.3   1598  A121598     0.1295
      2  O1B        4.2290   78.0520    8.9760 O.2   1598  A121598    -0.4595
      3  O2B        4.8050   77.6960   11.3560 O.3   1598  A121598    -0.3567
      4  O3B        2.7080   78.8330   10.8200 O.3   1598  A121598    -0.3567
      5  PA         3.7790   74.8100   10.3130 P.3   1598  A121598     0.3770
      6  O1A        5.1850   75.3230    9.9350 O.3   1598  A121598    -0.1394
      7  O2A        3.2430   73.5890    9.5180 O.2   1598  A121598    -0.2550
      8  C3A        2.8550   76.2370   10.4140 C.3   1598  A121598     0.1765
      9  O5'        3.9080   74.6780   11.9320 O.3   1598  A121598    -0.2897
     10  C5'        3.8860   73.4140   12.5000 C.3   1598  A121598     0.1836
     11  C4'        4.9930   72.5350   12.2190 C.3   1598  A121598     0.1822
     12  O4'        6.1770   73.1230   12.8280 O.3   1598  A121598    -0.3135
     13  C3'        4.8860   71.2780   12.9690 C.3   1598  A121598     0.2184
     14  O3'        4.0680   70.3460   12.3920 O.3   1598  A121598    -0.2174
     15  C2'        6.2960   70.8050   13.0550 C.3   1598  A121598     0.2570
     16  O2'        6.6610   70.1050   11.9370 O.3   1598  A121598    -0.2130
     17  C1'        7.0640   72.0750   13.1620 C.3   1598  A121598     0.3186
     18  N9         7.5390   72.2560   14.5070 N.pl3 1598  A121598    -0.1439
     19  C8         6.9110   72.9350   15.4980 C.3   1598  A121598     0.3377
     20  N7         7.6790   72.8470   16.5790 N.2   1598  A121598    -0.2095
     21  C5         8.8190   72.1170   16.2840 C.2   1598  A121598     0.2526
     22  C6         9.9730   71.7200   17.0140 C.2   1598  A121598     0.4393
     23  N6        10.1720   72.0350   18.3640 N.pl3 1598  A121598     0.2180
     24  N1        10.8970   71.0170   16.3800 N.2   1598  A121598     0.0021
     25  C2        10.7590   70.6660   15.1100 C.3   1598  A121598     0.5254
     26  N3         9.6880   71.0160   14.3820 N.2   1598  A121598    -0.0055
     27  C4         8.7190   71.7390   14.9600 C.2   1598  A121598     0.3518
@<TRIPOS>BOND
     1     2     1    2
     2     7     5    2
     3     6     5    1
     4     5     8    1
     5     5     9    1
     6     1     8    1
     7     1     4    1
     8     1     3    1
     9     9    10    1
    10    16    15    1
    11    11    10    1
    12    11    12    1
    13    11    13    1
    14    14    13    1
    15    12    17    1
    16    13    15    1
    17    15    17    1
    18    17    18    1
    19    26    27    2
    20    26    25    1
    21    18    27    1
    22    18    19    1
    23    27    21    1
    24    25    24    1
    25    19    20    1
    26    21    20    2
    27    21    22    1
    28    24    22    2
    29    22    23    1
