@<TRIPOS>MOLECULE
3zu2_NAI_A_1.pdb
 44 48 0 0 0
SMALL
GASTEIGER

@<TRIPOS>ATOM
      1  PA        35.5250   66.7790    5.9820 P.3   1423  NAI1423     0.2189
      2  O1A       34.1350   67.0580    5.4880 O.3   1423  NAI1423    -0.4371
      3  O2A       36.3620   66.3660    4.7850 O.2   1423  NAI1423    -0.5170
      4  O5B       35.9950   68.0240    6.7810 O.3   1423  NAI1423    -0.3112
      5  C5B       37.3210   68.2320    7.1340 C.3   1423  NAI1423     0.1813
      6  C4B       37.4540   69.6130    7.7090 C.3   1423  NAI1423     0.1821
      7  O4B       38.7380   69.8540    8.2030 O.3   1423  NAI1423    -0.3135
      8  C3B       37.2170   70.6670    6.6900 C.3   1423  NAI1423     0.2184
      9  O3B       36.7670   71.7940    7.3490 O.3   1423  NAI1423    -0.2174
     10  C2B       38.5730   70.9500    6.2130 C.3   1423  NAI1423     0.2570
     11  O2B       38.6880   72.1780    5.6030 O.3   1423  NAI1423    -0.2130
     12  C1B       39.2840   70.9410    7.4960 C.3   1423  NAI1423     0.3186
     13  N9A       40.6810   70.7450    7.2700 N.pl3 1423  NAI1423    -0.1439
     14  C8A       41.2280   69.7230    6.5690 C.3   1423  NAI1423     0.3377
     15  N7A       42.5810   69.8710    6.6010 N.2   1423  NAI1423    -0.2095
     16  C5A       42.8650   70.9790    7.3170 C.2   1423  NAI1423     0.2526
     17  C6A       44.0550   71.5820    7.6440 C.2   1423  NAI1423     0.4393
     18  N6A       45.2960   71.0280    7.1830 N.pl3 1423  NAI1423     0.2180
     19  N1A       44.0590   72.6970    8.3830 N.2   1423  NAI1423     0.0021
     20  C2A       42.8850   73.2410    8.8010 C.3   1423  NAI1423     0.5254
     21  N3A       41.7030   72.6440    8.4700 N.2   1423  NAI1423    -0.0055
     22  C4A       41.6890   71.5260    7.7270 C.2   1423  NAI1423     0.3518
     23  O3        35.6950   65.6670    7.0860 O.3   1423  NAI1423    -0.2703
     24  PN        34.6750   64.8710    7.9790 P.3   1423  NAI1423     0.2189
     25  O1N       34.3400   63.6410    7.1800 O.2   1423  NAI1423    -0.5170
     26  O2N       33.4160   65.5770    8.4300 O.3   1423  NAI1423    -0.4371
     27  O5D       35.5740   64.5140    9.2080 O.3   1423  NAI1423    -0.3112
     28  C5D       35.6350   65.2790   10.3610 C.3   1423  NAI1423     0.1813
     29  C4D       35.9410   64.3940   11.5380 C.3   1423  NAI1423     0.1796
     30  O4D       34.9020   63.4950   11.7680 O.3   1423  NAI1423    -0.3354
     31  C3D       37.1210   63.5510   11.2750 C.3   1423  NAI1423     0.2155
     32  O3D       37.8920   63.3700   12.5000 O.3   1423  NAI1423    -0.2176
     33  C2D       36.6270   62.2650   10.8050 C.3   1423  NAI1423     0.2271
     34  O2D       37.5240   61.2740   11.1030 O.3   1423  NAI1423    -0.2161
     35  C1D       35.4370   62.1990   11.6490 C.3   1423  NAI1423     0.2096
     36  N1N       34.4260   61.1780   11.1880 N.3   1423  NAI1423    -0.2482
     37  C2N       34.0510   61.0390    9.8200 C.3   1423  NAI1423     0.0834
     38  C3N       32.9660   60.2840    9.4740 C.3   1423  NAI1423     0.0959
     39  C7N       32.5410   60.1910    8.0590 C.2   1423  NAI1423     0.2616
     40  O7N       31.9540   58.9970    7.8520 O.2   1423  NAI1423    -0.2716
     41  N7N       32.8420   61.3050    7.3500 N.am  1423  NAI1423    -0.0878
     42  C4N       32.3830   59.2800   10.4330 C.3   1423  NAI1423     0.0120
     43  C5N       32.6490   59.6750   11.8610 C.3   1423  NAI1423     0.0179
     44  C6N       33.7350   60.4420   12.1880 C.3   1423  NAI1423     0.0743
@<TRIPOS>BOND
     1     3     1    2
     2     2     1    1
     3    11    10    1
     4     1     4    1
     5     1    23    1
     6    10     8    1
     7    10    12    1
     8    14    15    1
     9    14    13    1
    10    15    16    2
    11     8     9    1
    12     8     6    1
    13     4     5    1
    14    23    24    1
    15     5     6    1
    16    25    24    2
    17    18    17    1
    18    13    12    1
    19    13    22    1
    20    16    17    1
    21    16    22    1
    22    41    39   am
    23    12     7    1
    24    17    19    2
    25     6     7    1
    26    22    21    2
    27    40    39    2
    28    24    26    1
    29    24    27    1
    30    39    38    1
    31    19    20    1
    32    21    20    1
    33    27    28    1
    34    38    37    1
    35    38    42    1
    36    37    36    1
    37    28    29    1
    38    42    43    1
    39    33    34    1
    40    33    31    1
    41    33    35    1
    42    36    35    1
    43    36    44    1
    44    31    29    1
    45    31    32    1
    46    29    30    1
    47    35    30    1
    48    43    44    1
