@<TRIPOS>MOLECULE
3zu3_NAI_A_1.pdb
 44 48 0 0 0
SMALL
GASTEIGER

@<TRIPOS>ATOM
      1  PA         4.6440  -37.8200   -4.1840 P.3   1400  NAI1400     0.2189
      2  O1A        5.2850  -39.1400   -3.8490 O.2   1400  NAI1400    -0.5170
      3  O2A        3.3620  -37.5660   -3.4440 O.3   1400  NAI1400    -0.4371
      4  O5B        5.7280  -36.7070   -3.8930 O.3   1400  NAI1400    -0.3112
      5  C5B        5.4740  -35.3440   -4.0360 C.3   1400  NAI1400     0.1813
      6  C4B        6.6730  -34.5210   -3.6600 C.3   1400  NAI1400     0.1821
      7  O4B        6.3270  -33.1750   -3.7530 O.3   1400  NAI1400    -0.3135
      8  C3B        7.1310  -34.7490   -2.2650 C.3   1400  NAI1400     0.2184
      9  O3B        8.5210  -34.7380   -2.2300 O.3   1400  NAI1400    -0.2174
     10  C2B        6.5900  -33.6000   -1.5150 C.3   1400  NAI1400     0.2570
     11  O2B        7.3510  -33.2450   -0.4180 O.3   1400  NAI1400    -0.2130
     12  C1B        6.6670  -32.5530   -2.5360 C.3   1400  NAI1400     0.3186
     13  N9A        5.8160  -31.4250   -2.2820 N.pl3 1400  NAI1400    -0.1439
     14  C8A        4.4650  -31.3750   -2.3220 C.3   1400  NAI1400     0.3377
     15  N7A        4.0830  -30.0810   -2.1350 N.2   1400  NAI1400    -0.2095
     16  C5A        5.2000  -29.3340   -1.9910 C.2   1400  NAI1400     0.2526
     17  C6A        5.4060  -27.9880   -1.7780 C.2   1400  NAI1400     0.4393
     18  N6A        4.2950  -27.0970   -1.6820 N.pl3 1400  NAI1400     0.2180
     19  N1A        6.6600  -27.5120   -1.6690 N.2   1400  NAI1400     0.0021
     20  C2A        7.7280  -28.3550   -1.7580 C.3   1400  NAI1400     0.5254
     21  N3A        7.5260  -29.6850   -1.9680 N.2   1400  NAI1400    -0.0055
     22  C4A        6.2710  -30.1680   -2.0780 C.2   1400  NAI1400     0.3518
     23  O3         4.3140  -37.6550   -5.7380 O.3   1400  NAI1400    -0.2703
     24  PN         4.6090  -38.5380   -7.0110 P.3   1400  NAI1400     0.2189
     25  O1N        3.4600  -39.5000   -7.2050 O.2   1400  NAI1400    -0.5170
     26  O2N        5.9290  -39.2500   -7.0820 O.3   1400  NAI1400    -0.4371
     27  O5D        4.4770  -37.4570   -8.1620 O.3   1400  NAI1400    -0.3112
     28  C5D        5.5850  -36.6870   -8.5540 C.3   1400  NAI1400     0.1813
     29  C4D        5.4400  -36.2610   -9.9840 C.3   1400  NAI1400     0.1799
     30  O4D        5.4140  -37.3840  -10.8100 O.3   1400  NAI1400    -0.3327
     31  C3D        4.1660  -35.5550  -10.1940 C.3   1400  NAI1400     0.2158
     32  O3D        4.3310  -34.4700  -11.1590 O.3   1400  NAI1400    -0.2175
     33  C2D        3.2620  -36.5470  -10.7520 C.3   1400  NAI1400     0.2309
     34  O2D        2.3100  -35.9460  -11.5350 O.3   1400  NAI1400    -0.2158
     35  C1D        4.2220  -37.3230  -11.5440 C.3   1400  NAI1400     0.2261
     36  N1N        3.7620  -38.7170  -11.8950 N.pl3 1400  NAI1400    -0.2831
     37  C2N        3.2720  -39.6050  -10.8910 C.2   1400  NAI1400     0.0633
     38  C3N        2.8090  -40.8500  -11.2220 C.2   1400  NAI1400     0.0490
     39  C7N        2.3130  -41.7800  -10.1630 C.2   1400  NAI1400     0.2814
     40  O7N        1.5760  -42.7580  -10.7080 O.2   1400  NAI1400    -0.2670
     41  N7N        2.7090  -41.4390   -8.9220 N.am  1400  NAI1400    -0.0839
     42  C4N        2.6800  -41.2790  -12.6690 C.3   1400  NAI1400     0.0341
     43  C5N        3.5740  -40.4640  -13.5620 C.3   1400  NAI1400     0.0264
     44  C6N        3.8560  -39.1650  -13.2410 C.3   1400  NAI1400     0.0934
@<TRIPOS>BOND
     1    43    44    1
     2    43    42    1
     3    44    36    1
     4    42    38    1
     5    36    35    1
     6    36    37    1
     7    35    30    1
     8    35    33    1
     9    34    33    1
    10    38    37    2
    11    38    39    1
    12    32    31    1
    13    30    29    1
    14    33    31    1
    15    40    39    2
    16    31    29    1
    17    39    41   am
    18    29    28    1
    19    28    27    1
    20    27    24    1
    21    25    24    2
    22    26    24    1
    23    24    23    1
    24    23     1    1
    25     1     4    1
    26     1     2    2
    27     1     3    1
    28     5     4    1
    29     5     6    1
    30     7     6    1
    31     7    12    1
    32     6     8    1
    33    12    13    1
    34    12    10    1
    35    14    13    1
    36    14    15    1
    37    13    22    1
    38     8     9    1
    39     8    10    1
    40    15    16    2
    41    22    16    1
    42    22    21    2
    43    16    17    1
    44    21    20    1
    45    17    18    1
    46    17    19    2
    47    20    19    1
    48    10    11    1
