@<TRIPOS>MOLECULE
3zu4_NAI_A_1.pdb
 44 48 0 0 0
SMALL
GASTEIGER

@<TRIPOS>ATOM
      1  PA        35.1710  -14.6770   10.0450 P.3   1400  NAI1400     0.2189
      2  O1A       36.6010  -14.7460   10.3460 O.co2 1400  NAI1400    -0.5170
      3  O2A       34.2590  -15.4240   10.8880 O.3   1400  NAI1400    -0.4371
      4  O5B       34.7660  -13.1080   10.1090 O.3   1400  NAI1400    -0.3112
      5  C5B       33.4230  -12.6220   10.0670 C.3   1400  NAI1400     0.1813
      6  C4B       33.3960  -11.1210   10.4870 C.3   1400  NAI1400     0.1821
      7  O4B       32.0210  -10.8330   10.5170 O.3   1400  NAI1400    -0.3135
      8  C3B       33.9080  -10.9420   11.9260 C.3   1400  NAI1400     0.2184
      9  O3B       34.5880   -9.6710   12.0700 O.3   1400  NAI1400    -0.2174
     10  C2B       32.6180  -10.9900   12.7230 C.3   1400  NAI1400     0.2570
     11  O2B       32.7330  -10.2370   13.9150 O.3   1400  NAI1400    -0.2130
     12  C1B       31.7300  -10.2650   11.7550 C.3   1400  NAI1400     0.3186
     13  N9A       30.3030  -10.4430   11.9860 N.pl3 1400  NAI1400    -0.1439
     14  C8A       29.5790  -11.5730   11.8950 C.3   1400  NAI1400     0.3377
     15  N7A       28.3080  -11.2640   12.1090 N.2   1400  NAI1400    -0.2095
     16  C5A       28.2130   -9.9440   12.2290 C.2   1400  NAI1400     0.2526
     17  C6A       27.1700   -9.0630   12.5360 C.2   1400  NAI1400     0.4393
     18  N6A       25.9110   -9.4870   12.6130 N.pl3 1400  NAI1400     0.2180
     19  N1A       27.4460   -7.7530   12.6390 N.2   1400  NAI1400     0.0021
     20  C2A       28.6820   -7.3080   12.5120 C.3   1400  NAI1400     0.5254
     21  N3A       29.6970   -8.1290   12.3510 N.2   1400  NAI1400    -0.0055
     22  C4A       29.4800   -9.4340   12.1730 C.2   1400  NAI1400     0.3518
     23  O3        34.8310  -15.0010    8.5220 O.3   1400  NAI1400    -0.2703
     24  PN        35.7360  -15.1780    7.2200 P.3   1400  NAI1400     0.2189
     25  O1N       35.8180  -16.6260    7.0070 O.co2 1400  NAI1400    -0.5170
     26  O2N       36.9810  -14.3810    7.1820 O.3   1400  NAI1400    -0.4371
     27  O5D       34.5830  -14.6100    6.2160 O.3   1400  NAI1400    -0.3112
     28  C5D       34.7080  -13.3470    5.5590 C.3   1400  NAI1400     0.1813
     29  C4D       34.0780  -13.4050    4.1950 C.3   1400  NAI1400     0.1799
     30  O4D       35.0330  -14.0750    3.3790 O.3   1400  NAI1400    -0.3327
     31  C3D       32.7370  -14.1550    4.0370 C.3   1400  NAI1400     0.2158
     32  O3D       31.9990  -13.4780    2.9840 O.3   1400  NAI1400    -0.2175
     33  C2D       33.2220  -15.5020    3.5330 C.3   1400  NAI1400     0.2309
     34  O2D       32.1910  -16.2010    2.8590 O.3   1400  NAI1400    -0.2158
     35  C1D       34.3210  -15.0480    2.5840 C.3   1400  NAI1400     0.2263
     36  N1N       35.3910  -16.0590    2.2920 N.pl3 1400  NAI1400    -0.2787
     37  C2N       35.7930  -16.9600    3.2910 C.3   1400  NAI1400     0.1244
     38  C3N       36.6560  -18.0120    2.9460 C.2   1400  NAI1400     0.0544
     39  C7N       37.3100  -18.8840    4.0070 C.2   1400  NAI1400     0.2818
     40  O7N       38.1000  -19.9090    3.5840 O.2   1400  NAI1400    -0.2670
     41  N7N       37.0720  -18.5910    5.2990 N.am  1400  NAI1400    -0.0839
     42  C4N       37.0460  -18.2950    1.4920 C.2   1400  NAI1400     0.0033
     43  C5N       36.6250  -17.2910    0.5990 C.2   1400  NAI1400     0.0157
     44  C6N       35.8990  -16.1620    0.9850 C.2   1400  NAI1400     0.0633
@<TRIPOS>UNITY_ATOM_ATTR
2 1
charge -1
25 1
charge -1
@<TRIPOS>BOND
     1    43    44    2
     2    43    42    1
     3    44    36    1
     4    42    38    2
     5    36    35    1
     6    36    37    1
     7    35    30    1
     8    35    33    1
     9    34    33    1
    10    38    37    1
    11    38    39    1
    12    32    31    1
    13    30    29    1
    14    33    31    1
    15    40    39    2
    16    39    41   am
    17    31    29    1
    18    29    28    1
    19    28    27    1
    20    27    24    1
    21    25    24    2
    22    26    24    1
    23    24    23    1
    24    23     1    1
    25     1     4    1
    26     1     2    2
    27     1     3    1
    28     5     4    1
    29     5     6    1
    30     6     7    1
    31     6     8    1
    32     7    12    1
    33    12    13    1
    34    12    10    1
    35    14    13    1
    36    14    15    1
    37     8     9    1
    38     8    10    1
    39    13    22    1
    40    15    16    2
    41    22    16    1
    42    22    21    2
    43    16    17    1
    44    21    20    1
    45    20    19    1
    46    17    18    1
    47    17    19    2
    48    10    11    1
