@<TRIPOS>MOLECULE
3zu4_ZU4_A_1.pdb
 21 22 0 0 0
SMALL
GASTEIGER

@<TRIPOS>ATOM
      1  O17       32.4450  -18.9270    2.5530 O.2   1401  ZU41401    -0.2670
      2  C6        33.3060  -19.6670    3.0580 C.ar  1401  ZU41401     0.2609
      3  C1        34.1710  -20.4200    2.2520 C.ar  1401  ZU41401     0.0565
      4  C2        35.1100  -21.2640    2.8220 C.ar  1401  ZU41401    -0.0160
      5  C16       36.0580  -22.0500    1.9320 C.3   1401  ZU41401     0.0266
      6  C17       35.9530  -23.5720    2.0870 C.3   1401  ZU41401     0.0047
      7  C18       34.4990  -24.0330    2.1120 C.3   1401  ZU41401     0.0003
      8  C19       34.3280  -25.4770    1.6100 C.3   1401  ZU41401     0.0000
      9  C20       35.3830  -26.4240    2.1780 C.3   1401  ZU41401     0.0000
     10  C21       34.9530  -27.8270    1.7610 C.3   1401  ZU41401     0.0000
     11  C3        35.2140  -21.3660    4.2090 C.ar  1401  ZU41401     0.0146
     12  C4        34.3690  -20.6320    5.0360 C.ar  1401  ZU41401     0.0783
     13  C8        29.9580  -19.3780    5.8390 C.ar  1401  ZU41401     0.0555
     14  C9        28.8240  -20.1940    5.8490 C.ar  1401  ZU41401     0.0111
     15  C10       28.9180  -21.5170    5.4140 C.ar  1401  ZU41401     0.0008
     16  C11       30.1360  -22.0220    4.9720 C.ar  1401  ZU41401    -0.0002
     17  C12       31.2540  -21.2000    4.9780 C.ar  1401  ZU41401    -0.0016
     18  C13       31.1940  -19.8700    5.4110 C.ar  1401  ZU41401     0.0111
     19  NAD       33.4220  -19.7790    4.4650 N.ar  1401  ZU41401    -0.2899
     20  C14       32.4950  -19.0370    5.3580 C.3   1401  ZU41401     0.1366
     21 CL         29.8160  -17.7330    6.3860 Cl    1401  ZU41401    -0.0825
@<TRIPOS>BOND
     1     8     7    1
     2     8     9    1
     3    10     9    1
     4     5     6    1
     5     5     4    1
     6     6     7    1
     7     3     4   ar
     8     3     2   ar
     9     1     2    2
    10     4    11   ar
    11     2    19   ar
    12    11    12   ar
    13    19    12   ar
    14    19    20    1
    15    16    17   ar
    16    16    15   ar
    17    17    18   ar
    18    20    18    1
    19    18    13   ar
    20    15    14   ar
    21    13    14   ar
    22    13    21    1
