@<TRIPOS>MOLECULE
3zu5_NAI_A_1.pdb
 44 48 0 0 0
SMALL
GASTEIGER

@<TRIPOS>ATOM
      1  PA         4.8330  -37.7010   -4.0810 P.3   1400  NAI1400     0.2189
      2  O1A        5.4700  -38.9990   -3.8400 O.co2 1400  NAI1400    -0.5170
      3  O2A        3.7120  -37.2780   -3.2040 O.3   1400  NAI1400    -0.4371
      4  O5B        5.9700  -36.6040   -3.8980 O.3   1400  NAI1400    -0.3112
      5  C5B        5.8010  -35.2040   -4.1780 C.3   1400  NAI1400     0.1813
      6  C4B        7.0180  -34.4150   -3.6500 C.3   1400  NAI1400     0.1821
      7  O4B        6.5460  -33.0960   -3.6040 O.3   1400  NAI1400    -0.3135
      8  C3B        7.3960  -34.7720   -2.1930 C.3   1400  NAI1400     0.2184
      9  O3B        8.8160  -34.6920   -2.0660 O.3   1400  NAI1400    -0.2174
     10  C2B        6.7430  -33.6580   -1.4000 C.3   1400  NAI1400     0.2570
     11  O2B        7.5180  -33.3940   -0.2320 O.3   1400  NAI1400    -0.2130
     12  C1B        6.9610  -32.5420   -2.3800 C.3   1400  NAI1400     0.3186
     13  N9A        6.1050  -31.3890   -2.1310 N.pl3 1400  NAI1400    -0.1439
     14  C8A        4.7610  -31.3370   -2.1630 C.3   1400  NAI1400     0.3377
     15  N7A        4.3860  -30.0730   -1.9610 N.2   1400  NAI1400    -0.2095
     16  C5A        5.4940  -29.3290   -1.8180 C.2   1400  NAI1400     0.2526
     17  C6A        5.7250  -27.9740   -1.5190 C.2   1400  NAI1400     0.4393
     18  N6A        4.7030  -27.0980   -1.4430 N.pl3 1400  NAI1400     0.2180
     19  N1A        7.0000  -27.5530   -1.5080 N.2   1400  NAI1400     0.0021
     20  C2A        8.0160  -28.4200   -1.5060 C.3   1400  NAI1400     0.5254
     21  N3A        7.8400  -29.7170   -1.7360 N.2   1400  NAI1400    -0.0055
     22  C4A        6.5880  -30.1870   -1.8890 C.2   1400  NAI1400     0.3518
     23  O3         4.4420  -37.5370   -5.6330 O.3   1400  NAI1400    -0.2703
     24  PN         4.6590  -38.4530   -6.9160 P.3   1400  NAI1400     0.2189
     25  O1N        3.4320  -39.3000   -7.0390 O.co2 1400  NAI1400    -0.5170
     26  O2N        5.9680  -39.1470   -6.9790 O.3   1400  NAI1400    -0.4371
     27  O5D        4.5240  -37.2600   -7.9980 O.3   1400  NAI1400    -0.3112
     28  C5D        5.7000  -36.6330   -8.6010 C.3   1400  NAI1400     0.1813
     29  C4D        5.3770  -36.1090   -9.9720 C.3   1400  NAI1400     0.1799
     30  O4D        5.2540  -37.2940  -10.7680 O.3   1400  NAI1400    -0.3327
     31  C3D        4.0160  -35.3500  -10.0990 C.3   1400  NAI1400     0.2158
     32  O3D        4.1190  -34.3430  -11.1330 O.3   1400  NAI1400    -0.2175
     33  C2D        3.0820  -36.4430  -10.5810 C.3   1400  NAI1400     0.2309
     34  O2D        1.8990  -35.9010  -11.2120 O.3   1400  NAI1400    -0.2158
     35  C1D        4.0280  -37.1740  -11.5400 C.3   1400  NAI1400     0.2263
     36  N1N        3.6630  -38.6050  -11.8330 N.pl3 1400  NAI1400    -0.2787
     37  C2N        3.0410  -39.4000  -10.8300 C.3   1400  NAI1400     0.1244
     38  C3N        2.6210  -40.6830  -11.1580 C.2   1400  NAI1400     0.0544
     39  C7N        2.1790  -41.6730  -10.0820 C.2   1400  NAI1400     0.2818
     40  O7N        1.6710  -42.8570  -10.5030 O.2   1400  NAI1400    -0.2670
     41  N7N        2.3230  -41.3370   -8.7820 N.am  1400  NAI1400    -0.0839
     42  C4N        2.4980  -41.1170  -12.6400 C.2   1400  NAI1400     0.0033
     43  C5N        3.3220  -40.3490  -13.4960 C.2   1400  NAI1400     0.0157
     44  C6N        3.8600  -39.1160  -13.1210 C.2   1400  NAI1400     0.0633
@<TRIPOS>UNITY_ATOM_ATTR
2 1
charge -1
25 1
charge -1
@<TRIPOS>BOND
     1    43    44    2
     2    43    42    1
     3    44    36    1
     4    42    38    2
     5    36    35    1
     6    36    37    1
     7    35    30    1
     8    35    33    1
     9    34    33    1
    10    38    37    1
    11    38    39    1
    12    32    31    1
    13    30    29    1
    14    33    31    1
    15    40    39    2
    16    31    29    1
    17    39    41   am
    18    29    28    1
    19    28    27    1
    20    27    24    1
    21    25    24    2
    22    26    24    1
    23    24    23    1
    24    23     1    1
    25     5     4    1
    26     5     6    1
    27     1     4    1
    28     1     2    2
    29     1     3    1
    30     6     7    1
    31     6     8    1
    32     7    12    1
    33    12    13    1
    34    12    10    1
    35     8     9    1
    36     8    10    1
    37    14    13    1
    38    14    15    1
    39    13    22    1
    40    15    16    2
    41    22    16    1
    42    22    21    2
    43    16    17    1
    44    21    20    1
    45    17    19    2
    46    17    18    1
    47    19    20    1
    48    10    11    1
