@<TRIPOS>MOLECULE
3zu5_AEW_A_1.pdb
 22 23 0 0 0
SMALL
GASTEIGER

@<TRIPOS>ATOM
      1  CAV       -6.7580  -43.9720  -11.8070 C.3   1401  AEW1401     0.0000
      2  CAU       -5.2730  -44.0760  -11.4700 C.3   1401  AEW1401     0.0000
      3  CAT       -4.5350  -43.4520  -12.6370 C.3   1401  AEW1401     0.0000
      4  CAS       -3.6480  -42.3000  -12.1920 C.3   1401  AEW1401     0.0003
      5  CAR       -2.3270  -42.9130  -11.7390 C.3   1401  AEW1401     0.0043
      6  CAQ       -1.1540  -42.0430  -12.1420 C.3   1401  AEW1401     0.0222
      7  CAM       -1.0020  -40.8370  -11.2380 C.2   1401  AEW1401    -0.0378
      8  CAH       -0.7150  -39.6120  -11.8240 C.3   1401  AEW1401     0.1070
      9  CAC       -0.5300  -38.4640  -11.0540 C.2   1401  AEW1401     0.2302
     10  OAA       -0.2910  -37.3600  -11.5790 O.2   1401  AEW1401    -0.2745
     11  CAN       -1.1040  -40.9610   -9.8550 C.2   1401  AEW1401    -0.0127
     12  CAI       -0.9170  -39.8340   -9.0560 C.3   1401  AEW1401     0.1196
     13  NAD       -0.6340  -38.5880   -9.6540 N.am  1401  AEW1401    -0.2711
     14  CAE       -0.4690  -37.3750   -8.8230 C.3   1401  AEW1401     0.1202
     15  CAF       -1.8560  -36.8160   -8.5020 C.ar  1401  AEW1401    -0.0050
     16  CAG       -2.0790  -35.7860   -7.5670 C.ar  1401  AEW1401    -0.0074
     17  CAB       -0.8820  -35.1550   -6.8070 C.3   1401  AEW1401     0.0322
     18  CAJ       -2.9460  -37.3750   -9.1860 C.ar  1401  AEW1401    -0.0028
     19  CAO       -4.2430  -36.9270   -8.9450 C.ar  1401  AEW1401     0.0011
     20  CAP       -4.4610  -35.9020   -8.0170 C.ar  1401  AEW1401     0.0177
     21  CAK       -3.3870  -35.3300   -7.3200 C.ar  1401  AEW1401     0.0849
     22  NAL       -3.6250  -34.3520   -6.4330 N.pl3 1401  AEW1401    -0.1284
@<TRIPOS>BOND
     1     3     4    1
     2     3     2    1
     3     4     5    1
     4     6     5    1
     5     6     7    1
     6     8     7    1
     7     8     9    1
     8     1     2    1
     9    10     9    2
    10     7    11    2
    11     9    13   am
    12    11    12    1
    13    13    12    1
    14    13    14    1
    15    18    19   ar
    16    18    15   ar
    17    19    20   ar
    18    14    15    1
    19    15    16   ar
    20    20    21   ar
    21    16    21   ar
    22    16    17    1
    23    21    22    1
