@<TRIPOS>MOLECULE
3zu6_2M8_B_1.pdb
 18 18 0 0 0
SMALL
GASTEIGER

@<TRIPOS>ATOM
      1  C1        19.2380   55.0800   29.0740 C.3   1255  2M81255     0.2700
      2  O3A       18.3300   54.8920   30.1530 O.3   1255  2M81255    -0.3169
      3  C22       17.3230   55.9060   30.2660 C.3   1255  2M81255     0.2529
      4  C23       16.6450   55.7790   31.6260 C.3   1255  2M81255     0.2232
      5  O13       15.8830   54.5650   31.6320 O.3   1255  2M81255    -0.2171
      6  C21       16.2790   55.7800   29.1920 C.2   1255  2M81255     0.3941
      7  O1A       16.0130   54.6310   28.7930 O.co2 1255  2M81255    -0.2429
      8  O1B       15.4070   56.6710   29.1570 O.co2 1255  2M81255    -0.2429
      9  C2        20.5520   54.3710   29.3850 C.3   1255  2M81255     0.2406
     10  O2        21.3770   54.3900   28.2130 O.3   1255  2M81255    -0.2149
     11  C3        21.3150   55.0820   30.4880 C.3   1255  2M81255     0.2198
     12  O3        22.6000   54.4900   30.6330 O.3   1255  2M81255    -0.2174
     13  C4        21.5430   56.5310   30.0730 C.3   1255  2M81255     0.2144
     14  O4        22.2260   57.2870   31.0890 O.3   1255  2M81255    -0.2176
     15  C5        20.2110   57.2010   29.8080 C.3   1255  2M81255     0.1835
     16  C6        20.4680   58.6320   29.3310 C.3   1255  2M81255     0.2142
     17  O6        19.2440   59.3780   29.3470 O.3   1255  2M81255    -0.2176
     18  O5        19.4460   56.4770   28.8270 O.3   1255  2M81255    -0.3256
@<TRIPOS>BOND
     1    10     9    1
     2     7     6   ar
     3    18     1    1
     4    18    15    1
     5     1     9    1
     6     1     2    1
     7     8     6   ar
     8     6     3    1
     9    16    17    1
    10    16    15    1
    11     9    11    1
    12    15    13    1
    13    13    11    1
    14    13    14    1
    15     2     3    1
    16     3     4    1
    17    11    12    1
    18     4     5    1
