@<TRIPOS>MOLECULE
3zuh_RUB_A_1.pdb
 18 17 0 0 0
SMALL
GASTEIGER

@<TRIPOS>ATOM
      1  C1       185.2060  238.2910  193.1590 C.3   1298  RUB1298     0.2203
      2  C2       186.2660  239.3020  192.7590 C.2   1298  RUB1298     0.2137
      3  C3       185.8940  240.4700  191.9000 C.3   1298  RUB1298     0.2438
      4  C4       185.4220  241.4800  192.9200 C.3   1298  RUB1298     0.2194
      5  C5       184.5110  242.5470  192.3330 C.3   1298  RUB1298     0.1896
      6  O1       185.7290  236.9880  193.4200 O.3   1298  RUB1298    -0.2621
      7  O2       187.4090  239.2400  193.1800 O.2   1298  RUB1298    -0.2906
      8  O3       184.8720  240.1650  190.9370 O.3   1298  RUB1298    -0.2122
      9  O4       186.5890  242.0360  193.5360 O.3   1298  RUB1298    -0.2172
     10  O5       183.7370  243.1010  193.3810 O.3   1298  RUB1298    -0.2674
     11  P1       184.6700  235.8610  193.7780 P.3   1298  RUB1298     0.5330
     12  P2       182.5060  243.9600  192.9050 P.3   1298  RUB1298     0.5327
     13  O1P      184.3630  235.2300  192.4540 O.2   1298  RUB1298    -0.2224
     14  O2P      185.3480  234.9720  194.7570 O.3   1298  RUB1298    -0.1145
     15  O3P      183.5760  236.7010  194.3360 O.3   1298  RUB1298    -0.1145
     16  O4P      181.8710  244.5660  194.1250 O.3   1298  RUB1298    -0.1145
     17  O5P      181.7390  242.9000  192.1790 O.3   1298  RUB1298    -0.1145
     18  O6P      183.1820  244.9500  192.0210 O.2   1298  RUB1298    -0.2224
@<TRIPOS>BOND
     1     8     3    1
     2     3     2    1
     3     3     4    1
     4    18    12    2
     5    17    12    1
     6     5     4    1
     7     5    10    1
     8    13    11    2
     9     2     1    1
    10     2     7    2
    11    12    10    1
    12    12    16    1
    13     4     9    1
    14     1     6    1
    15     6    11    1
    16    11    15    1
    17    11    14    1
