@<TRIPOS>MOLECULE
3zuh_ADP_A_1.pdb
 27 29 0 0 0
SMALL
GASTEIGER

@<TRIPOS>ATOM
      1  PB       177.8020  220.2990  207.2630 P.3   1299  ADP1299     0.5373
      2  O1B      177.4180  219.2310  208.2050 O.3   1299  ADP1299    -0.1143
      3  O2B      177.3790  219.8810  205.7760 O.2   1299  ADP1299    -0.2221
      4  O3B      179.2690  220.5600  207.3210 O.3   1299  ADP1299    -0.1143
      5  PA       176.1380  221.8740  208.9650 P.3   1299  ADP1299     0.2231
      6  O1A      175.0830  220.8470  209.0010 O.2   1299  ADP1299    -0.5169
      7  O2A      176.9050  221.7980  210.2140 O.3   1299  ADP1299    -0.4370
      8  O3A      177.0520  221.6150  207.6970 O.3   1299  ADP1299    -0.2261
      9  O5'      175.4500  223.3150  208.7750 O.3   1299  ADP1299    -0.3111
     10  C5'      175.6030  224.2190  207.6540 C.3   1299  ADP1299     0.1813
     11  C4'      174.7040  225.4620  207.9720 C.3   1299  ADP1299     0.1821
     12  O4'      173.9470  225.7580  206.7870 O.3   1299  ADP1299    -0.3135
     13  C3'      173.6490  225.2430  209.0740 C.3   1299  ADP1299     0.2184
     14  O3'      174.0530  225.7960  210.3290 O.3   1299  ADP1299    -0.2174
     15  C2'      172.3670  225.8640  208.5840 C.3   1299  ADP1299     0.2570
     16  O2'      172.1490  227.1860  209.1460 O.3   1299  ADP1299    -0.2130
     17  C1'      172.5140  225.7530  207.0520 C.3   1299  ADP1299     0.3186
     18  N9       171.9120  224.4690  206.4740 N.pl3 1299  ADP1299    -0.1439
     19  C8       172.5970  223.4320  205.9140 C.3   1299  ADP1299     0.3377
     20  N7       171.7560  222.4980  205.5200 N.2   1299  ADP1299    -0.2095
     21  C5       170.5420  222.8760  205.8070 C.2   1299  ADP1299     0.2526
     22  C6       169.2560  222.3430  205.6350 C.2   1299  ADP1299     0.4393
     23  N6       169.1190  221.1410  205.0700 N.pl3 1299  ADP1299     0.2180
     24  N1       168.1360  223.0440  206.0660 N.2   1299  ADP1299     0.0021
     25  C2       168.2400  224.2790  206.6490 C.3   1299  ADP1299     0.5254
     26  N3       169.4870  224.8100  206.8180 N.2   1299  ADP1299    -0.0055
     27  C4       170.6320  224.1630  206.4100 C.2   1299  ADP1299     0.3518
@<TRIPOS>BOND
     1    23    22    1
     2    20    21    2
     3    20    19    1
     4    22    21    1
     5    22    24    2
     6     3     1    2
     7    21    27    1
     8    19    18    1
     9    24    25    1
    10    27    18    1
    11    27    26    2
    12    18    17    1
    13    25    26    1
    14    12    17    1
    15    12    11    1
    16    17    15    1
    17     1     4    1
    18     1     8    1
    19     1     2    1
    20    10    11    1
    21    10     9    1
    22     8     5    1
    23    11    13    1
    24    15    13    1
    25    15    16    1
    26     9     5    1
    27     5     6    2
    28     5     7    1
    29    13    14    1
