@<TRIPOS>MOLECULE
3zui_PAM_A_1.pdb
 18 17 0 0 0
SMALL
GASTEIGER

@<TRIPOS>ATOM
      1  C1       -10.7720   -0.3150    7.4270 C.2   1169  PAM1169     0.3649
      2  O1       -11.2190   -1.1830    8.2130 O.co2 1169  PAM1169    -0.2457
      3  O2        -9.5660   -0.0820    7.2240 O.co2 1169  PAM1169    -0.2457
      4  C2       -11.7860    0.5270    6.6460 C.3   1169  PAM1169     0.1141
      5  C3       -12.3110   -0.1790    5.3990 C.3   1169  PAM1169     0.0118
      6  C4       -11.7430    0.4010    4.1030 C.3   1169  PAM1169     0.0006
      7  C5       -11.5870   -0.6490    2.9900 C.3   1169  PAM1169     0.0000
      8  C6       -10.7060   -0.1710    1.8360 C.3   1169  PAM1169     0.0003
      9  C7       -11.4960   -0.1460    0.5280 C.3   1169  PAM1169     0.0047
     10  C8       -10.9520    0.9250   -0.4280 C.3   1169  PAM1169     0.0257
     11  C9       -11.2690    0.6110   -1.7460 C.2   1169  PAM1169    -0.0307
     12  C10      -10.9610    1.4840   -2.7990 C.2   1169  PAM1169    -0.0307
     13  C11      -10.3250    2.7010   -2.5700 C.3   1169  PAM1169     0.0257
     14  C12      -10.1120    3.4600   -3.8930 C.3   1169  PAM1169     0.0047
     15  C13       -9.0690    4.5730   -3.7300 C.3   1169  PAM1169     0.0003
     16  C14       -7.6580    4.0170   -3.9130 C.3   1169  PAM1169     0.0000
     17  C15       -6.7900    4.9730   -4.7370 C.3   1169  PAM1169     0.0000
     18  C16       -5.3400    4.4970   -4.7790 C.3   1169  PAM1169     0.0000
@<TRIPOS>BOND
     1    18    17    1
     2    17    16    1
     3    16    15    1
     4    14    15    1
     5    14    13    1
     6    12    13    1
     7    12    11    2
     8    11    10    1
     9    10     9    1
    10     9     8    1
    11     8     7    1
    12     7     6    1
    13     6     5    1
    14     5     4    1
    15     4     1    1
    16     3     1   ar
    17     1     2   ar
