@<TRIPOS>MOLECULE
3zuk_RDF_A_1.pdb
 37 39 0 0 0
SMALL
GASTEIGER

@<TRIPOS>ATOM
      1  C1        59.3280   65.1530    8.0870 C.3   1665  RDF1665     0.2770
      2  O1        59.7850   65.1010    6.7460 O.3   1665  RDF1665    -0.2518
      3  C2        58.0940   64.2980    8.2470 C.3   1665  RDF1665     0.2410
      4  O2        57.6830   64.6100    9.5510 O.3   1665  RDF1665    -0.2149
      5  C3        58.4020   62.8570    8.0800 C.3   1665  RDF1665     0.2197
      6  O3        57.2500   62.1080    8.5290 O.3   1665  RDF1665    -0.2174
      7  C4        59.5460   62.4450    8.8310 C.3   1665  RDF1665     0.2118
      8  O4        59.9090   61.0650    8.6030 O.3   1665  RDF1665    -0.2177
      9  C5        60.7400   63.3090    8.5530 C.3   1665  RDF1665     0.1508
     10  O5        60.3420   64.6880    8.9110 O.3   1665  RDF1665    -0.3281
     11  C6        61.9120   62.9270    9.3390 C.3   1665  RDF1665     0.0350
     12  P         60.1560   66.4140    5.9120 P.3   1665  RDF1665     0.4552
     13  O1P       61.4100   66.8320    6.7080 O.3   1665  RDF1665    -0.1258
     14  O2P       60.3240   66.1120    4.3900 O.2   1665  RDF1665    -0.2359
     15  N         59.0900   67.5600    6.4940 N.3   1665  RDF1665    -0.1121
     16  CA        59.5890   68.9310    6.4960 C.3   1665  RDF1665     0.1616
     17  C         60.0360   69.4310    7.8710 C.2   1665  RDF1665     0.2582
     18  O         61.0470   70.0930    8.0470 O.2   1665  RDF1665    -0.2718
     19  CB        58.5080   69.9210    5.9820 C.3   1665  RDF1665     0.0274
     20  CG        58.9150   71.4510    6.0520 C.3   1665  RDF1665     0.0019
     21  CD1       57.7790   72.4930    5.9270 C.3   1665  RDF1665     0.0001
     22  CD2       60.2080   71.8250    5.3170 C.3   1665  RDF1665     0.0001
     23  N1        59.1620   69.1200    8.9920 N.am  1665  RDF1665    -0.1941
     24  CA1       59.4520   69.5790   10.3890 C.3   1665  RDF1665     0.2018
     25  C7        59.0250   68.4100   11.2850 C.2   1665  RDF1665     0.3845
     26  O6        58.3740   67.4380   10.7800 O.co2 1665  RDF1665    -0.2437
     27  CB1       58.7790   70.9040   10.7020 C.3   1665  RDF1665     0.0573
     28  CG1       57.4530   70.8770   11.4460 C.2   1665  RDF1665    -0.0164
     29 CD11       56.2670   70.5080   10.8570 C.3   1665  RDF1665     0.1477
     30 CD21       57.2600   71.1880   12.7610 C.ar  1665  RDF1665     0.0113
     31  NE1       55.2480   70.5880   11.8490 N.2   1665  RDF1665    -0.2659
     32  CE2       55.9120   71.0200   13.0340 C.ar  1665  RDF1665     0.0758
     33  CE3       58.1190   71.6240   13.8120 C.ar  1665  RDF1665     0.0009
     34  CZ2       55.4120   71.2970   14.3320 C.ar  1665  RDF1665     0.0187
     35  CZ3       57.6210   71.8890   15.0900 C.ar  1665  RDF1665     0.0001
     36  CH2       56.2570   71.7240   15.3590 C.ar  1665  RDF1665     0.0015
     37  OXT       59.2840   68.3780   12.4910 O.co2 1665  RDF1665    -0.2437
@<TRIPOS>BOND
     1    14    12    2
     2    22    20    1
     3    12    15    1
     4    12    13    1
     5    12     2    1
     6    21    20    1
     7    19    20    1
     8    19    16    1
     9    15    16    1
    10    16    17    1
    11     2     1    1
    12    17    18    2
    13    17    23   am
    14     5     3    1
    15     5     6    1
    16     5     7    1
    17     1     3    1
    18     1    10    1
    19     3     4    1
    20     9     7    1
    21     9    10    1
    22     9    11    1
    23     8     7    1
    24    23    24    1
    25    24    27    1
    26    24    25    1
    27    27    28    1
    28    26    25   ar
    29    29    28    1
    30    29    31    1
    31    25    37   ar
    32    28    30    2
    33    31    32    2
    34    30    32   ar
    35    30    33   ar
    36    32    34   ar
    37    33    35   ar
    38    34    36   ar
    39    35    36   ar
