@<TRIPOS>MOLECULE
3zuk_211_A_1.pdb
 10 9 0 0 0
SMALL
GASTEIGER

@<TRIPOS>ATOM
      1  O1        58.6040   64.0990   18.1990 O.3   1666  2111666    -0.2189
      2  O2        56.2800   66.9840   13.9190 O.3   1666  2111666    -0.2189
      3  C1        59.6710   65.7090   16.6660 C.3   1666  2111666     0.1082
      4  C2        59.6370   64.3560   17.3260 C.3   1666  2111666     0.1993
      5  O3        59.2130   64.5670   12.3090 O.3   1666  2111666    -0.2189
      6  C3        58.2290   67.1430   15.3910 C.3   1666  2111666     0.1082
      7  C4        56.7500   67.0590   15.2080 C.3   1666  2111666     0.1993
      8  C5        59.8920   65.8590   14.2800 C.3   1666  2111666     0.1082
      9  C6        59.9740   64.6050   13.4580 C.3   1666  2111666     0.1993
     10  N1        58.9880   65.9240   15.4050 N.3   1666  2111666    -0.2660
@<TRIPOS>BOND
     1     5     9    1
     2     9     8    1
     3     2     7    1
     4     8    10    1
     5     7     6    1
     6     6    10    1
     7    10     3    1
     8     3     4    1
     9     4     1    1
