@<TRIPOS>MOLECULE
3zum_U10_L_1.pdb
 48 48 0 0 0
SMALL
GASTEIGER

@<TRIPOS>ATOM
      1  C1        46.8780   66.8640   65.4580 C.3   1285  U101285     0.0725
      2  C2        46.6190   66.1880   66.6830 C.2   1285  U101285     0.2098
      3  C3        45.3330   65.6960   66.9540 C.2   1285  U101285     0.2097
      4  C4        44.3320   65.8640   65.9640 C.2   1285  U101285     0.2097
      5  C5        44.6270   66.5260   64.7660 C.2   1285  U101285     0.2098
      6  C6        45.8850   67.0200   64.5160 C.3   1285  U101285     0.0725
      7  C1M       48.1620   67.5180   65.0660 C.3   1285  U101285     0.0087
      8  C3M       45.3470   65.5410   69.3760 C.3   1285  U101285     0.2528
      9  C4M       42.5000   66.1540   67.3770 C.3   1285  U101285     0.2528
     10  C7        45.9780   68.1360   63.5110 C.3   1285  U101285     0.0082
     11  C8        47.0250   67.7790   62.5080 C.3   1285  U101285     0.0005
     12  C9        46.5430   67.6480   61.1370 C.3   1285  U101285     0.0003
     13  C10       45.0940   67.8790   60.8740 C.3   1285  U101285     0.0000
     14  C11       47.4480   67.2460   60.0030 C.3   1285  U101285     0.0046
     15  C12       47.9820   68.4680   59.2660 C.3   1285  U101285     0.0254
     16  C13       48.7020   67.9880   58.0200 C.2   1285  U101285    -0.0346
     17  C14       50.1690   67.8810   57.9430 C.2   1285  U101285    -0.0482
     18  C15       50.9650   68.1220   59.1870 C.3   1285  U101285     0.0260
     19  C16       50.8500   67.5460   56.6330 C.3   1285  U101285     0.0217
     20  C17       50.2830   66.2800   55.9720 C.3   1285  U101285     0.0043
     21  C18       51.0080   66.0000   54.6670 C.3   1285  U101285     0.0003
     22  C19       50.7100   64.8230   53.8230 C.3   1285  U101285     0.0003
     23  C20       49.2970   64.2990   53.7990 C.3   1285  U101285     0.0000
     24  C21       51.7850   64.1420   52.9710 C.3   1285  U101285     0.0046
     25  C22       52.9620   65.0740   52.6280 C.3   1285  U101285     0.0254
     26  C23       53.7010   64.6240   51.3830 C.2   1285  U101285    -0.0346
     27  C24       55.1490   64.3280   51.4280 C.2   1285  U101285    -0.0478
     28  C25       55.9400   64.7730   52.6120 C.3   1285  U101285     0.0260
     29  C26       55.8740   63.5410   50.3460 C.3   1285  U101285     0.0263
     30  C27       55.6840   64.0830   48.9320 C.3   1285  U101285     0.0297
     31  C28       56.4700   65.3650   48.7180 C.2   1285  U101285    -0.0343
     32  C29       57.0520   65.7090   47.3970 C.2   1285  U101285    -0.0482
     33  C30       57.9640   66.9030   47.2770 C.3   1285  U101285     0.0260
     34  C31       56.7030   64.8360   46.1900 C.3   1285  U101285     0.0217
     35  C32       57.3440   65.3110   44.8780 C.3   1285  U101285     0.0043
     36  C33       58.8470   65.0860   44.9210 C.3   1285  U101285     0.0003
     37  C34       59.7150   65.3730   43.7660 C.3   1285  U101285     0.0000
     38  C35       60.1970   64.2550   42.8740 C.3   1285  U101285     0.0000
     39  C36       60.0750   66.8250   43.5320 C.3   1285  U101285     0.0000
     40  C37       59.5230   67.6690   44.6870 C.3   1285  U101285     0.0000
     41  C38       58.6700   68.8390   44.2110 C.3   1285  U101285     0.0000
     42  C39       57.7160   69.5230   45.1090 C.3   1285  U101285     0.0000
     43  C40       57.2370   68.8640   46.3850 C.3   1285  U101285     0.0000
     44  C41       57.2100   70.8910   44.7660 C.3   1285  U101285     0.0000
     45  O2        47.4470   66.1220   67.5970 O.2   1285  U101285    -0.2880
     46  O3        45.0530   65.1110   68.0500 O.2   1285  U101285    -0.4654
     47  O4        43.1320   65.6410   66.2190 O.2   1285  U101285    -0.4654
     48  O5        43.7420   67.0760   64.1160 O.2   1285  U101285    -0.2880
@<TRIPOS>BOND
     1    38    37    1
     2    39    37    1
     3    39    40    1
     4    37    36    1
     5    41    40    1
     6    41    42    1
     7    44    42    1
     8    35    36    1
     9    35    34    1
    10    42    43    1
    11    34    32    1
    12    33    32    1
    13    32    31    2
    14    31    30    1
    15    30    29    1
    16    29    27    1
    17    26    27    2
    18    26    25    1
    19    27    28    1
    20    25    24    1
    21    24    22    1
    22    23    22    1
    23    22    21    1
    24    21    20    1
    25    20    19    1
    26    19    17    1
    27    17    16    2
    28    17    18    1
    29    16    15    1
    30    15    14    1
    31    14    12    1
    32    13    12    1
    33    12    11    1
    34    11    10    1
    35    10     6    1
    36    48     5    2
    37     6     5    1
    38     6     1    1
    39     5     4    1
    40     7     1    1
    41     1     2    1
    42     4    47    1
    43     4     3    2
    44    47     9    1
    45     2     3    1
    46     2    45    2
    47     3    46    1
    48    46     8    1
