@<TRIPOS>MOLECULE
3zum_SPN_M_1.pdb
 43 42 0 0 0
SMALL
GASTEIGER

@<TRIPOS>ATOM
      1  CMA       50.8690   78.8120   37.4440 C.3   1307  SPN1307     0.1745
      2  O1        51.2850   80.1900   37.3930 O.3   1307  SPN1307    -0.3489
      3  CM1       49.5180   81.0600   38.7960 C.3   1307  SPN1307     0.0372
      4  CM2       51.2780   82.5820   37.8990 C.3   1307  SPN1307     0.0372
      5  C1        50.9890   81.1640   38.4080 C.3   1307  SPN1307     0.1440
      6  C2        51.8470   80.9630   39.6500 C.2   1307  SPN1307     0.1791
      7  O2        51.7010   81.7340   40.5880 O.2   1307  SPN1307    -0.2933
      8  C3        52.8960   79.8700   39.7550 C.3   1307  SPN1307     0.0923
      9  C4        53.7860   80.0860   40.9710 C.2   1307  SPN1307    -0.0267
     10  C5        55.0250   79.5570   41.1320 C.2   1307  SPN1307    -0.0474
     11  CM3       55.6700   78.7150   40.0530 C.3   1307  SPN1307     0.0260
     12  C6        55.7530   79.9030   42.4200 C.3   1307  SPN1307     0.0264
     13  C7        56.8540   78.9150   42.8110 C.3   1307  SPN1307     0.0297
     14  C8        57.4350   79.2860   44.1680 C.2   1307  SPN1307    -0.0342
     15  C9        58.5540   78.7310   44.6460 C.2   1307  SPN1307    -0.0478
     16  CM4       59.2990   77.6860   43.8560 C.3   1307  SPN1307     0.0260
     17  C10       59.0240   79.1310   46.0180 C.3   1307  SPN1307     0.0263
     18  C11       60.1900   78.2580   46.5130 C.3   1307  SPN1307     0.0297
     19  C12       60.6840   78.8620   47.8140 C.2   1307  SPN1307    -0.0343
     20  C13       61.5680   78.2890   48.6470 C.2   1307  SPN1307    -0.0482
     21  CM5       62.1460   76.9490   48.3120 C.3   1307  SPN1307     0.0260
     22  C14       61.9170   79.0440   49.9150 C.3   1307  SPN1307     0.0217
     23  C15       63.2080   78.5750   50.5610 C.3   1307  SPN1307     0.0047
     24  C16       63.6480   79.4350   51.7560 C.3   1307  SPN1307     0.0047
     25  C17       62.9790   80.7910   51.7090 C.3   1307  SPN1307     0.0217
     26  C18       63.4200   81.6220   52.8850 C.2   1307  SPN1307    -0.0482
     27  CM6       64.4570   81.0920   53.8220 C.3   1307  SPN1307     0.0260
     28  C19       62.8150   82.8210   53.0960 C.2   1307  SPN1307    -0.0346
     29  C20       63.1140   83.7490   54.2440 C.3   1307  SPN1307     0.0254
     30  C21       62.3200   85.0110   53.9660 C.3   1307  SPN1307     0.0047
     31  C22       62.6980   86.0770   54.9870 C.3   1307  SPN1307     0.0007
     32  CM7       62.6920   85.5200   56.4020 C.3   1307  SPN1307     0.0000
     33  C23       61.8630   87.3540   54.8090 C.3   1307  SPN1307     0.0047
     34  C24       62.7950   88.5730   54.8790 C.3   1307  SPN1307     0.0254
     35  C25       62.1830   89.8920   54.4330 C.2   1307  SPN1307    -0.0346
     36  C26       62.8780   90.7710   53.6810 C.2   1307  SPN1307    -0.0478
     37  CM8       64.2840   90.4340   53.2580 C.3   1307  SPN1307     0.0260
     38  C27       62.2860   92.1120   53.2710 C.3   1307  SPN1307     0.0263
     39  C28       62.0960   92.9160   54.5530 C.3   1307  SPN1307     0.0297
     40  C29       61.9620   94.4170   54.3610 C.2   1307  SPN1307    -0.0342
     41  C30       61.4770   95.1990   55.3700 C.2   1307  SPN1307    -0.0478
     42  CM9       61.0360   94.6090   56.6960 C.3   1307  SPN1307     0.0260
     43  CMB       61.3520   96.6820   55.1640 C.3   1307  SPN1307     0.0260
@<TRIPOS>BOND
     1     2     1    1
     2     2     5    1
     3     4     5    1
     4     5     3    1
     5     5     6    1
     6     6     8    1
     7     6     7    2
     8     8     9    1
     9    11    10    1
    10     9    10    2
    11    10    12    1
    12    12    13    1
    13    13    14    1
    14    16    15    1
    15    14    15    2
    16    15    17    1
    17    17    18    1
    18    18    19    1
    19    19    20    2
    20    21    20    1
    21    20    22    1
    22    22    23    1
    23    23    24    1
    24    25    24    1
    25    25    26    1
    26    26    28    2
    27    26    27    1
    28    28    29    1
    29    37    36    1
    30    38    36    1
    31    38    39    1
    32    36    35    2
    33    30    29    1
    34    30    31    1
    35    40    39    1
    36    40    41    2
    37    35    34    1
    38    33    34    1
    39    33    31    1
    40    31    32    1
    41    43    41    1
    42    41    42    1
