@<TRIPOS>MOLECULE
3zun_ZUN_C_1.pdb
 28 30 0 0 0
SMALL
GASTEIGER

@<TRIPOS>ATOM
      1  CAA       56.2400   10.0040   -5.2940 C.3   1205  ZUN1205     0.0557
      2  CAW       55.6940   11.1440   -4.4390 C.ar  1205  ZUN1205     0.1007
      3  CAK       54.4590   11.2380   -3.9100 C.ar  1205  ZUN1205     0.0541
      4  NAQ       56.4410   12.1970   -4.1210 N.ar  1205  ZUN1205    -0.0817
      5  OAT       55.6120   13.0200   -3.3180 O.2   1205  ZUN1205    -0.3576
      6  CAZ       54.4010   12.3960   -3.2310 C.ar  1205  ZUN1205     0.1632
      7  CAM       53.2730   13.0400   -2.4150 C.3   1205  ZUN1205     0.1523
      8  CAU       53.5140   12.6650   -0.9220 C.2   1205  ZUN1205     0.2338
      9  OAB       53.2050   11.5230   -0.5870 O.2   1205  ZUN1205    -0.2744
     10  N         54.0660   13.4950    0.0240 N.am  1205  ZUN1205    -0.2699
     11  CD2       54.5420   14.8720   -0.1700 C.3   1205  ZUN1205     0.1266
     12  CG        55.2670   15.2510    1.1230 C.3   1205  ZUN1205     0.1739
     13  OD1       56.6350   14.8740    1.0800 O.3   1205  ZUN1205    -0.2212
     14  CB        54.5890   14.4160    2.1580 C.3   1205  ZUN1205     0.0639
     15  CA        54.2940   13.1180    1.4210 C.3   1205  ZUN1205     0.1561
     16  C         52.9990   12.5900    1.9860 C.2   1205  ZUN1205     0.2598
     17  O         51.9440   13.1780    1.7490 O.2   1205  ZUN1205    -0.2715
     18  NAR       53.1270   11.5010    2.7520 N.am  1205  ZUN1205    -0.1992
     19  CAL       51.9710   10.8660    3.4180 C.3   1205  ZUN1205     0.1415
     20  CAX       51.5870   11.6590    4.6800 C.ar  1205  ZUN1205    -0.0005
     21  CAE       52.4680   12.5990    5.2480 C.ar  1205  ZUN1205    -0.0009
     22  CAG       52.1140   13.3240    6.3890 C.ar  1205  ZUN1205     0.0238
     23  CAF       50.3430   11.4300    5.2640 C.ar  1205  ZUN1205    -0.0009
     24  CAH       49.9840   12.1480    6.4030 C.ar  1205  ZUN1205     0.0238
     25  CAY       50.8670   13.0850    6.9670 C.ar  1205  ZUN1205     0.1429
     26  NBB       50.4600   13.7420    8.0500 N.pl3 1205  ZUN1205     0.0577
     27  OAS       49.1410   13.5200    8.4740 O.2   1205  ZUN1205    -0.1261
     28  OAD       51.2440   14.7110    8.7570 O.2   1205  ZUN1205    -0.1261
@<TRIPOS>BOND
     1     1     2    1
     2     2     4   ar
     3     2     3   ar
     4     4     5   ar
     5     3     6   ar
     6     5     6   ar
     7     6     7    1
     8     7     8    1
     9     8     9    2
    10     8    10   am
    11    11    10    1
    12    11    12    1
    13    10    15    1
    14    13    12    1
    15    12    14    1
    16    15    16    1
    17    15    14    1
    18    17    16    2
    19    16    18   am
    20    18    19    1
    21    19    20    1
    22    20    21   ar
    23    20    23   ar
    24    21    22   ar
    25    23    24   ar
    26    22    25   ar
    27    24    25   ar
    28    25    26    1
    29    26    27    2
    30    26    28    2
