@<TRIPOS>MOLECULE
3zuo_LTB_A_1.pdb
 24 23 0 0 0
SMALL
GASTEIGER

@<TRIPOS>ATOM
      1  O1         1.4120  -11.4800   25.7060 O.co2 1170  LTB1170    -0.2457
      2  C1         1.4650  -10.3130   26.1600 C.2   1170  LTB1170     0.3649
      3  O2         1.5100  -10.0110   27.3760 O.co2 1170  LTB1170    -0.2457
      4  C2         1.4940   -9.1760   25.1460 C.3   1170  LTB1170     0.1141
      5  C3         0.3940   -8.1420   25.4100 C.3   1170  LTB1170     0.0144
      6  C4        -0.9890   -8.7150   25.0980 C.3   1170  LTB1170     0.0338
      7  C5        -2.0890   -7.6570   25.1780 C.3   1170  LTB1170     0.1563
      8  O3        -2.2450   -7.2010   26.5200 O.3   1170  LTB1170    -0.2228
      9  C6        -3.4110   -8.2720   24.7080 C.3   1170  LTB1170     0.0585
     10  C7        -4.3010   -7.6400   23.8370 C.2   1170  LTB1170    -0.0277
     11  C8        -4.0520   -6.3880   23.2790 C.2   1170  LTB1170    -0.0259
     12  C9        -4.9740   -5.8200   22.4130 C.3   1170  LTB1170     0.0514
     13  C10       -4.8110   -4.5920   21.7630 C.2   1170  LTB1170    -0.0235
     14  C11       -5.7010   -4.0090   20.8780 C.2   1170  LTB1170     0.0022
     15  C12       -5.3420   -2.6630   20.2370 C.3   1170  LTB1170     0.1780
     16  C20       -4.2930   -7.6890   12.6630 C.3   1170  LTB1170     0.0000
     17  O12       -6.5170   -1.8410   20.2630 O.3   1170  LTB1170    -0.2180
     18  C19       -3.3050   -6.8250   13.4440 C.3   1170  LTB1170     0.0000
     19  C18       -3.9890   -6.1290   14.6260 C.3   1170  LTB1170     0.0003
     20  C17       -3.0750   -5.0780   15.2530 C.3   1170  LTB1170     0.0047
     21  C16       -3.8020   -4.1870   16.2820 C.3   1170  LTB1170     0.0257
     22  C15       -3.1540   -4.1220   17.5190 C.2   1170  LTB1170    -0.0306
     23  C14       -3.6510   -3.5100   18.6800 C.2   1170  LTB1170    -0.0277
     24  C13       -4.8900   -2.8650   18.7900 C.3   1170  LTB1170     0.0631
@<TRIPOS>BOND
     1    16    18    1
     2    18    19    1
     3    19    20    1
     4    20    21    1
     5    21    22    1
     6    22    23    2
     7    23    24    1
     8    24    15    1
     9    15    17    1
    10    15    14    1
    11    14    13    2
    12    13    12    1
    13    12    11    1
    14    11    10    2
    15    10     9    1
    16     9     7    1
    17     6     7    1
    18     6     5    1
    19     4     5    1
    20     4     2    1
    21     7     8    1
    22     1     2   ar
    23     2     3   ar
