@<TRIPOS>MOLECULE
3zup_2M8_A_1.pdb
 18 18 0 0 0
SMALL
GASTEIGER

@<TRIPOS>ATOM
      1  C1        -8.7350  -29.4500   24.4960 C.3   1256  2M81256     0.2700
      2  O3A       -8.5930  -30.6980   25.1800 O.3   1256  2M81256    -0.3169
      3  C22       -7.5200  -31.4970   24.6490 C.3   1256  2M81256     0.2529
      4  C23       -7.7000  -32.9650   25.0370 C.3   1256  2M81256     0.2232
      5  O13       -9.0710  -33.2410   25.3620 O.3   1256  2M81256    -0.2171
      6  C21       -6.1980  -30.9970   25.1740 C.2   1256  2M81256     0.3941
      7  O1A       -6.2390  -30.3850   26.2530 O.co2 1256  2M81256    -0.2429
      8  O1B       -5.1330  -31.5250   24.7740 O.co2 1256  2M81256    -0.2429
      9  C2        -9.9410  -28.6480   25.0100 C.3   1256  2M81256     0.2406
     10  O2        -9.9450  -27.3590   24.3920 O.3   1256  2M81256    -0.2149
     11  C3       -11.2660  -29.3500   24.6950 C.3   1256  2M81256     0.2198
     12  O3       -12.3560  -28.4690   25.0070 O.3   1256  2M81256    -0.2174
     13  C4       -11.3290  -29.7530   23.2200 C.3   1256  2M81256     0.2144
     14  O4       -12.4110  -30.6720   22.9910 O.3   1256  2M81256    -0.2176
     15  C5       -10.0520  -30.4460   22.7520 C.3   1256  2M81256     0.1835
     16  C6       -10.0560  -30.6440   21.2430 C.3   1256  2M81256     0.2142
     17  O6        -8.8770  -31.3800   20.8900 O.3   1256  2M81256    -0.2176
     18  O5        -8.8670  -29.7200   23.1010 O.3   1256  2M81256    -0.3256
@<TRIPOS>BOND
     1    17    16    1
     2    16    15    1
     3    15    18    1
     4    15    13    1
     5    14    13    1
     6    18     1    1
     7    13    11    1
     8    10     9    1
     9     1     9    1
    10     1     2    1
    11     3     4    1
    12     3     6    1
    13     3     2    1
    14    11    12    1
    15    11     9    1
    16     8     6   ar
    17     4     5    1
    18     6     7   ar
