@<TRIPOS>MOLECULE
3zuw_SPN_M_1.pdb
 43 42 0 0 0
SMALL
GASTEIGER

@<TRIPOS>ATOM
      1  CMA       24.2100  116.2560    6.5120 C.3   1312  SPN1312     0.1745
      2  O1        25.6310  116.5060    6.4480 O.3   1312  SPN1312    -0.3489
      3  CM1       25.5110  118.5560    7.6400 C.3   1312  SPN1312     0.0372
      4  CM2       27.7860  117.6450    7.0840 C.3   1312  SPN1312     0.0372
      5  C1        26.3310  117.2850    7.4390 C.3   1312  SPN1312     0.1440
      6  C2        26.4560  116.5300    8.7470 C.2   1312  SPN1312     0.1791
      7  O2        26.8230  117.1630    9.7350 O.2   1312  SPN1312    -0.2933
      8  C3        26.1880  115.0330    8.8340 C.3   1312  SPN1312     0.0923
      9  C4        26.8380  114.3870   10.0600 C.2   1312  SPN1312    -0.0267
     10  C5        26.8600  113.0280   10.2440 C.2   1312  SPN1312    -0.0474
     11  CM3       26.2620  112.0840    9.2180 C.3   1312  SPN1312     0.0260
     12  C6        27.5630  112.4780   11.4790 C.3   1312  SPN1312     0.0264
     13  C7        27.0930  111.0930   11.9160 C.3   1312  SPN1312     0.0297
     14  C8        27.7430  110.7420   13.2460 C.2   1312  SPN1312    -0.0342
     15  C9        27.8730  109.4840   13.7020 C.2   1312  SPN1312    -0.0478
     16  CM4       27.3540  108.3070   12.9110 C.3   1312  SPN1312     0.0260
     17  C10       28.5400  109.2890   15.0470 C.3   1312  SPN1312     0.0263
     18  C11       28.1640  107.9330   15.6460 C.3   1312  SPN1312     0.0297
     19  C12       28.9550  107.7770   16.9120 C.2   1312  SPN1312    -0.0343
     20  C13       28.9220  106.6750   17.6890 C.2   1312  SPN1312    -0.0482
     21  CM5       28.1040  105.4880   17.2780 C.3   1312  SPN1312     0.0260
     22  C14       29.7930  106.7100   18.9320 C.3   1312  SPN1312     0.0217
     23  C15       29.9570  105.4160   19.6740 C.3   1312  SPN1312     0.0047
     24  C16       30.9910  105.4930   20.8000 C.3   1312  SPN1312     0.0047
     25  C17       31.7870  106.7840   20.8270 C.3   1312  SPN1312     0.0217
     26  C18       32.7560  106.7760   21.9850 C.2   1312  SPN1312    -0.0482
     27  CM6       32.8560  105.6190   22.9320 C.3   1312  SPN1312     0.0260
     28  C19       33.5490  107.8540   22.1550 C.2   1312  SPN1312    -0.0346
     29  C20       34.5000  107.9820   23.3140 C.3   1312  SPN1312     0.0254
     30  C21       35.1860  109.2890   23.0110 C.3   1312  SPN1312     0.0047
     31  C22       35.6660  110.0520   24.2140 C.3   1312  SPN1312     0.0007
     32  CM7       35.9680  109.1770   25.4100 C.3   1312  SPN1312     0.0000
     33  C23       36.7740  110.9970   23.7310 C.3   1312  SPN1312     0.0047
     34  C24       38.1990  110.7810   24.2630 C.3   1312  SPN1312     0.0254
     35  C25       39.0390  111.9600   23.7910 C.2   1312  SPN1312    -0.0346
     36  C26       40.1440  111.8830   23.0240 C.2   1312  SPN1312    -0.0478
     37  CM8       40.6920  110.5490   22.5650 C.3   1312  SPN1312     0.0260
     38  C27       40.8800  113.1730   22.6650 C.3   1312  SPN1312     0.0263
     39  C28       42.3250  113.0310   23.1130 C.3   1312  SPN1312     0.0297
     40  C29       43.1440  114.3100   23.1050 C.2   1312  SPN1312    -0.0342
     41  C30       43.0990  115.2290   24.1020 C.2   1312  SPN1312    -0.0478
     42  CM9       42.1430  115.0900   25.2790 C.3   1312  SPN1312     0.0260
     43  CMB       44.0000  116.4370   24.0090 C.3   1312  SPN1312     0.0260
@<TRIPOS>BOND
     1     2     1    1
     2     2     5    1
     3     4     5    1
     4     5     3    1
     5     5     6    1
     6     6     8    1
     7     6     7    2
     8     8     9    1
     9    11    10    1
    10     9    10    2
    11    10    12    1
    12    12    13    1
    13    13    14    1
    14    16    15    1
    15    14    15    2
    16    15    17    1
    17    17    18    1
    18    18    19    1
    19    19    20    2
    20    21    20    1
    21    20    22    1
    22    22    23    1
    23    23    24    1
    24    24    25    1
    25    25    26    1
    26    26    28    2
    27    26    27    1
    28    28    29    1
    29    37    36    1
    30    38    36    1
    31    38    39    1
    32    30    29    1
    33    30    31    1
    34    36    35    2
    35    40    39    1
    36    40    41    2
    37    33    31    1
    38    33    34    1
    39    35    34    1
    40    43    41    1
    41    41    42    1
    42    31    32    1
