@<TRIPOS>MOLECULE
3zuw_U10_L_1.pdb
 48 47 0 0 0
SMALL
GASTEIGER

@<TRIPOS>ATOM
      1  C1        12.1290  113.8120   34.4730 C.2   1286  U101286     0.0198
      2  C2        11.3000  113.6540   35.6390 C.2   1286  U101286     0.2282
      3  C3        10.1540  114.4500   35.8110 C.2   1286  U101286     0.2140
      4  C4         9.8090  115.3620   34.7680 C.2   1286  U101286     0.2140
      5  C5        10.6480  115.5120   33.6280 C.2   1286  U101286     0.2285
      6  C6        11.7870  114.7320   33.4830 C.2   1286  U101286     0.0235
      7  C1M       13.4160  113.0700   34.2530 C.3   1286  U101286     0.0343
      8  C3M        9.8480  114.5950   38.2610 C.3   1286  U101286     0.2528
      9  C4M        8.7500  117.2240   35.7350 C.3   1286  U101286     0.2528
     10  C7        12.7330  115.0380   32.3460 C.3   1286  U101286     0.0548
     11  C8        12.3760  114.2240   31.1440 C.2   1286  U101286    -0.0298
     12  C9        12.4740  114.8420   29.8240 C.2   1286  U101286    -0.0475
     13  C10       12.6980  116.3180   29.7250 C.3   1286  U101286     0.0260
     14  C11       12.3770  113.9920   28.5740 C.3   1286  U101286     0.0264
     15  C12       13.5650  113.0300   28.4870 C.3   1286  U101286     0.0297
     16  C13       13.6100  112.4610   27.0710 C.2   1286  U101286    -0.0343
     17  C14       14.0940  111.0900   26.7620 C.2   1286  U101286    -0.0482
     18  C15       14.7720  110.3200   27.8680 C.3   1286  U101286     0.0260
     19  C16       13.9870  110.5170   25.3480 C.3   1286  U101286     0.0217
     20  C17       12.5790  110.1310   24.8700 C.3   1286  U101286     0.0043
     21  C18       12.6310  109.7260   23.4050 C.3   1286  U101286     0.0003
     22  C19       11.6070  108.9050   22.6950 C.3   1286  U101286     0.0000
     23  C20       10.1410  108.9390   23.0560 C.3   1286  U101286     0.0000
     24  C21       11.9810  108.0230   21.5100 C.3   1286  U101286     0.0000
     25  C22       13.3210  107.2960   21.6620 C.3   1286  U101286     0.0003
     26  C23       13.6400  106.6600   20.3380 C.3   1286  U101286     0.0043
     27  C24       13.6070  105.2010   20.1960 C.3   1286  U101286     0.0220
     28  C25       14.0290  104.4270   21.3990 C.3   1286  U101286     0.0047
     29  C26       13.2170  104.4940   18.8930 C.2   1286  U101286    -0.0265
     30  C27       13.6760  104.5570   17.9310 C.2   1286  U101286    -0.0049
     31  C33       15.7680  104.6720   17.7890 C.3   1286  U101286     0.0000
     32  C34       16.8530  104.6750   16.7870 C.3   1286  U101286     0.0000
     33  C35       18.2310  105.0910   17.1960 C.3   1286  U101286     0.0000
     34  C36       16.5650  104.2860   15.3420 C.3   1286  U101286     0.0000
     35  C37       15.9830  102.8590   15.2390 C.3   1286  U101286     0.0000
     36  C38       16.9620  101.9130   14.5190 C.3   1286  U101286     0.0000
     37  C39       17.0920  101.8540   13.0300 C.3   1286  U101286     0.0000
     38  C40       16.2090  100.9370   12.2030 C.3   1286  U101286     0.0000
     39  C41       18.1270  102.7460   12.3430 C.3   1286  U101286     0.0000
     40  C42       19.0360  103.5170   13.3250 C.3   1286  U101286     0.0000
     41  C43       18.8860  105.0210   13.1450 C.3   1286  U101286     0.0000
     42  C44       19.7070  106.0370   13.8400 C.3   1286  U101286     0.0000
     43  C45       20.6160  106.9060   13.0330 C.3   1286  U101286     0.0000
     44  C46       19.6100  106.2820   15.3300 C.3   1286  U101286     0.0000
     45  O2        11.6170  112.9240   36.6010 O.2   1286  U101286    -0.2836
     46  O3         9.4650  114.4010   36.8940 O.2   1286  U101286    -0.4652
     47  O4         8.7840  116.0920   34.8770 O.2   1286  U101286    -0.4652
     48  O5        10.4750  116.4160   32.7900 O.2   1286  U101286    -0.2835
@<TRIPOS>BOND
     1    38    37    1
     2    39    37    1
     3    39    40    1
     4    37    36    1
     5    43    42    1
     6    41    40    1
     7    41    42    1
     8    42    44    1
     9    36    35    1
    10    35    34    1
    11    34    32    1
    12    32    33    1
    13    32    31    1
    14    30    29    2
    15    29    27    1
    16    27    26    1
    17    27    28    1
    18    26    25    1
    19    24    25    1
    20    24    22    1
    21    22    23    1
    22    22    21    1
    23    21    20    1
    24    20    19    1
    25    19    17    1
    26    17    16    2
    27    17    18    1
    28    16    15    1
    29    15    14    1
    30    14    12    1
    31    13    12    1
    32    12    11    2
    33    11    10    1
    34    10     6    1
    35    48     5    2
    36     6     5    1
    37     6     1    2
    38     5     4    1
    39     7     1    1
    40     1     2    1
    41     4    47    1
    42     4     3    2
    43    47     9    1
    44     2     3    1
    45     2    45    2
    46     3    46    1
    47    46     8    1
