@<TRIPOS>MOLECULE
3zux_TCH_A_1.pdb
 35 38 0 0 0
SMALL
GASTEIGER

@<TRIPOS>ATOM
      1  C1        19.9030   77.7760   77.3440 C.3   1313  TCH1313     0.0026
      2  C2        18.9040   76.6120   77.4040 C.3   1313  TCH1313     0.0329
      3  C3        18.9940   75.9260   78.7780 C.3   1313  TCH1313     0.1520
      4  O3        17.9880   74.9220   78.9400 O.3   1313  TCH1313    -0.2232
      5  C4        20.3770   75.3190   78.9300 C.3   1313  TCH1313     0.0330
      6  C5        21.3810   76.4700   78.9660 C.3   1313  TCH1313     0.0050
      7  C6        22.7750   75.9030   79.2640 C.3   1313  TCH1313     0.0330
      8  C7        23.4450   75.2470   78.0350 C.3   1313  TCH1313     0.1519
      9  O7        22.9240   73.9320   77.7900 O.3   1313  TCH1313    -0.2232
     10  C8        23.4450   76.1780   76.8030 C.3   1313  TCH1313     0.0306
     11  C9        22.0010   76.6400   76.4610 C.3   1313  TCH1313     0.0050
     12  C10       21.3490   77.3520   77.6870 C.3   1313  TCH1313     0.0004
     13  C11       21.9760   77.5130   75.1850 C.3   1313  TCH1313     0.0330
     14  C12       22.6810   76.8480   73.9670 C.3   1313  TCH1313     0.1519
     15  O12       21.9610   75.6820   73.5460 O.3   1313  TCH1313    -0.2232
     16  C13       24.1200   76.4440   74.3040 C.3   1313  TCH1313     0.0282
     17  C14       24.0820   75.4990   75.5720 C.3   1313  TCH1313     0.0048
     18  C15       25.5270   74.9570   75.6710 C.3   1313  TCH1313     0.0002
     19  C16       25.9000   74.7230   74.1730 C.3   1313  TCH1313     0.0001
     20  C17       24.9030   75.5540   73.3000 C.3   1313  TCH1313     0.0024
     21  C18       24.9170   77.7220   74.6490 C.3   1313  TCH1313     0.0025
     22  C19       22.1260   78.6320   78.0340 C.3   1313  TCH1313     0.0000
     23  O1S       32.0430   76.0570   65.2720 O.3   1313  TCH1313    -0.3074
     24  C20       25.6430   76.2960   72.1400 C.3   1313  TCH1313     0.0006
     25  C21       24.6880   77.1170   71.2770 C.3   1313  TCH1313     0.0000
     26  C22       26.4140   75.3470   71.2030 C.3   1313  TCH1313     0.0096
     27  C23       27.5930   76.1000   70.5990 C.3   1313  TCH1313     0.0868
     28  C24       28.0610   75.4670   69.3120 C.2   1313  TCH1313     0.2414
     29  N24       29.3250   74.9540   69.2560 N.am  1313  TCH1313    -0.2037
     30  O24       27.3050   75.4400   68.3530 O.2   1313  TCH1313    -0.2733
     31  C25       29.9140   74.3200   68.0600 C.3   1313  TCH1313     0.1366
     32  C26       31.1020   75.1460   67.5610 C.3   1313  TCH1313     0.1286
     33  S26       31.4930   74.7520   65.8330 S.3   1313  TCH1313    -0.1942
     34  O2S       32.6260   73.8920   65.7320 O.3   1313  TCH1313    -0.3074
     35  O3S       30.3100   74.5940   65.0600 O.3   1313  TCH1313    -0.3074
@<TRIPOS>BOND
     1    35    33    1
     2    23    33    1
     3    34    33    1
     4    33    32    1
     5    32    31    1
     6    31    29    1
     7    30    28    2
     8    29    28   am
     9    28    27    1
    10    27    26    1
    11    26    24    1
    12    25    24    1
    13    24    20    1
    14    20    19    1
    15    20    16    1
    16    15    14    1
    17    14    16    1
    18    14    13    1
    19    19    18    1
    20    16    21    1
    21    16    17    1
    22    13    11    1
    23    17    18    1
    24    17    10    1
    25    11    10    1
    26    11    12    1
    27    10     8    1
    28     1     2    1
    29     1    12    1
    30     2     3    1
    31    12    22    1
    32    12     6    1
    33     9     8    1
    34     8     7    1
    35     3     5    1
    36     3     4    1
    37     5     6    1
    38     6     7    1
