@<TRIPOS>MOLECULE
3zuy_TCH_A_1.pdb
 35 38 0 0 0
SMALL
GASTEIGER

@<TRIPOS>ATOM
      1  C1        19.8860   77.6420   76.8660 C.3   1312  TCH1312     0.0026
      2  C2        18.9850   76.4270   76.6340 C.3   1312  TCH1312     0.0329
      3  C3        18.9110   75.6300   77.9490 C.3   1312  TCH1312     0.1520
      4  O3        17.9440   74.5730   77.8600 O.3   1312  TCH1312    -0.2232
      5  C4        20.3010   75.0910   78.3000 C.3   1312  TCH1312     0.0330
      6  C5        21.2870   76.2610   78.4490 C.3   1312  TCH1312     0.0050
      7  C6        22.6820   75.7370   78.8060 C.3   1312  TCH1312     0.0330
      8  C7        23.4420   75.1550   77.6020 C.3   1312  TCH1312     0.1519
      9  O7        23.0160   73.8190   77.3510 O.3   1312  TCH1312    -0.2232
     10  C8        23.4370   76.0800   76.3630 C.3   1312  TCH1312     0.0306
     11  C9        22.0120   76.5670   75.9990 C.3   1312  TCH1312     0.0050
     12  C10       21.3210   77.2210   77.2310 C.3   1312  TCH1312     0.0004
     13  C11       22.0330   77.5040   74.7770 C.3   1312  TCH1312     0.0330
     14  C12       22.7550   76.8870   73.5540 C.3   1312  TCH1312     0.1519
     15  O12       22.0090   75.7740   73.0500 O.3   1312  TCH1312    -0.2232
     16  C13       24.1760   76.4250   73.9030 C.3   1312  TCH1312     0.0282
     17  C14       24.0880   75.4270   75.1260 C.3   1312  TCH1312     0.0048
     18  C15       25.5210   74.8730   75.2350 C.3   1312  TCH1312     0.0002
     19  C16       25.8890   74.6470   73.7400 C.3   1312  TCH1312     0.0001
     20  C17       24.9410   75.5460   72.8800 C.3   1312  TCH1312     0.0024
     21  C18       25.0100   77.6600   74.3130 C.3   1312  TCH1312     0.0025
     22  C19       22.0890   78.4860   77.6590 C.3   1312  TCH1312     0.0000
     23  O1S       32.2730   75.8310   65.1730 O.3   1312  TCH1312    -0.3074
     24  C20       25.7150   76.3050   71.7720 C.3   1312  TCH1312     0.0006
     25  C21       24.7810   77.1760   70.9360 C.3   1312  TCH1312     0.0000
     26  C22       26.4460   75.3480   70.8220 C.3   1312  TCH1312     0.0096
     27  C23       27.5480   76.1080   70.0850 C.3   1312  TCH1312     0.0868
     28  C24       28.0930   75.2880   68.9440 C.2   1312  TCH1312     0.2414
     29  N24       29.3960   74.8790   68.9840 N.am  1312  TCH1312    -0.2037
     30  O24       27.3510   75.0180   68.0140 O.2   1312  TCH1312    -0.2733
     31  C25       30.0600   74.0900   67.9330 C.3   1312  TCH1312     0.1366
     32  C26       31.2690   74.8740   67.4110 C.3   1312  TCH1312     0.1286
     33  S26       31.5630   74.5670   65.6420 S.3   1312  TCH1312    -0.1942
     34  O2S       32.5690   73.5810   65.4360 O.3   1312  TCH1312    -0.3074
     35  O3S       30.3610   74.6240   64.8840 O.3   1312  TCH1312    -0.3074
@<TRIPOS>BOND
     1    35    33    1
     2    23    33    1
     3    34    33    1
     4    33    32    1
     5    32    31    1
     6    31    29    1
     7    30    28    2
     8    28    29   am
     9    28    27    1
    10    27    26    1
    11    26    24    1
    12    25    24    1
    13    24    20    1
    14    20    19    1
    15    20    16    1
    16    15    14    1
    17    14    16    1
    18    14    13    1
    19    19    18    1
    20    16    21    1
    21    16    17    1
    22    13    11    1
    23    17    18    1
    24    17    10    1
    25    11    10    1
    26    11    12    1
    27    10     8    1
    28     2     1    1
    29     2     3    1
    30     1    12    1
    31    12    22    1
    32    12     6    1
    33     9     8    1
    34     8     7    1
    35     4     3    1
    36     3     5    1
    37     5     6    1
    38     6     7    1
