@<TRIPOS>MOLECULE
3zv5_NAD_A_1.pdb
 44 48 0 0 0
SMALL
GASTEIGER

@<TRIPOS>ATOM
      1  PA         7.1050  -25.9830  -10.4580 P.3   1277  NAD1277     0.2189
      2  O1A        7.6630  -26.8700   -9.4010 O.3   1277  NAD1277    -0.4371
      3  O2A        6.3620  -26.6330  -11.5860 O.2   1277  NAD1277    -0.5170
      4  O5B        8.2830  -25.0340  -10.9780 O.3   1277  NAD1277    -0.3112
      5  C5B        9.2770  -24.5690  -10.0360 C.3   1277  NAD1277     0.1813
      6  C4B       10.6940  -24.9850  -10.4480 C.3   1277  NAD1277     0.1821
      7  O4B       11.5990  -24.6470   -9.3470 O.3   1277  NAD1277    -0.3135
      8  C3B       10.9050  -26.5000  -10.7160 C.3   1277  NAD1277     0.2184
      9  O3B       11.4440  -26.7770  -12.0430 O.3   1277  NAD1277    -0.2174
     10  C2B       11.9550  -26.8930   -9.6920 C.3   1277  NAD1277     0.2570
     11  O2B       12.8070  -27.8770  -10.2880 O.3   1277  NAD1277    -0.2130
     12  C1B       12.6960  -25.5610   -9.4650 C.3   1277  NAD1277     0.3186
     13  N9A       13.4140  -25.5530   -8.1610 N.pl3 1277  NAD1277    -0.1439
     14  C8A       12.8400  -25.7480   -6.9540 C.3   1277  NAD1277     0.3377
     15  N7A       13.7450  -25.7050   -5.9930 N.2   1277  NAD1277    -0.2095
     16  C5A       14.9120  -25.4740   -6.5680 C.2   1277  NAD1277     0.2526
     17  C6A       16.1950  -25.3330   -6.0720 C.2   1277  NAD1277     0.4393
     18  N6A       16.4380  -25.4050   -4.7680 N.pl3 1277  NAD1277     0.2180
     19  N1A       17.1840  -25.0970   -6.9500 N.2   1277  NAD1277     0.0021
     20  C2A       16.9650  -25.0240   -8.2510 C.3   1277  NAD1277     0.5254
     21  N3A       15.7470  -25.1610   -8.7710 N.2   1277  NAD1277    -0.0055
     22  C4A       14.7050  -25.3780   -7.9530 C.2   1277  NAD1277     0.3518
     23  O3         6.1750  -24.8710   -9.6940 O.3   1277  NAD1277    -0.2703
     24  PN         5.8340  -23.4030  -10.2040 P.3   1277  NAD1277     0.2189
     25  O1N        4.5150  -23.0870   -9.6880 O.3   1277  NAD1277    -0.4371
     26  O2N        6.1480  -23.3540  -11.6660 O.2   1277  NAD1277    -0.5170
     27  O5D        6.8660  -22.4600   -9.4090 O.3   1277  NAD1277    -0.3112
     28  C5D        7.3290  -21.2710   -9.9910 C.3   1277  NAD1277     0.1813
     29  C4D        7.0780  -20.0670   -9.0480 C.3   1277  NAD1277     0.1799
     30  O4D        5.6640  -19.6350   -9.0770 O.3   1277  NAD1277    -0.3327
     31  C3D        7.4150  -20.1960   -7.5460 C.3   1277  NAD1277     0.2158
     32  O3D        8.0700  -18.9700   -7.1720 O.3   1277  NAD1277    -0.2175
     33  C2D        6.0160  -20.3190   -6.9320 C.3   1277  NAD1277     0.2309
     34  O2D        5.8970  -20.0300   -5.5380 O.3   1277  NAD1277    -0.2158
     35  C1D        5.3590  -19.2290   -7.7180 C.3   1277  NAD1277     0.2263
     36  N1N        3.9230  -19.3470   -7.6830 N.pl3 1277  NAD1277    -0.2787
     37  C2N        3.3010  -20.6160   -7.9290 C.3   1277  NAD1277     0.1244
     38  C3N        1.8940  -20.6500   -7.9100 C.2   1277  NAD1277     0.0544
     39  C7N        1.1330  -21.9540   -8.1810 C.2   1277  NAD1277     0.2818
     40  O7N       -0.0510  -22.0900   -7.8180 O.2   1277  NAD1277    -0.2670
     41  N7N        1.8480  -22.8820   -8.8550 N.am  1277  NAD1277    -0.0839
     42  C4N        1.1600  -19.4730   -7.6610 C.2   1277  NAD1277     0.0033
     43  C5N        1.7940  -18.2530   -7.4240 C.2   1277  NAD1277     0.0157
     44  C6N        3.1800  -18.1670   -7.4320 C.2   1277  NAD1277     0.0633
@<TRIPOS>BOND
     1     9     8    1
     2    26    24    2
     3     3     1    2
     4     4     1    1
     5     4     5    1
     6     8     6    1
     7     8    10    1
     8     1    23    1
     9     1     2    1
    10     6     5    1
    11     6     7    1
    12    11    10    1
    13    24    23    1
    14    24    25    1
    15    24    27    1
    16    28    27    1
    17    28    29    1
    18    10    12    1
    19    12     7    1
    20    12    13    1
    21    30    29    1
    22    30    35    1
    23    29    31    1
    24    41    39   am
    25    21    20    1
    26    21    22    2
    27    20    19    1
    28    39    38    1
    29    39    40    2
    30    13    22    1
    31    13    14    1
    32    22    16    1
    33    37    38    1
    34    37    36    1
    35    38    42    2
    36    35    36    1
    37    35    33    1
    38    36    44    1
    39    42    43    1
    40    31    32    1
    41    31    33    1
    42    44    43    2
    43    14    15    1
    44    19    17    2
    45    33    34    1
    46    16    17    1
    47    16    15    2
    48    17    18    1
