@<TRIPOS>MOLECULE
3zv5_BPY_A_1.pdb
 14 15 0 0 0
SMALL
GASTEIGER

@<TRIPOS>ATOM
      1  CK1       -1.1020  -22.4280   -4.3060 C.ar  1278  BPY1278     0.0034
      2  CK2       -1.8140  -21.2420   -4.0830 C.ar  1278  BPY1278     0.0422
      3  CK3       -1.1140  -20.0470   -4.2120 C.ar  1278  BPY1278     0.2342
      4  CK4        0.2310  -20.0580   -4.5490 C.ar  1278  BPY1278     0.2343
      5  CK5        0.9190  -21.2380   -4.7680 C.ar  1278  BPY1278     0.0454
      6  CK6        0.2480  -22.4370   -4.6460 C.ar  1278  BPY1278     0.0035
      7  CK7       -3.1760  -21.3200   -3.7330 C.ar  1278  BPY1278     0.0032
      8  CK8       -3.7920  -22.5820   -3.6150 C.ar  1278  BPY1278     0.0001
      9  CK9       -5.1310  -22.7000   -3.2680 C.ar  1278  BPY1278     0.0000
     10  CKA       -5.8930  -21.5520   -3.0240 C.ar  1278  BPY1278     0.0000
     11  CKB       -5.3070  -20.2930   -3.1430 C.ar  1278  BPY1278     0.0000
     12  CKC       -3.9530  -20.1790   -3.4910 C.ar  1278  BPY1278     0.0001
     13  OK1        0.9060  -18.8980   -4.6860 O.3   1278  BPY1278    -0.2831
     14  OK2       -1.7270  -18.8580   -3.9940 O.3   1278  BPY1278    -0.2831
@<TRIPOS>BOND
     1     5     6   ar
     2     5     4   ar
     3    13     4    1
     4     6     1   ar
     5     4     3   ar
     6     1     2   ar
     7     3     2   ar
     8     3    14    1
     9     2     7    1
    10     7     8   ar
    11     7    12   ar
    12     8     9   ar
    13    12    11   ar
    14     9    10   ar
    15    11    10   ar
