@<TRIPOS>MOLECULE
3zv6_NAD_A_1.pdb
 44 48 0 0 0
SMALL
GASTEIGER

@<TRIPOS>ATOM
      1  PA        24.5180    7.9920   33.5720 P.3   1276  NAD1276     0.2189
      2  O1A       25.4740    8.5950   34.4930 O.3   1276  NAD1276    -0.4371
      3  O2A       24.9820    7.1730   32.4250 O.2   1276  NAD1276    -0.5170
      4  O5B       23.6410    9.1750   33.0280 O.3   1276  NAD1276    -0.3112
      5  C5B       23.2950   10.2260   33.9080 C.3   1276  NAD1276     0.1813
      6  C4B       23.4970   11.5780   33.2550 C.3   1276  NAD1276     0.1821
      7  O4B       23.0700   12.5510   34.2340 O.3   1276  NAD1276    -0.3135
      8  C3B       24.9650   11.8570   32.9420 C.3   1276  NAD1276     0.2184
      9  O3B       25.0890   12.3380   31.5800 O.3   1276  NAD1276    -0.2174
     10  C2B       25.3210   12.9380   33.9790 C.3   1276  NAD1276     0.2570
     11  O2B       26.2860   13.9000   33.4980 O.3   1276  NAD1276    -0.2130
     12  C1B       24.0090   13.6500   34.1650 C.3   1276  NAD1276     0.3186
     13  N9A       24.0420   14.3750   35.4360 N.pl3 1276  NAD1276    -0.1439
     14  C8A       24.2650   13.8240   36.6460 C.3   1276  NAD1276     0.3377
     15  N7A       24.1730   14.7660   37.5950 N.2   1276  NAD1276    -0.2095
     16  C5A       23.9170   15.9380   36.9790 C.2   1276  NAD1276     0.2526
     17  C6A       23.7580   17.2530   37.4300 C.2   1276  NAD1276     0.4393
     18  N6A       23.8470   17.5600   38.7180 N.pl3 1276  NAD1276     0.2180
     19  N1A       23.4800   18.2050   36.5020 N.2   1276  NAD1276     0.0021
     20  C2A       23.3910   17.8970   35.2120 C.3   1276  NAD1276     0.5254
     21  N3A       23.5560   16.6590   34.7450 N.2   1276  NAD1276    -0.0055
     22  C4A       23.8230   15.6740   35.6050 C.2   1276  NAD1276     0.3518
     23  O3        23.4420    7.1420   34.4260 O.3   1276  NAD1276    -0.2703
     24  PN        22.0160    6.6140   33.9230 P.3   1276  NAD1276     0.2189
     25  O1N       21.9750    5.3100   34.5390 O.3   1276  NAD1276    -0.4371
     26  O2N       21.7360    6.6510   32.4830 O.2   1276  NAD1276    -0.5170
     27  O5D       21.0430    7.6800   34.7020 O.3   1276  NAD1276    -0.3112
     28  C5D       19.7220    8.1270   34.1930 C.3   1276  NAD1276     0.1813
     29  C4D       18.5050    7.8520   35.1440 C.3   1276  NAD1276     0.1799
     30  O4D       18.2090    6.4150   35.1400 O.3   1276  NAD1276    -0.3327
     31  C3D       18.7990    8.2460   36.6140 C.3   1276  NAD1276     0.2158
     32  O3D       17.6410    8.8870   37.2070 O.3   1276  NAD1276    -0.2175
     33  C2D       19.0510    6.9020   37.2820 C.3   1276  NAD1276     0.2309
     34  O2D       18.7390    7.0110   38.6630 O.3   1276  NAD1276    -0.2158
     35  C1D       18.0270    6.0480   36.5420 C.3   1276  NAD1276     0.2263
     36  N1N       18.1370    4.5730   36.5890 N.pl3 1276  NAD1276    -0.2787
     37  C2N       19.3760    3.9180   36.3630 C.3   1276  NAD1276     0.1244
     38  C3N       19.4650    2.5310   36.3920 C.2   1276  NAD1276     0.0544
     39  C7N       20.8050    1.8210   36.0990 C.2   1276  NAD1276     0.2818
     40  O7N       21.0240    0.6720   36.4850 O.2   1276  NAD1276    -0.2670
     41  N7N       21.6660    2.5150   35.3630 N.am  1276  NAD1276    -0.0839
     42  C4N       18.3130    1.7760   36.6600 C.2   1276  NAD1276     0.0033
     43  C5N       17.0840    2.4060   36.8980 C.2   1276  NAD1276     0.0157
     44  C6N       16.9930    3.8010   36.8590 C.2   1276  NAD1276     0.0633
@<TRIPOS>BOND
     1     9     8    1
     2     3     1    2
     3    26    24    2
     4     8     6    1
     5     8    10    1
     6     4     1    1
     7     4     5    1
     8     6     5    1
     9     6     7    1
    10    11    10    1
    11     1    23    1
    12     1     2    1
    13    24    23    1
    14    24    25    1
    15    24    27    1
    16    10    12    1
    17    12     7    1
    18    12    13    1
    19    28    27    1
    20    28    29    1
    21    21    20    1
    22    21    22    2
    23    30    29    1
    24    30    35    1
    25    29    31    1
    26    20    19    1
    27    41    39   am
    28    13    22    1
    29    13    14    1
    30    22    16    1
    31    39    38    1
    32    39    40    2
    33    37    38    1
    34    37    36    1
    35    38    42    2
    36    19    17    2
    37    35    36    1
    38    35    33    1
    39    36    44    1
    40    31    32    1
    41    31    33    1
    42    14    15    1
    43    42    43    1
    44    44    43    2
    45    16    17    1
    46    16    15    2
    47    33    34    1
    48    17    18    1
