@<TRIPOS>MOLECULE
3zv6_4HB_A_1.pdb
 14 15 0 0 0
SMALL
GASTEIGER

@<TRIPOS>ATOM
      1  CA1       19.7930   -1.4530   40.2790 C.ar  1277  4HB1277     0.0002
      2  CA2       20.7370   -0.4080   40.2710 C.ar  1277  4HB1277     0.0033
      3  CA3       20.3660    0.9100   40.0150 C.ar  1277  4HB1277     0.0420
      4  CA4       19.0410    1.2100   39.7610 C.ar  1277  4HB1277     0.1957
      5  OA4       18.6520    2.4760   39.5050 O.3   1277  4HB1277    -0.2866
      6  CA5       18.0970    0.2020   39.7600 C.ar  1277  4HB1277     0.0420
      7  CA6       18.4690   -1.1140   40.0120 C.ar  1277  4HB1277     0.0033
      8  CB1       20.1520   -2.7890   40.5400 C.ar  1277  4HB1277     0.0002
      9  CB2       21.4870   -3.1320   40.8160 C.ar  1277  4HB1277     0.0033
     10  CB3       21.8670   -4.4480   41.0740 C.ar  1277  4HB1277     0.0420
     11  CB4       20.9240   -5.4670   41.0740 C.ar  1277  4HB1277     0.1957
     12  CB5       19.5920   -5.1510   40.8030 C.ar  1277  4HB1277     0.0420
     13  CB6       19.2070   -3.8300   40.5400 C.ar  1277  4HB1277     0.0033
     14  OAM       21.3140   -6.7530   41.3250 O.3   1277  4HB1277    -0.2866
@<TRIPOS>BOND
     1     5     4    1
     2     6     4   ar
     3     6     7   ar
     4     4     3   ar
     5     7     1   ar
     6     3     2   ar
     7     2     1   ar
     8     1     8    1
     9     8    13   ar
    10     8     9   ar
    11    13    12   ar
    12    12    11   ar
    13     9    10   ar
    14    10    11   ar
    15    11    14    1
