@<TRIPOS>MOLECULE
3zv7_NHG_A_1.pdb
 14 16 0 0 0
SMALL
GASTEIGER

@<TRIPOS>ATOM
      1  CW2        4.8490   65.3380   62.5980 C.2   1541  NHG1541     0.0387
      2  CW3        4.0400   66.3360   63.1300 C.2   1541  NHG1541    -0.0029
      3  CW7        3.8840   67.8070   62.7450 C.3   1541  NHG1541     0.0575
      4  CK2        3.4270   67.9780   61.2940 C.3   1541  NHG1541     0.0079
      5  CW9        5.1690   68.5790   63.0450 C.3   1541  NHG1541     0.0263
      6  CK1        5.0610   68.6620   64.5660 C.3   1541  NHG1541     0.0912
      7  NW2        3.6820   69.1500   64.7100 N.3   1541  NHG1541    -0.1962
      8  CW8        2.8880   68.3240   63.7850 C.3   1541  NHG1541     0.1790
      9  NW1        2.4050   67.1090   64.4600 N.2   1541  NHG1541    -0.2586
     10  CW4        3.1100   66.0300   64.1210 C.2   1541  NHG1541     0.0559
     11  CW5        2.9960   64.7140   64.5560 C.3   1541  NHG1541     0.0744
     12  CW6        3.8030   63.7130   64.0270 C.2   1541  NHG1541     0.0222
     13  CW1        4.7380   64.0270   63.0470 C.2   1541  NHG1541     0.1916
     14  OW1        5.5700   63.0680   62.5570 O.2   1541  NHG1541    -0.2869
@<TRIPOS>BOND
     1     4     3    1
     2    14    13    1
     3     1    13    1
     4     1     2    2
     5     3     5    1
     6     3     2    1
     7     3     8    1
     8     5     6    1
     9    13    12    2
    10     2    10    1
    11     8     9    1
    12     8     7    1
    13    12    11    1
    14    10     9    2
    15    10    11    1
    16     6     7    1
