@<TRIPOS>MOLECULE
3zv9_G74_A_1.pdb
 23 23 0 0 0
SMALL
GASTEIGER

@<TRIPOS>ATOM
      1  O88       -5.5600   11.8310   18.1960 O.2   1190  G741190    -0.2501
      2  C84       -5.6920   11.6860   16.9650 C.2   1190  G741190     0.3170
      3  O86       -5.2590   10.4320   16.3380 O.3   1190  G741190    -0.4485
      4  C3        -4.5220    9.4210   17.0700 C.3   1190  G741190     0.2086
      5  C5        -3.2420    9.0020   16.3520 C.3   1190  G741190     0.0513
      6  C82       -6.2920   12.7800   16.0750 C.3   1190  G741190     0.1113
      7  C63       -5.9950   14.2070   16.5350 C.3   1190  G741190     0.0335
      8  C57       -4.4880   14.4690   16.7300 C.3   1190  G741190     0.1004
      9  C59       -4.2250   15.7820   17.4720 C.3   1190  G741190     0.0384
     10  C61       -2.7370   16.0120   17.8190 C.3   1190  G741190     0.1100
     11  C73       -2.0130   14.8040   18.4600 C.3   1190  G741190     0.0438
     12  C71       -0.9790   15.4050   19.4390 C.3   1190  G741190     0.1387
     13  N69       -1.5630   16.7370   19.6400 N.2   1190  G741190    -0.2063
     14  C65       -2.4990   17.0850   18.8600 C.1   1190  G741190     0.1250
     15  O66       -3.1560   18.2460   18.9720 O.2   1190  G741190    -0.2271
     16  N49       -3.8980   14.5660   15.3900 N.am  1190  G741190    -0.1705
     17  C39       -3.0460   13.6410   14.9400 C.2   1190  G741190     0.4208
     18  O47       -2.6950   12.6900   15.6170 O.2   1190  G741190    -0.2246
     19  O37       -2.5070   13.7640   13.5990 O.3   1190  G741190    -0.4408
     20  C1        -1.9370   12.6920   12.8540 C.3   1190  G741190     0.1379
     21  C2        -1.6290   13.2960   11.4780 C.3   1190  G741190     0.0437
     22  C4        -2.9710   11.5570   12.7120 C.3   1190  G741190     0.0437
     23  C6        -0.6250   12.2260   13.5290 C.3   1190  G741190     0.0437
@<TRIPOS>BOND
     1    21    20    1
     2    22    20    1
     3    20    23    1
     4    20    19    1
     5    19    17    1
     6    17    16   am
     7    17    18    2
     8    16     8    1
     9     6     7    1
    10     6     2    1
    11     3     2    1
    12     3     4    1
    13     5     4    1
    14     7     8    1
    15     8     9    1
    16     2     1    2
    17     9    10    1
    18    10    11    1
    19    10    14    1
    20    11    12    1
    21    14    15    2
    22    14    13    2
    23    12    13    1
