@<TRIPOS>MOLECULE
3zva_G75_A_1.pdb
 37 39 0 0 0
SMALL
GASTEIGER

@<TRIPOS>ATOM
      1  O88      -13.1900   -1.2260  -18.1250 O.2   1190  G751190    -0.2501
      2  C84      -13.2280   -0.8380  -16.9540 C.2   1190  G751190     0.3170
      3  O86      -12.0590   -0.1080  -16.4800 O.3   1190  G751190    -0.4485
      4  C3       -12.0210    1.3500  -16.4200 C.3   1190  G751190     0.2086
      5  C5       -13.1970    2.0870  -17.0730 C.3   1190  G751190     0.0513
      6  C82      -14.4160   -1.0730  -16.0060 C.3   1190  G751190     0.1113
      7  C63      -15.5120   -2.0250  -16.4960 C.3   1190  G751190     0.0333
      8  C57      -15.0130   -3.4610  -16.7300 C.3   1190  G751190     0.0970
      9  C59      -15.9580   -4.3250  -17.5950 C.3   1190  G751190     0.0383
     10  C61      -15.4280   -5.7290  -17.9640 C.3   1190  G751190     0.1100
     11  C65      -16.2950   -6.4540  -18.9620 C.1   1190  G751190     0.1250
     12  O66      -17.6330   -6.4290  -18.9690 O.2   1190  G751190    -0.2271
     13  N69      -15.5750   -7.0910  -19.7850 N.2   1190  G751190    -0.2063
     14  C71      -14.1130   -6.9800  -19.6360 C.3   1190  G751190     0.1387
     15  C73      -14.0590   -5.7770  -18.6720 C.3   1190  G751190     0.0438
     16  N49      -14.8840   -4.0740  -15.4020 N.am  1190  G751190    -0.2057
     17  C39      -13.6990   -4.5330  -14.9810 C.2   1190  G751190     0.2616
     18  O47      -12.7010   -4.4850  -15.6960 O.2   1190  G751190    -0.2715
     19  C37      -13.6140   -5.1610  -13.6040 C.3   1190  G751190     0.1804
     20  C41      -12.8400   -4.2890  -12.5940 C.3   1190  G751190     0.0575
     21  C51      -13.5150   -2.9330  -12.4640 C.ar  1190  G751190    -0.0200
     22  C55      -12.7750   -1.7660  -12.7120 C.ar  1190  G751190    -0.0042
     23  C11      -13.3950   -0.5190  -12.5930 C.ar  1190  G751190    -0.0003
     24  C9       -14.7510   -0.4480  -12.2300 C.ar  1190  G751190    -0.0000
     25  C7       -15.5120   -1.6020  -11.9760 C.ar  1190  G751190    -0.0003
     26  C53      -14.8820   -2.8380  -12.0880 C.ar  1190  G751190    -0.0042
     27  N33      -12.8550   -6.3990  -13.6830 N.am  1190  G751190    -0.1607
     28  C31      -13.2030   -7.4360  -14.4220 C.2   1190  G751190     0.4219
     29  O35      -14.2250   -7.4790  -15.0730 O.2   1190  G751190    -0.2245
     30  O1       -12.3540   -8.6050  -14.4260 O.3   1190  G751190    -0.4285
     31  C1       -12.6070   -9.7390  -15.2780 C.3   1190  G751190     0.2368
     32  C2       -13.3850  -10.8460  -14.5720 C.ar  1190  G751190     0.0213
     33  C4       -12.7810  -12.0790  -14.3190 C.ar  1190  G751190    -0.0007
     34  C6       -13.4890  -13.1130  -13.6780 C.ar  1190  G751190    -0.0002
     35  C8       -14.8150  -12.9220  -13.2980 C.ar  1190  G751190    -0.0000
     36  C12      -15.4150  -11.6900  -13.5530 C.ar  1190  G751190    -0.0002
     37  C10      -14.7100  -10.6700  -14.1870 C.ar  1190  G751190    -0.0007
@<TRIPOS>BOND
     1    13    14    1
     2    13    11    2
     3    14    15    1
     4    12    11    2
     5    11    10    1
     6    15    10    1
     7     1     2    2
     8    10     9    1
     9     9     8    1
    10     5     4    1
    11     2     3    1
    12     2     6    1
    13     8     7    1
    14     8    16    1
    15     7     6    1
    16     3     4    1
    17    18    17    2
    18    16    17   am
    19    31    32    1
    20    31    30    1
    21    29    28    2
    22    17    19    1
    23    32    33   ar
    24    32    37   ar
    25    30    28    1
    26    28    27   am
    27    33    34   ar
    28    37    36   ar
    29    27    19    1
    30    34    35   ar
    31    19    20    1
    32    36    35   ar
    33    22    23   ar
    34    22    21   ar
    35    20    21    1
    36    23    24   ar
    37    21    26   ar
    38    24    25   ar
    39    26    25   ar
