@<TRIPOS>MOLECULE
3zvb_G81_A_1.pdb
 34 35 0 0 0
SMALL
GASTEIGER

@<TRIPOS>ATOM
      1  O35      -14.1650   -8.6830  -13.8040 O.2   1190  G811190    -0.2246
      2  C31      -13.6820   -7.8550  -14.5130 C.2   1190  G811190     0.4213
      3  O1       -14.4150   -6.6310  -14.7160 O.3   1190  G811190    -0.4408
      4  C1       -15.7790   -6.3860  -14.3170 C.3   1190  G811190     0.1379
      5  C2       -16.4140   -5.3000  -15.2030 C.3   1190  G811190     0.0437
      6  C4       -15.5910   -5.8890  -12.8820 C.3   1190  G811190     0.0437
      7  C6       -16.6760   -7.6140  -14.4940 C.3   1190  G811190     0.0437
      8  N33      -12.5250   -8.0230  -15.0860 N.am  1190  G811190    -0.1607
      9  C37      -11.7780   -9.2590  -14.9640 C.3   1190  G811190     0.1804
     10  C41      -10.6230   -8.9400  -15.9280 C.3   1190  G811190     0.0575
     11  C51       -9.6320  -10.0840  -16.0460 C.ar  1190  G811190    -0.0200
     12  C53       -8.2470   -9.8080  -16.0490 C.ar  1190  G811190    -0.0042
     13  C7        -7.3710  -10.8860  -16.1570 C.ar  1190  G811190    -0.0003
     14  C9        -7.8380  -12.2120  -16.2590 C.ar  1190  G811190    -0.0000
     15  C11       -9.2110  -12.5090  -16.2770 C.ar  1190  G811190    -0.0003
     16  C55      -10.1000  -11.4310  -16.1760 C.ar  1190  G811190    -0.0042
     17  C39      -11.3170   -9.6000  -13.5740 C.2   1190  G811190     0.2616
     18  O47      -10.9020   -8.6970  -12.8670 O.2   1190  G811190    -0.2715
     19  N49      -11.3690  -10.8840  -13.1350 N.am  1190  G811190    -0.2057
     20  C57      -10.8820  -11.2600  -11.7860 C.3   1190  G811190     0.0970
     21  C59      -12.0090  -11.7470  -10.8940 C.3   1190  G811190     0.0383
     22  C61      -12.9520  -10.5940  -10.5490 C.3   1190  G811190     0.1100
     23  C73      -12.2050   -9.3950   -9.9410 C.3   1190  G811190     0.0438
     24  C71      -13.0880   -8.8210   -8.8270 C.3   1190  G811190     0.1387
     25  N69      -13.9930   -9.9530   -8.6140 N.2   1190  G811190    -0.2063
     26  C65      -13.9620  -10.9660   -9.4950 C.1   1190  G811190     0.1250
     27  O66      -14.6220  -12.0180   -9.4590 O.2   1190  G811190    -0.2271
     28  C63       -9.8550  -12.3460  -11.9760 C.3   1190  G811190     0.0333
     29  C82       -8.6750  -11.7340  -12.7130 C.3   1190  G811190     0.1113
     30  C84       -7.5580  -11.2530  -11.8160 C.2   1190  G811190     0.3170
     31  O88       -7.3090  -11.8800  -10.7810 O.2   1190  G811190    -0.2501
     32  O86       -6.7700  -10.0820  -12.2350 O.3   1190  G811190    -0.4485
     33  C3        -5.4180  -10.2500  -12.7540 C.3   1190  G811190     0.2086
     34  C5        -4.9010   -9.0920  -13.6240 C.3   1190  G811190     0.0513
@<TRIPOS>BOND
     1    15    14   ar
     2    15    16   ar
     3    14    13   ar
     4    16    11   ar
     5    13    12   ar
     6    12    11   ar
     7    11    10    1
     8    10     9    1
     9     5     4    1
    10     8     9    1
    11     8     2   am
    12     9    17    1
    13     3     2    1
    14     3     4    1
    15     2     1    2
    16     7     4    1
    17     4     6    1
    18    34    33    1
    19    17    19   am
    20    17    18    2
    21    19    20    1
    22    33    32    1
    23    29    28    1
    24    29    30    1
    25    32    30    1
    26    28    20    1
    27    30    31    2
    28    20    21    1
    29    21    22    1
    30    22    23    1
    31    22    26    1
    32    23    24    1
    33    26    27    2
    34    26    25    2
    35    24    25    1
