@<TRIPOS>MOLECULE
3zvc_G82_A_1.pdb
 50 52 0 0 0
SMALL
GASTEIGER

@<TRIPOS>ATOM
      1  O88       -5.9060   12.3050   18.0860 O.2   1190  G821190    -0.2501
      2  C84       -5.8330   12.1540   16.8610 C.2   1190  G821190     0.3170
      3  O86       -5.2580   10.9200   16.3440 O.3   1190  G821190    -0.4485
      4  C3        -6.0610    9.8440   15.8010 C.3   1190  G821190     0.2086
      5  C5        -5.2410    8.9560   14.8670 C.3   1190  G821190     0.0513
      6  C82       -6.2880   13.2380   15.8820 C.3   1190  G821190     0.1113
      7  C63       -6.0930   14.6600   16.4140 C.3   1190  G821190     0.0333
      8  C57       -4.6230   15.0070   16.6530 C.3   1190  G821190     0.0970
      9  C59       -4.4540   16.2820   17.4840 C.3   1190  G821190     0.0383
     10  C61       -2.9800   16.5660   17.8190 C.3   1190  G821190     0.1100
     11  C73       -2.2210   15.3540   18.4090 C.3   1190  G821190     0.0438
     12  C71       -1.2730   15.9250   19.4790 C.3   1190  G821190     0.1387
     13  N69       -1.9640   17.1900   19.7380 N.2   1190  G821190    -0.2063
     14  C65       -2.7870   17.6230   18.8640 C.1   1190  G821190     0.1250
     15  O66       -3.3250   18.7380   18.8350 O.2   1190  G821190    -0.2271
     16  N49       -3.9970   15.2500   15.3350 N.am  1190  G821190    -0.2057
     17  C39       -3.0210   14.4280   14.9050 C.2   1190  G821190     0.2615
     18  O47       -2.5800   13.5140   15.5970 O.2   1190  G821190    -0.2715
     19  C37       -2.3650   14.6820   13.5640 C.3   1190  G821190     0.1771
     20  C41       -2.7100   13.5540   12.5720 C.3   1190  G821190     0.0574
     21  C51       -4.2170   13.3790   12.4190 C.ar  1190  G821190    -0.0200
     22  C55       -5.0510   14.4800   12.1130 C.ar  1190  G821190    -0.0042
     23  C11       -6.4370   14.3240   11.9890 C.ar  1190  G821190    -0.0003
     24  C9        -6.9900   13.0430   12.1460 C.ar  1190  G821190    -0.0000
     25  C7        -6.1670   11.9480   12.4380 C.ar  1190  G821190    -0.0003
     26  C53       -4.7820   12.0990   12.5680 C.ar  1190  G821190    -0.0042
     27  N33       -0.9150   14.6160   13.7900 N.am  1190  G821190    -0.1960
     28  C31       -0.2670   15.5110   14.5390 C.2   1190  G821190     0.2617
     29  O35       -0.8660   16.4560   15.0280 O.2   1190  G821190    -0.2715
     30  C23        1.2310   15.3930   14.7490 C.3   1190  G821190     0.1767
     31  C25        1.6050   14.8470   16.1210 C.3   1190  G821190     0.0429
     32  C15        1.1050   13.4430   16.4240 C.3   1190  G821190     0.1118
     33  C14        1.3850   13.1320   17.8930 C.2   1190  G821190     0.3168
     34  O2         0.3210   12.5620   18.7330 O.3   1190  G821190    -0.4557
     35  C29        0.4820   11.7670   19.9190 C.3   1190  G821190     0.1363
     36  C45        0.7000   10.3010   19.4920 C.3   1190  G821190     0.0437
     37  C43        1.6260   12.2610   20.8110 C.3   1190  G821190     0.0437
     38  C12       -0.8170   11.9060   20.7030 C.3   1190  G821190     0.0437
     39  O1         2.4820   13.3750   18.3830 O.2   1190  G821190    -0.2501
     40  N21        1.7620   16.7360   14.8860 N.am  1190  G821190    -0.1611
     41  C17        2.3130   17.3890   13.8760 C.2   1190  G821190     0.4218
     42  O19        2.4390   16.8980   12.7710 O.2   1190  G821190    -0.2245
     43  O15        2.7830   18.7420   14.0870 O.3   1190  G821190    -0.4285
     44  C13        3.5210   19.4540   13.0840 C.3   1190  G821190     0.2368
     45  C4         5.0050   19.1470   13.1120 C.ar  1190  G821190     0.0213
     46  C2         5.8400   19.7330   12.1530 C.ar  1190  G821190    -0.0007
     47  C1         7.2200   19.4670   12.1700 C.ar  1190  G821190    -0.0002
     48  C10        7.7680   18.6070   13.1400 C.ar  1190  G821190    -0.0000
     49  C8         6.9300   18.0240   14.1020 C.ar  1190  G821190    -0.0002
     50  C6         5.5600   18.2980   14.0850 C.ar  1190  G821190    -0.0007
@<TRIPOS>BOND
     1    23    22   ar
     2    23    24   ar
     3    22    21   ar
     4    24    25   ar
     5    46    47   ar
     6    46    45   ar
     7    47    48   ar
     8    21    26   ar
     9    21    20    1
    10    25    26   ar
    11    20    19    1
    12    42    41    2
    13    44    45    1
    14    44    43    1
    15    45    50   ar
    16    48    49   ar
    17    19    27    1
    18    19    17    1
    19    27    28   am
    20    41    43    1
    21    41    40   am
    22    50    49   ar
    23    28    30    1
    24    28    29    2
    25    30    40    1
    26    30    31    1
    27     5     4    1
    28    17    16   am
    29    17    18    2
    30    16     8    1
    31     4     3    1
    32     6     7    1
    33     6     2    1
    34    31    32    1
    35     3     2    1
    36     7     8    1
    37    32    33    1
    38     8     9    1
    39     2     1    2
    40     9    10    1
    41    10    11    1
    42    10    14    1
    43    33    39    2
    44    33    34    1
    45    11    12    1
    46    34    35    1
    47    15    14    2
    48    14    13    2
    49    12    13    1
    50    36    35    1
    51    35    38    1
    52    35    37    1
