@<TRIPOS>MOLECULE
3zvd_G83_A_1.pdb
 49 51 0 0 0
SMALL
GASTEIGER

@<TRIPOS>ATOM
      1  O19        2.8810   16.7580   12.8800 O.2   1190  G831190    -0.2245
      2  C17        2.4820   17.3550   13.8590 C.2   1190  G831190     0.4219
      3  O15        2.8970   18.7450   13.9960 O.3   1190  G831190    -0.4285
      4  C13        3.8760   19.3130   13.1090 C.3   1190  G831190     0.2368
      5  C4         5.2630   18.9280   13.5930 C.ar  1190  G831190     0.0213
      6  C6         6.0730   19.8760   14.2320 C.ar  1190  G831190    -0.0007
      7  C8         7.3580   19.5430   14.6980 C.ar  1190  G831190    -0.0002
      8  C10        7.8380   18.2320   14.5190 C.ar  1190  G831190    -0.0000
      9  C1         7.0300   17.2750   13.8940 C.ar  1190  G831190    -0.0002
     10  C2         5.7490   17.6280   13.4340 C.ar  1190  G831190    -0.0007
     11  N21        1.7050   16.7590   14.7600 N.am  1190  G831190    -0.1605
     12  C23        1.2200   15.3880   14.6120 C.3   1190  G831190     0.1872
     13  C25        1.5510   14.6210   15.8910 C.3   1190  G831190     0.1406
     14  C14        3.0420   14.6240   16.1420 C.2   1190  G831190     0.3190
     15  O1         3.8370   14.2900   15.2800 O.2   1190  G831190    -0.2500
     16  O2         3.4950   15.0840   17.4490 O.3   1190  G831190    -0.4557
     17  C29        4.8100   14.9570   18.0120 C.3   1190  G831190     0.1363
     18  C12        5.2740   13.4940   17.9240 C.3   1190  G831190     0.0437
     19  C43        4.6940   15.3730   19.4810 C.3   1190  G831190     0.0437
     20  C45        5.7880   15.8790   17.2910 C.3   1190  G831190     0.0437
     21  C31       -0.2790   15.4310   14.4390 C.2   1190  G831190     0.2623
     22  O35       -0.8750   16.3840   14.9120 O.2   1190  G831190    -0.2715
     23  N33       -0.9040   14.4600   13.7720 N.am  1190  G831190    -0.1960
     24  C37       -2.3520   14.4660   13.5980 C.3   1190  G831190     0.1771
     25  C41       -2.6730   13.3840   12.5530 C.3   1190  G831190     0.0574
     26  C51       -4.1830   13.2050   12.4370 C.ar  1190  G831190    -0.0200
     27  C53       -4.7530   11.9190   12.5900 C.ar  1190  G831190    -0.0042
     28  C7        -6.1480   11.7600   12.4890 C.ar  1190  G831190    -0.0003
     29  C9        -6.9720   12.8830   12.2320 C.ar  1190  G831190    -0.0000
     30  C11       -6.4280   14.1770   12.0770 C.ar  1190  G831190    -0.0003
     31  C55       -5.0360   14.3220   12.1690 C.ar  1190  G831190    -0.0042
     32  C39       -2.9860   14.2070   14.9460 C.2   1190  G831190     0.2615
     33  O47       -2.5760   13.2670   15.6260 O.2   1190  G831190    -0.2715
     34  N49       -3.9610   15.0430   15.3840 N.am  1190  G831190    -0.2057
     35  C57       -4.5990   14.8430   16.7000 C.3   1190  G831190     0.0970
     36  C59       -4.3540   16.1010   17.5610 C.3   1190  G831190     0.0383
     37  C61       -2.8700   16.4490   17.7870 C.3   1190  G831190     0.1100
     38  C73       -1.9700   15.2900   18.2910 C.3   1190  G831190     0.0438
     39  C71       -1.0340   15.8710   19.3690 C.3   1190  G831190     0.1387
     40  N69       -1.7640   17.1150   19.6700 N.2   1190  G831190    -0.2063
     41  C65       -2.6660   17.4860   18.8610 C.1   1190  G831190     0.1250
     42  O66       -3.3150   18.6460   18.9410 O.2   1190  G831190    -0.2271
     43  C63       -6.0790   14.5250   16.4560 C.3   1190  G831190     0.0333
     44  C82       -6.3020   13.1410   15.8400 C.3   1190  G831190     0.1113
     45  C84       -5.8200   12.0140   16.7500 C.2   1190  G831190     0.3170
     46  O88       -5.9100   12.1120   17.9830 O.2   1190  G831190    -0.2501
     47  O86       -5.2050   10.8220   16.1550 O.3   1190  G831190    -0.4485
     48  C3        -5.9680    9.6460   15.7990 C.3   1190  G831190     0.2086
     49  C5        -5.3680    8.8860   14.6070 C.3   1190  G831190     0.0513
@<TRIPOS>BOND
     1    30    31   ar
     2    30    29   ar
     3    31    26   ar
     4    29    28   ar
     5    26    25    1
     6    26    27   ar
     7    28    27   ar
     8    25    24    1
     9     1     2    2
    10     4     5    1
    11     4     3    1
    12    10     5   ar
    13    10     9   ar
    14     5     6   ar
    15    24    23    1
    16    24    32    1
    17    23    21   am
    18     2     3    1
    19     2    11   am
    20     9     8   ar
    21     6     7   ar
    22    21    12    1
    23    21    22    2
    24     8     7   ar
    25    49    48    1
    26    12    11    1
    27    12    13    1
    28    32    34   am
    29    32    33    2
    30    15    14    2
    31    34    35    1
    32    48    47    1
    33    44    43    1
    34    44    45    1
    35    13    14    1
    36    14    16    1
    37    47    45    1
    38    43    35    1
    39    35    36    1
    40    45    46    2
    41    20    17    1
    42    16    17    1
    43    36    37    1
    44    37    38    1
    45    37    41    1
    46    18    17    1
    47    17    19    1
    48    38    39    1
    49    41    42    2
    50    41    40    2
    51    39    40    1
