@<TRIPOS>MOLECULE
3zvf_G85_A_1.pdb
 47 49 0 0 0
SMALL
GASTEIGER

@<TRIPOS>ATOM
      1  C1       -13.4620  -16.6540  -15.0150 C.ar  1189  G851189    -0.0002
      2  C2       -13.0870  -15.4190  -14.4210 C.ar  1189  G851189    -0.0007
      3  C3       -10.7180   -0.6020  -15.3280 C.3   1189  G851189     0.2086
      4  C4       -14.0490  -14.7060  -13.6580 C.ar  1189  G851189     0.0213
      5  C5       -10.2710    0.8360  -15.0670 C.3   1189  G851189     0.0513
      6  C6       -15.3560  -15.2850  -13.5150 C.ar  1189  G851189    -0.0007
      7  C7       -15.0820   -1.5820  -11.9510 C.ar  1189  G851189    -0.0003
      8  C8       -15.7300  -16.5170  -14.0990 C.ar  1189  G851189    -0.0002
      9  C9       -14.2290   -0.4960  -12.2330 C.ar  1189  G851189    -0.0000
     10  C10      -14.7600  -17.2010  -14.8520 C.ar  1189  G851189    -0.0000
     11  C11      -12.8770   -0.6690  -12.5830 C.ar  1189  G851189    -0.0003
     12  C12       -8.9090  -10.9900  -16.6350 C.3   1189  G851189     0.0296
     13  C13      -13.6850  -13.3600  -12.9970 C.3   1189  G851189     0.2368
     14  O15      -14.1820  -12.1340  -13.6160 O.3   1189  G851189    -0.4285
     15  C17      -13.2680  -10.9760  -13.6370 C.2   1189  G851189     0.4219
     16  O19      -12.3890  -10.9390  -12.7860 O.2   1189  G851189    -0.2245
     17  N21      -13.3520   -9.9970  -14.5420 N.am  1189  G851189    -0.1584
     18  C23      -12.4710   -8.8170  -14.5770 C.3   1189  G851189     0.2054
     19  C25      -11.8270   -8.8010  -15.9500 C.3   1189  G851189     0.1730
     20  O27      -10.5510   -9.4570  -15.8720 O.3   1189  G851189    -0.3562
     21  C29      -10.0350  -10.0540  -17.0940 C.3   1189  G851189     0.0931
     22  C31      -13.2090   -7.5060  -14.4390 C.2   1189  G851189     0.2643
     23  N33      -12.6540   -6.5240  -13.7500 N.am  1189  G851189    -0.1959
     24  O35      -14.3110   -7.3780  -14.9520 O.2   1189  G851189    -0.2714
     25  C37      -13.3720   -5.2690  -13.6000 C.3   1189  G851189     0.1771
     26  C39      -13.4650   -4.5220  -14.9330 C.2   1189  G851189     0.2615
     27  C41      -12.6000   -4.5130  -12.4970 C.3   1189  G851189     0.0574
     28  C43      -11.1090  -10.8900  -17.8200 C.3   1189  G851189     0.0296
     29  C45       -9.4750   -8.9520  -18.0060 C.3   1189  G851189     0.0296
     30  O47      -12.4380   -4.4050  -15.5870 O.2   1189  G851189    -0.2715
     31  N49      -14.6490   -4.0390  -15.3930 N.am  1189  G851189    -0.2057
     32  C51      -13.1690   -3.1050  -12.3900 C.ar  1189  G851189    -0.0200
     33  C53      -14.5320   -2.8800  -12.0190 C.ar  1189  G851189    -0.0042
     34  C55      -12.3510   -1.9730  -12.6740 C.ar  1189  G851189    -0.0042
     35  C57      -14.7470   -3.3290  -16.6840 C.3   1189  G851189     0.0970
     36  C59      -15.7170   -4.0780  -17.6190 C.3   1189  G851189     0.0383
     37  C61      -15.2730   -5.5400  -17.8310 C.3   1189  G851189     0.1100
     38  C63      -15.1480   -1.8680  -16.4310 C.3   1189  G851189     0.0333
     39  C65      -16.1200   -6.3760  -18.7600 C.1   1189  G851189     0.1250
     40  O66      -17.3520   -6.3170  -18.8620 O.2   1189  G851189    -0.2271
     41  N69      -15.3390   -7.1430  -19.4150 N.2   1189  G851189    -0.2063
     42  C71      -13.9060   -6.8690  -19.3990 C.3   1189  G851189     0.1387
     43  C73      -13.8670   -5.6620  -18.4570 C.3   1189  G851189     0.0438
     44  C82      -13.9760   -1.0470  -15.8390 C.3   1189  G851189     0.1113
     45  C84      -12.8750   -0.7780  -16.8670 C.2   1189  G851189     0.3170
     46  O86      -11.4050   -0.8140  -16.5860 O.3   1189  G851189    -0.4485
     47  O88      -13.2630   -0.5470  -18.0280 O.2   1189  G851189    -0.2501
@<TRIPOS>BOND
     1    41    42    1
     2    41    39    2
     3    42    43    1
     4    40    39    2
     5    39    37    1
     6    43    37    1
     7    47    45    2
     8    29    21    1
     9    37    36    1
    10    28    21    1
    11    36    35    1
    12    21    12    1
    13    21    20    1
    14    45    46    1
    15    45    44    1
    16    35    38    1
    17    35    31    1
    18    46     3    1
    19    38    44    1
    20    19    20    1
    21    19    18    1
    22    30    26    2
    23    31    26   am
    24     3     5    1
    25     1    10   ar
    26     1     2   ar
    27    24    22    2
    28    26    25    1
    29    10     8   ar
    30    18    17    1
    31    18    22    1
    32    17    15   am
    33    22    23   am
    34     2     4   ar
    35     8     6   ar
    36    23    25    1
    37     4     6   ar
    38     4    13    1
    39    15    14    1
    40    15    16    2
    41    14    13    1
    42    25    27    1
    43    34    11   ar
    44    34    32   ar
    45    11     9   ar
    46    27    32    1
    47    32    33   ar
    48     9     7   ar
    49    33     7   ar
