@<TRIPOS>MOLECULE
3zvg_G86_A_1.pdb
 45 46 0 0 0
SMALL
GASTEIGER

@<TRIPOS>ATOM
      1  C1       -18.2770   -3.9770  -15.0500 C.3   1190  G861190     0.0437
      2  C2       -18.4580   -5.7610  -16.8010 C.3   1190  G861190     0.0437
      3  C3        -6.2940   -8.9260  -12.8270 C.3   1190  G861190     0.2086
      4  C4       -19.8530   -5.8750  -14.7180 C.3   1190  G861190     0.0437
      5  C5        -5.0930   -8.8000  -13.7670 C.3   1190  G861190     0.0513
      6  C7        -7.1240  -11.1120  -16.0170 C.ar  1190  G861190    -0.0003
      7  C9        -7.6910  -12.3670  -16.3090 C.ar  1190  G861190    -0.0000
      8  C11       -9.0800  -12.5110  -16.4850 C.ar  1190  G861190    -0.0003
      9  C12      -14.8470   -2.1920  -12.1490 C.3   1190  G861190     0.0296
     10  C13      -18.4940   -5.4740  -15.3030 C.3   1190  G861190     0.1379
     11  C14      -11.9790   -5.6100  -12.2100 C.3   1190  G861190     0.0344
     12  O15      -17.4560   -6.2570  -14.6890 O.3   1190  G861190    -0.4408
     13  C17      -16.0260   -5.9870  -14.7600 C.2   1190  G861190     0.4214
     14  O19      -15.6150   -5.2370  -15.6570 O.2   1190  G861190    -0.2246
     15  N21      -15.2310   -6.6120  -13.8720 N.am  1190  G861190    -0.1585
     16  C23      -13.7680   -6.4470  -13.8350 C.3   1190  G861190     0.2029
     17  C25      -13.4730   -5.7020  -12.5200 C.3   1190  G861190     0.1439
     18  O27      -13.9820   -4.3640  -12.6850 O.3   1190  G861190    -0.3587
     19  C29      -14.7230   -3.6380  -11.6610 C.3   1190  G861190     0.0930
     20  C31      -13.0930   -7.7840  -13.9310 C.2   1190  G861190     0.2642
     21  N33      -12.0040   -7.8730  -14.6760 N.am  1190  G861190    -0.1959
     22  O35      -13.5850   -8.7530  -13.3680 O.2   1190  G861190    -0.2714
     23  C37      -11.2810   -9.1370  -14.8360 C.3   1190  G861190     0.1771
     24  C39      -10.6870   -9.5270  -13.4860 C.2   1190  G861190     0.2615
     25  C41      -10.2300   -8.8920  -15.9260 C.3   1190  G861190     0.0574
     26  C43      -13.9820   -3.6020  -10.3200 C.3   1190  G861190     0.0296
     27  C45      -16.1350   -4.2150  -11.4830 C.3   1190  G861190     0.0296
     28  O47      -10.0600   -8.6840  -12.8510 O.2   1190  G861190    -0.2715
     29  N49      -10.9130  -10.7690  -13.0190 N.am  1190  G861190    -0.2057
     30  C51       -9.3290  -10.1080  -16.0690 C.ar  1190  G861190    -0.0200
     31  C53       -7.9400   -9.9770  -15.8950 C.ar  1190  G861190    -0.0042
     32  C55       -9.8830  -11.3810  -16.3760 C.ar  1190  G861190    -0.0042
     33  C57      -10.4180  -11.2300  -11.7110 C.3   1190  G861190     0.0970
     34  C59      -11.6600  -11.6620  -10.8990 C.3   1190  G861190     0.0383
     35  C61      -12.6740  -10.5130  -10.6110 C.3   1190  G861190     0.1100
     36  C63       -9.4220  -12.3650  -11.9670 C.3   1190  G861190     0.0333
     37  C65      -13.7040  -10.8450   -9.5490 C.1   1190  G861190     0.1250
     38  O66      -14.3110  -11.9160   -9.4660 O.2   1190  G861190    -0.2271
     39  N69      -13.8820   -9.8320   -8.8090 N.2   1190  G861190    -0.2063
     40  C71      -13.1680   -8.5920   -9.1560 C.3   1190  G861190     0.1387
     41  C73      -12.0850   -9.1880  -10.0830 C.3   1190  G861190     0.0438
     42  C82       -8.0980  -11.8250  -12.5280 C.3   1190  G861190     0.1113
     43  C84       -7.2990  -10.9490  -11.5690 C.2   1190  G861190     0.3170
     44  O86       -6.1870  -10.1400  -12.0670 O.3   1190  G861190    -0.4485
     45  O88       -7.5290  -10.9280  -10.3540 O.2   1190  G861190    -0.2501
@<TRIPOS>BOND
     1     2    10    1
     2     8    32   ar
     3     8     7   ar
     4    32    30   ar
     5     7     6   ar
     6    30    25    1
     7    30    31   ar
     8     6    31   ar
     9    25    23    1
    10    14    13    2
    11    10     1    1
    12    10     4    1
    13    10    12    1
    14    23    21    1
    15    23    24    1
    16    13    12    1
    17    13    15   am
    18    21    20   am
    19    20    16    1
    20    20    22    2
    21    15    16    1
    22    16    17    1
    23     5     3    1
    24    24    29   am
    25    24    28    2
    26    29    33    1
    27     3    44    1
    28    18    17    1
    29    18    19    1
    30    42    36    1
    31    42    43    1
    32    17    11    1
    33     9    19    1
    34    44    43    1
    35    36    33    1
    36    33    34    1
    37    19    27    1
    38    19    26    1
    39    43    45    2
    40    34    35    1
    41    35    41    1
    42    35    37    1
    43    41    40    1
    44    37    38    2
    45    37    39    2
    46    40    39    1
