@<TRIPOS>MOLECULE
3zvm_ADP_A_1.pdb
 27 29 0 0 0
SMALL
GASTEIGER

@<TRIPOS>ATOM
      1  PB       -16.5890  -13.4060   41.7710 P.3   1523  ADP1523     0.5373
      2  O1B      -16.9940  -11.9730   41.9890 O.3   1523  ADP1523    -0.1143
      3  O2B      -16.4580  -13.7390   40.3220 O.2   1523  ADP1523    -0.2221
      4  O3B      -17.3380  -14.4290   42.5850 O.3   1523  ADP1523    -0.1143
      5  PA       -13.6660  -13.2890   41.4390 P.3   1523  ADP1523     0.2231
      6  O1A      -13.3400  -14.5760   40.7200 O.3   1523  ADP1523    -0.4370
      7  O2A      -13.7550  -11.9790   40.6930 O.2   1523  ADP1523    -0.5169
      8  O3A      -15.0440  -13.4700   42.3060 O.3   1523  ADP1523    -0.2261
      9  O5'      -12.5920  -13.1180   42.6120 O.3   1523  ADP1523    -0.3111
     10  C5'      -12.6030  -11.9400   43.4380 C.3   1523  ADP1523     0.1813
     11  C4'      -11.1530  -11.5770   43.7620 C.3   1523  ADP1523     0.1821
     12  O4'      -10.5460  -12.5650   44.6020 O.3   1523  ADP1523    -0.3135
     13  C3'      -10.3400  -11.5400   42.4850 C.3   1523  ADP1523     0.2184
     14  O3'       -9.4480  -10.4360   42.5990 O.3   1523  ADP1523    -0.2174
     15  C2'       -9.5730  -12.8540   42.4860 C.3   1523  ADP1523     0.2570
     16  O2'       -8.2690  -12.7390   41.9120 O.3   1523  ADP1523    -0.2130
     17  C1'       -9.4500  -13.1940   43.9540 C.3   1523  ADP1523     0.3186
     18  N9        -9.6290  -14.6420   44.1780 N.pl3 1523  ADP1523    -0.1439
     19  C8       -10.6980  -15.3600   43.7960 C.3   1523  ADP1523     0.3377
     20  N7       -10.5640  -16.6520   44.1690 N.2   1523  ADP1523    -0.2095
     21  C5        -9.3930  -16.7730   44.7990 C.2   1523  ADP1523     0.2526
     22  C6        -8.6480  -17.8680   45.4460 C.2   1523  ADP1523     0.4393
     23  N6        -9.1530  -19.1310   45.4880 N.pl3 1523  ADP1523     0.2180
     24  N1        -7.4490  -17.5530   45.9910 N.2   1523  ADP1523     0.0021
     25  C2        -6.9400  -16.3050   45.9670 C.3   1523  ADP1523     0.5254
     26  N3        -7.5650  -15.2690   45.3910 N.2   1523  ADP1523    -0.0055
     27  C4        -8.7690  -15.4410   44.7980 C.2   1523  ADP1523     0.3518
@<TRIPOS>BOND
     1     3     1    2
     2     7     5    2
     3     6     5    1
     4     5     8    1
     5     5     9    1
     6     1     2    1
     7     1     8    1
     8     1     4    1
     9    16    15    1
    10    13    15    1
    11    13    14    1
    12    13    11    1
    13    15    17    1
    14     9    10    1
    15    10    11    1
    16    11    12    1
    17    19    20    1
    18    19    18    1
    19    17    18    1
    20    17    12    1
    21    20    21    2
    22    18    27    1
    23    27    21    1
    24    27    26    2
    25    21    22    1
    26    26    25    1
    27    22    23    1
    28    22    24    2
    29    25    24    1
