@<TRIPOS>MOLECULE
3zvn_ADP_A_1.pdb
 27 29 0 0 0
SMALL
GASTEIGER

@<TRIPOS>ATOM
      1  PB        -2.7400   -4.8820   -6.7940 P.3   1524  ADP1524     0.5373
      2  O1B       -4.2020   -5.1030   -7.0880 O.2   1524  ADP1524    -0.2221
      3  O2B       -2.2770   -3.4480   -6.9540 O.3   1524  ADP1524    -0.1143
      4  O3B       -2.2740   -5.5310   -5.5100 O.3   1524  ADP1524    -0.1143
      5  PA        -2.5410   -6.1800   -9.3700 P.3   1524  ADP1524     0.2231
      6  O1A       -3.3180   -7.4680   -9.2080 O.3   1524  ADP1524    -0.4370
      7  O2A       -3.1070   -4.9640  -10.0380 O.2   1524  ADP1524    -0.5169
      8  O3A       -1.9240   -5.6840   -7.9440 O.3   1524  ADP1524    -0.2261
      9  O5'       -1.2490   -6.6110  -10.2350 O.3   1524  ADP1524    -0.3111
     10  C5'       -0.1120   -5.7760  -10.2410 C.3   1524  ADP1524     0.1813
     11  C4'        0.7470   -6.1130  -11.4510 C.3   1524  ADP1524     0.1821
     12  O4'        1.4690   -7.3260  -11.2010 O.3   1524  ADP1524    -0.3135
     13  C3'       -0.0430   -6.3610  -12.7220 C.3   1524  ADP1524     0.2184
     14  O3'        0.8390   -5.9930  -13.7900 O.3   1524  ADP1524    -0.2174
     15  C2'       -0.2270   -7.8620  -12.7490 C.3   1524  ADP1524     0.2570
     16  O2'       -0.3520   -8.3750  -14.0790 O.3   1524  ADP1524    -0.2130
     17  C1'        1.0770   -8.3360  -12.1230 C.3   1524  ADP1524     0.3186
     18  N9         0.8950   -9.5440  -11.3010 N.pl3 1524  ADP1524    -0.1439
     19  C8         0.0080   -9.6710  -10.2980 C.3   1524  ADP1524     0.3377
     20  N7         0.1030  -10.9010   -9.7370 N.2   1524  ADP1524    -0.2095
     21  C5         1.0740  -11.5740  -10.3800 C.2   1524  ADP1524     0.2526
     22  C6         1.6810  -12.9190  -10.2780 C.2   1524  ADP1524     0.4393
     23  N6         1.2500  -13.8080   -9.3490 N.pl3 1524  ADP1524     0.2180
     24  N1         2.6680  -13.2210  -11.1480 N.2   1524  ADP1524     0.0021
     25  C2         3.0990  -12.3490  -12.0690 C.3   1524  ADP1524     0.5254
     26  N3         2.5900  -11.1080  -12.2170 N.2   1524  ADP1524    -0.0055
     27  C4         1.5950  -10.6750  -11.4140 C.2   1524  ADP1524     0.3518
@<TRIPOS>BOND
     1    16    15    1
     2    14    13    1
     3    15    13    1
     4    15    17    1
     5    13    11    1
     6    26    25    1
     7    26    27    2
     8    17    18    1
     9    17    12    1
    10    25    24    1
    11    11    12    1
    12    11    10    1
    13    27    18    1
    14    27    21    1
    15    18    19    1
    16    24    22    2
    17    21    22    1
    18    21    20    2
    19    19    20    1
    20    22    23    1
    21    10     9    1
    22     9     5    1
    23     7     5    2
    24     5     6    1
    25     5     8    1
    26     8     1    1
    27     2     1    2
    28     3     1    1
    29     1     4    1
