@<TRIPOS>MOLECULE
3zvt_B07_A_1.pdb
 15 15 0 0 0
SMALL
GASTEIGER

@<TRIPOS>ATOM
      1  B          0.2660   -4.6220   39.4510 B     500  B07500      0.0000
      2  C3        -1.1280   -3.8310   39.6060 C.3   500  B07500      0.0000
      3  N4        -1.1220   -2.5940   38.8230 N.am  500  B07500      0.0000
      4  O6        -3.0710   -2.9220   37.8310 O.2   500  B07500      0.0000
      5  C5        -2.0890   -2.2090   37.9960 C.2   500  B07500      0.0000
      6  C7        -1.9930   -0.9170   37.2210 C.ar  500  B07500      0.0000
      7  C14       -1.4380   -0.9880   35.9610 C.ar  500  B07500      0.0000
      8  O15       -0.9970   -2.2050   35.5220 O.3   500  B07500      0.0000
      9  C15       -0.3530   -2.3340   34.2530 C.3   500  B07500      0.0000
     10  C13       -1.3330    0.1480   35.1660 C.ar  500  B07500      0.0000
     11  C12       -1.7880    1.3710   35.6400 C.ar  500  B07500      0.0000
     12  C11       -2.3490    1.4500   36.9090 C.ar  500  B07500      0.0000
     13  C8        -2.4620    0.3080   37.7000 C.ar  500  B07500      0.0000
     14  O9        -3.0110    0.4270   38.9530 O.3   500  B07500      0.0000
     15  C10       -4.3580    0.8570   39.1450 C.3   500  B07500      0.0000
@<TRIPOS>BOND
     1     9     8    1
     2    10    11   ar
     3    10     7   ar
     4     8     7    1
     5    11    12   ar
     6     7     6   ar
     7    12    13   ar
     8     6    13   ar
     9     6     5    1
    10    13    14    1
    11     4     5    2
    12     5     3   am
    13     3     2    1
    14    14    15    1
    15     1     2    1
