@<TRIPOS>MOLECULE
3zvv_XAZ_A_1.pdb
 12 13 0 0 0
SMALL
GASTEIGER

@<TRIPOS>ATOM
      1  C1        42.4250   13.0130   30.7000 C.3   1500  XAZ1500     0.0665
      2  C2        43.9350   13.0850   30.2970 C.2   1500  XAZ1500     0.1118
      3  C3        44.3810   12.2820   29.2160 C.2   1500  XAZ1500     0.0420
      4  C4        45.6930   12.3120   28.8160 C.2   1500  XAZ1500     0.0791
      5  C5        46.0450   11.4640   27.7510 C.3   1500  XAZ1500     0.0517
      6  N6        46.6530   13.0730   29.3720 N.pl3 1500  XAZ1500    -0.0762
      7  N7        48.0400   13.2850   29.1460 N.2   1500  XAZ1500     0.0585
      8  C8        48.5210   14.1270   29.9870 C.2   1500  XAZ1500     0.4224
      9  N9        49.8950   14.4710   29.9450 N.pl3 1500  XAZ1500     0.2137
     10  C10       47.4700   14.5590   30.8690 C.3   1500  XAZ1500     0.2065
     11  C11       46.3010   13.9180   30.4850 C.2   1500  XAZ1500     0.2153
     12  N12       44.9250   13.8830   30.9040 N.2   1500  XAZ1500    -0.3914
@<TRIPOS>BOND
     1     5     4    1
     2     4     3    2
     3     4     6    1
     4     7     6    1
     5     7     8    2
     6     3     2    1
     7     6    11    1
     8     9     8    1
     9     8    10    1
    10     2     1    1
    11     2    12    2
    12    11    10    1
    13    11    12    2
