@<TRIPOS>MOLECULE
3zvw_FP5_B_1.pdb
 12 12 0 0 0
SMALL
GASTEIGER

@<TRIPOS>ATOM
      1  O6        64.3190   24.4070   31.4860 O.2   500  FP5500      0.0000
      2  C5        64.2050   23.8150   32.5260 C.2   500  FP5500      0.0000
      3  N4        63.9210   24.4480   33.6470 N.am  500  FP5500      0.0000
      4  C3        63.6870   25.8690   33.8370 C.3   500  FP5500      0.0000
      5  B         62.3920   25.9640   34.7960 B     500  FP5500      0.0000
      6  C7        64.3420   22.2970   32.5930 C.3   500  FP5500      0.0000
      7  CG        62.9280   21.7330   32.6760 C.ar  500  FP5500      0.0000
      8  CD2       62.2100   21.4360   31.5080 C.ar  500  FP5500      0.0000
      9  CE2       60.9050   20.9230   31.5790 C.ar  500  FP5500      0.0000
     10  CZ        60.3080   20.7290   32.8190 C.ar  500  FP5500      0.0000
     11  CE1       61.0100   21.0240   33.9930 C.ar  500  FP5500      0.0000
     12  CD1       62.3190   21.5260   33.9200 C.ar  500  FP5500      0.0000
@<TRIPOS>BOND
     1     1     2    2
     2     8     9   ar
     3     8     7   ar
     4     9    10   ar
     5     2     6    1
     6     2     3   am
     7     6     7    1
     8     7    12   ar
     9    10    11   ar
    10     3     4    1
    11     4     5    1
    12    12    11   ar
