@<TRIPOS>MOLECULE
3zvx_MAN_A_1.pdb
 11 11 0 0 0
SMALL
GASTEIGER

@<TRIPOS>ATOM
      1  C1       -14.4810   10.6090   17.9020 C.3   302  MAN302      0.1777
      2  C2       -14.8340    9.4050   17.0170 C.3   302  MAN302      0.2141
      3  C3       -13.6170    8.4690   16.9750 C.3   302  MAN302      0.2173
      4  C4       -12.3300    9.2010   16.6150 C.3   302  MAN302      0.2142
      5  C5       -12.1090   10.4420   17.4800 C.3   302  MAN302      0.1810
      6  C6       -10.9200   11.2570   16.9720 C.3   302  MAN302      0.2141
      7  O2       -15.1970    9.8630   15.7280 O.3   302  MAN302     -0.2176
      8  O3       -13.7840    7.4310   16.0460 O.3   302  MAN302     -0.2175
      9  O4       -11.2440    8.2970   16.6560 O.3   302  MAN302     -0.2176
     10  O5       -13.2860   11.2440   17.4730 O.3   302  MAN302     -0.3481
     11  O6       -11.0810   11.6820   15.6300 O.3   302  MAN302     -0.2176
@<TRIPOS>BOND
     1    11     6    1
     2     7     2    1
     3     8     3    1
     4     4     9    1
     5     4     3    1
     6     4     5    1
     7     6     5    1
     8     3     2    1
     9     2     1    1
    10    10     5    1
    11    10     1    1
