@<TRIPOS>MOLECULE
3zvy_III_C_1.pdb
 37 36 0 0 0
SMALL
GASTEIGER

@<TRIPOS>ATOM
      1  N         45.7310   12.7330  138.4390 N.3     1  ALA1       -0.1231
      2  CA        46.1910   13.4550  139.6230 C.3     1  ALA1        0.1694
      3  C         46.3180   12.5000  140.8080 C.2     1  ALA1        0.2592
      4  O         45.8280   11.3660  140.7460 O.2     1  ALA1       -0.2718
      5  CB        45.2320   14.5930  139.9550 C.3     1  ALA1        0.0304
      6  N         46.9710   12.9560  141.8790 N.am    2  ARG2       -0.1966
      7  CA        47.1040   12.1510  143.0920 C.3     2  ARG2        0.1729
      8  C         45.7570   12.0270  143.7940 C.2     2  ARG2        0.2617
      9  O         44.9630   12.9730  143.8030 O.2     2  ARG2       -0.2715
     10  CB        48.1280   12.7510  144.0670 C.3     2  ARG2        0.0348
     11  CG        49.5780   12.7090  143.6030 C.3     2  ARG2        0.0492
     12  CD        50.5390   12.6940  144.7920 C.3     2  ARG2        0.2205
     13  NE        50.0880   13.5590  145.8820 N.pl3   2  ARG2       -0.0865
     14  CZ        50.1980   14.8840  145.8810 C.cat   2  ARG2        0.5346
     15  NH1       50.7380   15.5030  144.8410 N.pl3   2  ARG2        0.1354
     16  NH2       49.7630   15.5950  146.9140 N.pl3   2  ARG2        0.1354
     17  N         45.5110   10.8570  144.3810 N.am    3  THR3       -0.1937
     18  CA        44.3010   10.6140  145.1670 C.3     3  THR3        0.2028
     19  C         44.7050   10.0450  146.5310 C.2     3  THR3        0.2642
     20  O         45.7980    9.4940  146.6750 O.2     3  THR3       -0.2714
     21  CB        43.3410    9.6450  144.4500 C.3     3  THR3        0.1808
     22  OG1       44.0090    8.4000  144.2050 O.3     3  THR3       -0.2208
     23  CG2       42.8630   10.2370  143.1080 C.3     3  THR3        0.0379
     24  N         43.8920   10.2180  147.5500 N.am    4  LYS4       -0.1963
     25  CA        44.2200    9.7130  148.8640 C.3     4  LYS4        0.1728
     26  C         44.4200    8.2180  148.7630 C.2     4  LYS4        0.2616
     27  O         45.1970    7.6280  149.4630 O.2     4  LYS4       -0.2715
     28  CB        43.0780   10.0030  149.8040 C.3     4  LYS4        0.0334
     29  N         43.6870    7.6610  147.8210 N.am    5  GLN5       -0.1977
     30  CA        43.4860    6.2490  147.5760 C.3     5  GLN5        0.1601
     31  C         44.1700    5.3620  148.5880 C.2     5  GLN5        0.2287
     32  O         43.5240    4.8120  149.4770 O.2     5  GLN5       -0.2864
     33  CB        43.8390    5.8990  146.1310 C.3     5  GLN5        0.0394
     34  CG        45.1390    5.0940  145.9730 C.3     5  GLN5        0.0908
     35  CD        45.2240    4.3340  144.6730 C.2     5  GLN5        0.2608
     36  OE1       44.9730    3.1220  144.6250 O.2     5  GLN5       -0.2717
     37  NE2       45.5720    5.0420  143.6000 N.am    5  GLN5       -0.0878
@<TRIPOS>BOND
     1     1     2    1
     2     2     5    1
     3     2     3    1
     4     4     3    2
     5     3     6   am
     6     6     7    1
     7     7     8    1
     8     7    10    1
     9    23    21    1
    10    37    35   am
    11    11    10    1
    12    11    12    1
    13     8     9    2
    14     8    17   am
    15    22    21    1
    16    17    18    1
    17    21    18    1
    18    36    35    2
    19    35    34    1
    20    12    13    1
    21    15    14    1
    22    18    19    1
    23    14    13    2
    24    14    16    1
    25    34    33    1
    26    33    30    1
    27    19    20    2
    28    19    24   am
    29    24    25    1
    30    30    29    1
    31    30    31    1
    32    29    26   am
    33    31    32    2
    34    26    25    1
    35    26    27    2
    36    25    28    1
