@<TRIPOS>MOLECULE
3zw0_FUC_C_1.pdb
 11 11 0 0 0
SMALL
GASTEIGER

@<TRIPOS>ATOM
      1  C1        -3.7070   -1.2680    4.9170 C.3    90  FUC90       0.3023
      2  C2        -3.5960   -2.4390    3.9570 C.3    90  FUC90       0.2434
      3  C3        -4.9760   -3.0240    3.6590 C.3    90  FUC90       0.2198
      4  C4        -5.8870   -1.9130    3.1210 C.3    90  FUC90       0.2118
      5  C5        -5.9700   -0.8050    4.1730 C.3    90  FUC90       0.1509
      6  C6        -6.8010    0.3770    3.7150 C.3    90  FUC90       0.0350
      7  O1        -4.1660   -1.7080    6.2000 O.3    90  FUC90      -0.1869
      8  O2        -2.7550   -3.4310    4.5770 O.3    90  FUC90      -0.2148
      9  O3        -4.8300   -4.1530    2.7690 O.3    90  FUC90      -0.2174
     10  O4        -5.2820   -1.3620    1.9530 O.3    90  FUC90      -0.2177
     11  O5        -4.6550   -0.2920    4.4260 O.3    90  FUC90      -0.3264
@<TRIPOS>BOND
     1    10     4    1
     2     9     3    1
     3     4     3    1
     4     4     5    1
     5     3     2    1
     6     6     5    1
     7     2     8    1
     8     2     1    1
     9     5    11    1
    10    11     1    1
    11     1     7    1
