@<TRIPOS>MOLECULE
3zw1_FUC_A_1.pdb
 10 10 0 0 0
SMALL
GASTEIGER

@<TRIPOS>ATOM
      1  C1        12.9830    6.3020   22.4370 C.3   102  FUC102      0.1776
      2  C2        14.1450    5.4490   21.9290 C.3   102  FUC102      0.2141
      3  C3        15.1010    5.1290   23.0810 C.3   102  FUC102      0.2172
      4  C4        14.3440    4.5470   24.2560 C.3   102  FUC102      0.2116
      5  C5        13.1690    5.4320   24.6530 C.3   102  FUC102      0.1483
      6  C6        12.3180    4.8380   25.7640 C.3   102  FUC102      0.0349
      7  O2        14.8470    6.1170   20.8920 O.3   102  FUC102     -0.2176
      8  O3        16.1540    4.3340   22.5950 O.3   102  FUC102     -0.2175
      9  O4        13.7780    3.2960   23.8670 O.3   102  FUC102     -0.2177
     10  O5        12.3340    5.6810   23.5240 O.3   102  FUC102     -0.3508
@<TRIPOS>BOND
     1     7     2    1
     2     2     1    1
     3     2     3    1
     4     1    10    1
     5     8     3    1
     6     3     4    1
     7    10     5    1
     8     9     4    1
     9     4     5    1
    10     5     6    1
