@<TRIPOS>MOLECULE
3zw2_GLA_C_1.pdb
 12 12 0 0 0
SMALL
GASTEIGER

@<TRIPOS>ATOM
      1  C1         2.5610   23.4520   45.0750 C.2   100  GLA100      0.3505
      2  C2         1.3140   23.0760   44.2910 C.3   100  GLA100      0.2823
      3  C3         1.1790   24.2180   43.2810 C.3   100  GLA100      0.2270
      4  C4         1.3520   25.6300   43.9260 C.3   100  GLA100      0.2276
      5  C5         2.5640   25.7720   44.8710 C.3   100  GLA100      0.2344
      6  C6         2.5380   27.0830   45.6580 C.3   100  GLA100      0.2281
      7  O1         3.7660   23.0480   44.4080 O.2   100  GLA100     -0.2472
      8  O2         1.4150   21.8160   43.6180 O.3   100  GLA100     -0.2082
      9  O3        -0.1210   24.0590   42.6850 O.3   100  GLA100     -0.2169
     10  O4         0.1900   25.9600   44.6950 O.3   100  GLA100     -0.2163
     11  O5         2.6300   24.6760   45.8130 O.3   100  GLA100     -0.4450
     12  O6         3.7180   27.1120   46.5140 O.3   100  GLA100     -0.2163
@<TRIPOS>BOND
     1     9     3    1
     2     3     4    1
     3     3     2    1
     4     8     2    1
     5     4    10    1
     6     4     5    1
     7     2     1    1
     8     7     1    2
     9     5     6    1
    10     5    11    1
    11     1    11    1
    12     6    12    1
