@<TRIPOS>MOLECULE
3zw2_FUC_A_1.pdb
 10 10 0 0 0
SMALL
GASTEIGER

@<TRIPOS>ATOM
      1  C1       -13.2210   26.1020   69.5100 C.3   103  FUC103      0.1776
      2  C2       -14.5880   26.7250   69.1930 C.3   103  FUC103      0.2141
      3  C3       -14.5270   28.2520   69.3570 C.3   103  FUC103      0.2172
      4  C4       -13.3850   28.8140   68.5120 C.3   103  FUC103      0.2116
      5  C5       -12.1140   28.1100   68.9400 C.3   103  FUC103      0.1483
      6  C6       -10.9010   28.6090   68.1470 C.3   103  FUC103      0.0349
      7  O2       -15.5530   26.0960   70.0430 O.3   103  FUC103     -0.2176
      8  O3       -15.7830   28.8400   69.0330 O.3   103  FUC103     -0.2175
      9  O4       -13.5360   28.5760   67.1300 O.3   103  FUC103     -0.2177
     10  O5       -12.2420   26.7150   68.7440 O.3   103  FUC103     -0.3508
@<TRIPOS>BOND
     1     9     4    1
     2     6     5    1
     3     4     5    1
     4     4     3    1
     5    10     5    1
     6    10     1    1
     7     8     3    1
     8     2     3    1
     9     2     1    1
    10     2     7    1
