@<TRIPOS>MOLECULE
3zw3_ZW3_A_1.pdb
 21 23 0 0 0
SMALL
GASTEIGER

@<TRIPOS>ATOM
      1  C1        51.7910   15.7450   30.3700 C.3   2191  ZW32191     0.0969
      2  C2        50.3140   15.7200   30.6570 C.2   2191  ZW32191     0.2480
      3  O3        49.8290   16.5620   31.3550 O.2   2191  ZW32191    -0.2729
      4  N4        49.6070   14.7580   30.0380 N.am  2191  ZW32191    -0.1515
      5  C5        48.2950   14.4400   30.1060 C.2   2191  ZW32191     0.2045
      6  C6        47.3380   14.9630   30.8760 C.3   2191  ZW32191     0.1746
      7  N7        46.1770   14.2790   30.6530 N.pl3 2191  ZW32191    -0.2532
      8  C8        44.8960   14.3720   31.1780 C.2   2191  ZW32191     0.0677
      9  C9        43.9030   13.4900   30.7490 C.2   2191  ZW32191     0.0163
     10  C10       42.4910   13.4430   31.1970 C.2   2191  ZW32191     0.0213
     11  C11       41.9730   14.0860   32.3410 C.2   2191  ZW32191     0.1365
     12  S12       42.7010   15.1270   33.6360 S.3   2191  ZW32191     0.0317
     13  C13       41.1980   15.3490   34.4750 C.1   2191  ZW32191     0.2492
     14  O14       40.9950   16.0230   35.4790 O.2   2191  ZW32191    -0.2014
     15  N15       40.3200   14.6540   33.7870 N.2   2191  ZW32191    -0.2516
     16  C16       40.5900   14.0270   32.7490 C.1   2191  ZW32191     0.2223
     17  O17       39.7490   13.4260   32.1900 O.2   2191  ZW32191    -0.2080
     18  C18       44.2390   12.5350   29.7930 C.2   2191  ZW32191     0.0053
     19  C19       45.4840   12.4910   29.2900 C.2   2191  ZW32191     0.0481
     20  C20       46.4950   13.3500   29.7080 C.2   2191  ZW32191     0.1888
     21  N21       47.7950   13.4640   29.3770 N.2   2191  ZW32191    -0.3726
@<TRIPOS>BOND
     1    19    20    1
     2    19    18    2
     3    21    20    2
     4    21     5    2
     5    20     7    1
     6    18     9    1
     7     4     5    1
     8     4     2   am
     9     5     6    1
    10     1     2    1
    11     7     6    1
    12     7     8    1
    13     2     3    2
    14     9     8    2
    15     9    10    1
    16    10    11    2
    17    17    16    2
    18    11    16    1
    19    11    12    1
    20    16    15    2
    21    12    13    1
    22    15    13    2
    23    13    14    2
