@<TRIPOS>MOLECULE
3zw7_2M8_B_1.pdb
 18 18 0 0 0
SMALL
GASTEIGER

@<TRIPOS>ATOM
      1  C1        19.2590   54.7700   28.9820 C.3   262  2M8262      0.2700
      2  O3A       18.4180   54.5940   30.1220 O.3   262  2M8262     -0.3169
      3  C22       17.3060   55.4930   30.1940 C.3   262  2M8262      0.2529
      4  C23       16.7060   55.3970   31.5940 C.3   262  2M8262      0.2232
      5  O13       17.7860   55.4590   32.5410 O.3   262  2M8262     -0.2171
      6  C21       16.2590   55.1710   29.1630 C.2   262  2M8262      0.3941
      7  O1A       16.2330   54.0270   28.6680 O.co2 262  2M8262     -0.2429
      8  O1B       15.2970   55.9590   29.0570 O.co2 262  2M8262     -0.2429
      9  C2        20.5490   53.9900   29.2080 C.3   262  2M8262      0.2406
     10  O2        21.3040   54.0150   27.9890 O.3   262  2M8262     -0.2149
     11  C3        21.3600   54.6010   30.3440 C.3   262  2M8262      0.2198
     12  O3        22.6120   53.9370   30.4230 O.3   262  2M8262     -0.2174
     13  C4        21.6180   56.0770   30.0530 C.3   262  2M8262      0.2144
     14  O4        22.2250   56.7420   31.1720 O.3   262  2M8262     -0.2176
     15  C5        20.3300   56.8180   29.7440 C.3   262  2M8262      0.1835
     16  C6        20.6710   58.2180   29.2550 C.3   262  2M8262      0.2142
     17  O6        19.4550   58.9410   29.0650 O.3   262  2M8262     -0.2176
     18  O5        19.5450   56.1550   28.7520 O.3   262  2M8262     -0.3256
@<TRIPOS>BOND
     1    10     9    1
     2     7     6   ar
     3    18     1    1
     4    18    15    1
     5     1     9    1
     6     1     2    1
     7     8     6   ar
     8    17    16    1
     9     6     3    1
    10     9    11    1
    11    16    15    1
    12    15    13    1
    13    13    11    1
    14    13    14    1
    15     2     3    1
    16     3     4    1
    17    11    12    1
    18     4     5    1
