@<TRIPOS>MOLECULE
3zwd_2M8_A_1.pdb
 18 18 0 0 0
SMALL
GASTEIGER

@<TRIPOS>ATOM
      1  C1        28.3510   55.3640    0.1310 C.3   262  2M8262      0.2700
      2  O3A       28.2370   55.4560   -1.2860 O.3   262  2M8262     -0.3169
      3  C22       27.3680   54.4670   -1.8420 C.3   262  2M8262      0.2529
      4  C23       27.6000   54.4020   -3.3470 C.3   262  2M8262      0.2232
      5  O13       26.9970   55.5480   -3.9570 O.3   262  2M8262     -0.2171
      6  C21       25.9310   54.7950   -1.5420 C.2   262  2M8262      0.3941
      7  O1A       25.6180   55.9720   -1.2640 O.co2 262  2M8262     -0.2429
      8  O1B       25.0710   53.9230   -1.7750 O.co2 262  2M8262     -0.2429
      9  C2        29.5570   56.1660    0.6010 C.3   262  2M8262      0.2406
     10  O2        29.5100   56.2010    2.0350 O.3   262  2M8262     -0.2149
     11  C3        30.8530   55.5160    0.1220 C.3   262  2M8262      0.2198
     12  O3        31.9560   56.1860    0.7360 O.3   262  2M8262     -0.2174
     13  C4        30.8800   54.0470    0.5460 C.3   262  2M8262      0.2144
     14  O4        32.0130   53.3480   -0.0020 O.3   262  2M8262     -0.2176
     15  C5        29.6300   53.3280    0.0690 C.3   262  2M8262      0.1835
     16  C6        29.6090   51.8910    0.5960 C.3   262  2M8262      0.2142
     17  O6        28.5750   51.1470   -0.0610 O.3   262  2M8262     -0.2176
     18  O5        28.4610   53.9960    0.5350 O.3   262  2M8262     -0.3256
@<TRIPOS>BOND
     1     5     4    1
     2     4     3    1
     3     3     6    1
     4     3     2    1
     5     8     6   ar
     6     6     7   ar
     7     2     1    1
     8    17    16    1
     9    14    13    1
    10    15    18    1
    11    15    13    1
    12    15    16    1
    13    11    13    1
    14    11     9    1
    15    11    12    1
    16     1    18    1
    17     1     9    1
    18     9    10    1
