@<TRIPOS>MOLECULE
3zwe_FUC_A_1.pdb
 10 10 0 0 0
SMALL
GASTEIGER

@<TRIPOS>ATOM
      1  C1       -24.9810  -14.9490    4.4900 C.3   103  FUC103      0.1776
      2  C2       -25.7210  -14.4890    5.7310 C.3   103  FUC103      0.2141
      3  C3       -25.0740  -15.1300    6.9490 C.3   103  FUC103      0.2172
      4  C4       -23.5350  -14.9490    6.9610 C.3   103  FUC103      0.2116
      5  C5       -23.0110  -15.5590    5.6900 C.3   103  FUC103      0.1483
      6  C6       -21.4990  -15.5600    5.5660 C.3   103  FUC103      0.0349
      7  O2       -27.1070  -14.8340    5.5530 O.3   103  FUC103     -0.2176
      8  O3       -25.6150  -14.6440    8.1440 O.3   103  FUC103     -0.2175
      9  O4       -23.2220  -13.5550    6.9110 O.3   103  FUC103     -0.2177
     10  O5       -23.5620  -14.7910    4.6390 O.3   103  FUC103     -0.3508
@<TRIPOS>BOND
     1     1    10    1
     2     1     2    1
     3    10     5    1
     4     7     2    1
     5     6     5    1
     6     5     4    1
     7     2     3    1
     8     9     4    1
     9     3     4    1
    10     3     8    1
