@<TRIPOS>MOLECULE
3zwe_GLA_B_1.pdb
 11 11 0 0 0
SMALL
GASTEIGER

@<TRIPOS>ATOM
      1  C1         2.2730   -9.3360   26.5210 C.3   100  GLA100      0.1777
      2  C2         3.3260   -8.4320   27.2000 C.3   100  GLA100      0.2141
      3  C3         3.8080   -8.9910   28.5480 C.3   100  GLA100      0.2173
      4  C4         2.6300   -9.3150   29.4530 C.3   100  GLA100      0.2142
      5  C5         1.5830  -10.1150   28.6790 C.3   100  GLA100      0.1810
      6  C6         0.3310  -10.4280   29.4970 C.3   100  GLA100      0.2141
      7  O2         4.4750   -8.0700   26.4140 O.3   100  GLA100     -0.2176
      8  O3         4.6260   -7.9670   29.1440 O.3   100  GLA100     -0.2175
      9  O4         2.0770   -8.0660   29.8580 O.3   100  GLA100     -0.2176
     10  O5         1.2040   -9.4090   27.4590 O.3   100  GLA100     -0.3481
     11  O6        -0.7660  -10.7410   28.6020 O.3   100  GLA100     -0.2176
@<TRIPOS>BOND
     1     7     2    1
     2     1     2    1
     3     1    10    1
     4     2     3    1
     5    10     5    1
     6     3     8    1
     7     3     4    1
     8    11     6    1
     9     5     4    1
    10     5     6    1
    11     4     9    1
