@<TRIPOS>MOLECULE
3zwe_BGC_B_1.pdb
 12 12 0 0 0
SMALL
GASTEIGER

@<TRIPOS>ATOM
      1  C2         0.7640  -15.1030   19.2670 C.3   101  BGC101      0.2434
      2  C3         0.6370  -14.5790   20.6860 C.3   101  BGC101      0.2199
      3  C4         1.3530  -13.2500   20.8520 C.3   101  BGC101      0.2144
      4  C5         0.9340  -12.2990   19.7290 C.3   101  BGC101      0.1836
      5  C6         1.8440  -11.0870   19.6810 C.3   101  BGC101      0.2142
      6  C1         0.1860  -14.0400   18.3500 C.3   101  BGC101      0.3024
      7  O1         0.0980  -14.5180   17.0120 O.3   101  BGC101     -0.1869
      8  O2         0.0610  -16.3130   19.1660 O.3   101  BGC101     -0.2148
      9  O3         1.2100  -15.5260   21.5410 O.3   101  BGC101     -0.2174
     10  O4         1.0170  -12.7180   22.1090 O.3   101  BGC101     -0.2176
     11  O5         1.0750  -12.9490   18.4840 O.3   101  BGC101     -0.3236
     12  O6         3.1540  -11.5730   19.5740 O.3   101  BGC101     -0.2176
@<TRIPOS>BOND
     1     7     6    1
     2     6    11    1
     3     6     1    1
     4    11     4    1
     5     8     1    1
     6     1     2    1
     7    12     5    1
     8     5     4    1
     9     4     3    1
    10     2     3    1
    11     2     9    1
    12     3    10    1
