@<TRIPOS>MOLECULE
3zwi_HEC_A_1.pdb
 43 50 0 0 0
SMALL
GASTEIGER

@<TRIPOS>ATOM
      1 FE         10.5720   32.4170   38.3430 Fe    128  HEC128      0.0000
      2  CHA        9.0660   35.4590   38.3990 C.2   128  HEC128      0.0000
      3  CHB       10.8970   32.4820   41.6740 C.2   128  HEC128      0.0000
      4  CHC       11.8350   29.2600   38.2810 C.2   128  HEC128      0.0000
      5  CHD       10.2760   32.3610   34.9810 C.2   128  HEC128      0.0000
      6  NA        10.0760   33.7370   39.8100 N.2   128  HEC128      0.0000
      7  C1A        9.4460   34.9770   39.6330 C.2   128  HEC128      0.0000
      8  C3A        9.8440   34.7170   41.8240 C.2   128  HEC128      0.0000
      9  C4A       10.3050   33.5940   41.1190 C.2   128  HEC128      0.0000
     10  CMA        9.8850   34.8980   43.3200 C.3   128  HEC128      0.0000
     11  NB        11.2370   31.0940   39.7610 N.ar  128  HEC128      0.0000
     12  C1B       11.3370   31.3310   41.0940 C.ar  128  HEC128      0.0000
     13  C2B       11.9390   30.2190   41.7500 C.ar  128  HEC128      0.0000
     14  C3B       12.1770   29.3000   40.7730 C.ar  128  HEC128      0.0000
     15  C4B       11.7450   29.8510   39.5500 C.ar  128  HEC128      0.0000
     16  CMB       12.2190   30.1080   43.2330 C.3   128  HEC128      0.0000
     17  CAB       12.8420   27.9360   40.8660 C.3   128  HEC128      0.0000
     18  CBB       12.4120   27.0750   42.0580 C.3   128  HEC128      0.0000
     19  NC        10.9780   31.0390   36.8470 N.2   128  HEC128      0.0000
     20  C1C       11.4910   29.8030   37.0440 C.2   128  HEC128      0.0000
     21  C2C       11.6550   29.1700   35.7740 C.2   128  HEC128      0.0000
     22  C3C       11.2220   30.0450   34.8200 C.2   128  HEC128      0.0000
     23  C4C       10.8030   31.1990   35.5110 C.2   128  HEC128      0.0000
     24  CMC       12.2660   27.7860   35.6650 C.3   128  HEC128      0.0000
     25  CAC       11.1090   29.9270   33.3150 C.3   128  HEC128      0.0000
     26  CBC       11.0670   28.5310   32.7660 C.3   128  HEC128      0.0000
     27  ND         9.7900   33.6970   36.9110 N.ar  128  HEC128      0.0000
     28  C1D        9.7530   33.4830   35.5610 C.ar  128  HEC128      0.0000
     29  C2D        9.1220   34.5580   34.9470 C.ar  128  HEC128      0.0000
     30  C3D        8.7280   35.4400   35.9090 C.ar  128  HEC128      0.0000
     31  C4D        9.1740   34.9080   37.1550 C.ar  128  HEC128      0.0000
     32  CMD        8.9320   34.7210   33.4400 C.3   128  HEC128      0.0000
     33  CAD        7.8790   36.6960   35.7810 C.3   128  HEC128      0.0000
     34  CBD        6.3690   36.3830   35.8770 C.3   128  HEC128      0.0000
     35  CGD        5.4930   37.6240   35.7290 C.2   128  HEC128      0.0000
     36  O1D        5.7100   38.6190   36.4700 O.co2 128  HEC128      0.0000
     37  O2D        4.5780   37.5860   34.8860 O.co2 128  HEC128      0.0000
     38  C2A        9.2580   35.5560   40.9040 C.2   128  HEC128      0.0000
     39  CAA        8.4570   36.8410   41.2120 C.3   128  HEC128      0.0000
     40  CBA        6.9670   36.6010   41.3530 C.3   128  HEC128      0.0000
     41  CGA        6.0390   37.7560   41.7170 C.2   128  HEC128      0.0000
     42  O1A        5.8700   38.7430   40.9340 O.co2 128  HEC128      0.0000
     43  O2A        5.4580   37.6350   42.8420 O.co2 128  HEC128      0.0000
@<TRIPOS>BOND
     1    26    25    1
     2    25    22    1
     3    32    29    1
     4    22    23    1
     5    22    21    2
     6    37    35   ar
     7    29    28   ar
     8    29    30   ar
     9     5    23    1
    10     5    28    2
    11    23    19    2
    12    28    27   ar
    13    24    21    1
    14    35    34    1
    15    35    36   ar
    16    21    20    1
    17    33    34    1
    18    33    30    1
    19    30    31   ar
    20    19    20    1
    21    19     1    1
    22    27    31   ar
    23    27     1    1
    24    20     4    2
    25    31     2    2
    26     4    15    1
    27     1    11    1
    28     1     6    1
    29     2     7    1
    30    15    11   ar
    31    15    14   ar
    32     7     6    2
    33     7    38    1
    34    11    12   ar
    35     6     9    1
    36    14    17    1
    37    14    13   ar
    38    17    18    1
    39    38    39    1
    40    38     8    2
    41    42    41   ar
    42    12     3    1
    43    12    13   ar
    44     9     3    2
    45     9     8    1
    46    39    40    1
    47    40    41    1
    48    41    43   ar
    49    13    16    1
    50     8    10    1
