@<TRIPOS>MOLECULE
3zwi_ASC_A_1.pdb
 12 12 0 0 0
SMALL
GASTEIGER

@<TRIPOS>ATOM
      1  C1        14.7100   31.4730   45.0600 C.2   156  ASC156      0.3843
      2  C2        14.1880   32.5090   44.3020 C.2   156  ASC156      0.3085
      3  C3        14.7580   32.4780   43.0740 C.2   156  ASC156      0.2606
      4  C4        15.7580   31.2960   43.0670 C.3   156  ASC156      0.2661
      5  C5        17.1420   31.8650   42.7340 C.3   156  ASC156      0.2322
      6  C6        18.2020   30.7740   42.6390 C.3   156  ASC156      0.2190
      7  O1        14.3790   31.1650   46.2070 O.2   156  ASC156     -0.2411
      8  O2        13.2220   33.3200   44.7960 O.2   156  ASC156     -0.2764
      9  O3        14.6030   33.2150   41.9500 O.2   156  ASC156     -0.2838
     10  O4        15.7020   30.8360   44.4040 O.3   156  ASC156     -0.4360
     11  O5        17.5130   32.8620   43.7120 O.3   156  ASC156     -0.2159
     12  O6        19.4330   31.4230   42.2300 O.3   156  ASC156     -0.2174
@<TRIPOS>BOND
     1     9     3    1
     2    12     6    1
     3     6     5    1
     4     5     4    1
     5     5    11    1
     6     4     3    1
     7     4    10    1
     8     3     2    2
     9     2     8    1
    10     2     1    1
    11    10     1    1
    12     1     7    2
