@<TRIPOS>MOLECULE
3zwm_CXR_F_1.pdb
 35 39 0 0 0
SMALL
GASTEIGER

@<TRIPOS>ATOM
      1  O2B       52.7440   41.1170  -90.4910 O.3   303  CXR303     -0.4371
      2  PB        53.9370   40.4490  -89.9660 P.3   303  CXR303      0.2189
      3  O3A       54.4390   41.0930  -88.6180 O.3   303  CXR303     -0.2703
      4  O1B       55.0950   40.2620  -90.8390 O.2   303  CXR303     -0.5170
      5  O5D       53.5060   39.0470  -89.4030 O.3   303  CXR303     -0.3112
      6  C5D       52.5490   38.9580  -88.3410 C.3   303  CXR303      0.1813
      7  C4D       51.8440   37.6140  -88.3910 C.3   303  CXR303      0.1821
      8  C3D       51.2140   37.3350  -87.0330 C.3   303  CXR303      0.2184
      9  O3D       49.8380   36.9530  -87.2040 O.3   303  CXR303     -0.2174
     10  C2D       52.0390   36.1760  -86.4650 C.3   303  CXR303      0.2570
     11  O2D       51.2490   35.0030  -86.5970 O.3   303  CXR303     -0.2130
     12  O4D       52.8220   36.5670  -88.6390 O.3   303  CXR303     -0.3135
     13  C1D       53.3240   36.0760  -87.3510 C.3   303  CXR303      0.3205
     14  N1        54.6230   36.7620  -86.8790 N.pl3 303  CXR303     -0.1150
     15  C6        55.3700   36.3370  -85.7410 C.2   303  CXR303      0.4059
     16  N6        54.9800   35.2960  -85.0100 N.2   303  CXR303      0.1954
     17  C5        56.5380   37.0330  -85.3760 C.2   303  CXR303      0.2492
     18  N7        57.4320   36.8790  -84.3820 N.2   303  CXR303     -0.2096
     19  C8        58.3620   37.8350  -84.5050 C.3   303  CXR303      0.3377
     20  C2        55.1390   37.8890  -87.5770 C.3   303  CXR303      0.4738
     21  N3        56.2430   38.5350  -87.2140 N.2   303  CXR303     -0.0108
     22  C4        56.9530   38.1370  -86.1350 C.2   303  CXR303      0.3514
     23  N9        58.0760   38.6100  -85.5740 N.pl3 303  CXR303     -0.1439
     24  C1'       58.8970   39.8240  -86.0440 C.3   303  CXR303      0.3186
     25  O4'       58.3180   41.0380  -85.4410 O.3   303  CXR303     -0.3135
     26  C2'       58.9590   40.1370  -87.5460 C.3   303  CXR303      0.2570
     27  O2'       60.0020   39.3920  -88.1470 O.3   303  CXR303     -0.2130
     28  C3'       59.3430   41.6100  -87.5450 C.3   303  CXR303      0.2184
     29  O3'       60.7450   41.7930  -87.2890 O.3   303  CXR303     -0.2174
     30  C4'       58.5290   42.1620  -86.3670 C.3   303  CXR303      0.1821
     31  C5'       57.1800   42.7530  -86.8710 C.3   303  CXR303      0.1813
     32  O5'       56.5850   41.9590  -87.9450 O.3   303  CXR303     -0.3112
     33  PA        55.2090   42.4550  -88.5960 P.3   303  CXR303      0.2189
     34  O2A       54.5130   43.3770  -87.6700 O.3   303  CXR303     -0.4371
     35  O1A       55.4740   42.8800  -89.9730 O.2   303  CXR303     -0.5170
@<TRIPOS>BOND
     1     4     2    2
     2     1     2    1
     3    35    33    2
     4     2     5    1
     5     2     3    1
     6     5     6    1
     7    12     7    1
     8    12    13    1
     9     3    33    1
    10    33    32    1
    11    33    34    1
    12     7     6    1
    13     7     8    1
    14    27    26    1
    15    32    31    1
    16    20    21    1
    17    20    14    1
    18    26    28    1
    19    26    24    1
    20    28    29    1
    21    28    30    1
    22    13    14    1
    23    13    10    1
    24    21    22    2
    25     9     8    1
    26     8    10    1
    27    14    15    1
    28    31    30    1
    29    11    10    1
    30    30    25    1
    31    22    23    1
    32    22    17    1
    33    24    23    1
    34    24    25    1
    35    15    17    1
    36    15    16    2
    37    23    19    1
    38    17    18    2
    39    19    18    1
