@<TRIPOS>MOLECULE
3zwm_NAD_A_1.pdb
 44 48 0 0 0
SMALL
GASTEIGER

@<TRIPOS>ATOM
      1  PA       -10.6290    2.2900  -16.4450 P.3   301  NAD301      0.2189
      2  O1A      -10.9410    3.0130  -15.1920 O.3   301  NAD301     -0.4371
      3  O2A      -11.3410    2.8830  -17.6090 O.2   301  NAD301     -0.5170
      4  O5B       -9.0290    2.3700  -16.6500 O.3   301  NAD301     -0.3112
      5  C5B       -8.1690    2.1490  -15.5550 C.3   301  NAD301      0.1813
      6  C4B       -6.8270    2.8590  -15.6750 C.3   301  NAD301      0.1821
      7  O4B       -6.2700    2.6390  -16.9560 O.3   301  NAD301     -0.3135
      8  C3B       -6.9490    4.3620  -15.4530 C.3   301  NAD301      0.2184
      9  O3B       -6.4430    4.7210  -14.1780 O.3   301  NAD301     -0.2174
     10  C2B       -6.1870    4.9910  -16.6150 C.3   301  NAD301      0.2570
     11  O2B       -4.9170    5.4950  -16.2530 O.3   301  NAD301     -0.2130
     12  C1B       -5.9690    3.8590  -17.6120 C.3   301  NAD301      0.3186
     13  N9A       -6.8160    4.0290  -18.8160 N.pl3 301  NAD301     -0.1439
     14  C8A       -7.7500    3.1350  -19.2900 C.3   301  NAD301      0.3377
     15  N7A       -8.3170    3.6290  -20.4170 N.2   301  NAD301     -0.2095
     16  C5A       -7.7500    4.8350  -20.6770 C.2   301  NAD301      0.2526
     17  C6A       -7.9490    5.7710  -21.7000 C.2   301  NAD301      0.4393
     18  N6A       -8.8040    5.4900  -22.6860 N.pl3 301  NAD301      0.2180
     19  N1A       -7.2090    6.9540  -21.7200 N.2   301  NAD301      0.0021
     20  C2A       -6.2710    7.2050  -20.7260 C.3   301  NAD301      0.5254
     21  N3A       -6.0810    6.2670  -19.7150 N.2   301  NAD301     -0.0055
     22  C4A       -6.8030    5.1020  -19.6840 C.2   301  NAD301      0.3518
     23  O3       -11.0830    0.7450  -16.2110 O.3   301  NAD301     -0.2703
     24  PN       -10.6740   -0.5790  -17.0650 P.3   301  NAD301      0.2189
     25  O1N      -11.5660   -1.7040  -16.6800 O.3   301  NAD301     -0.4371
     26  O2N      -10.5680   -0.1930  -18.5010 O.2   301  NAD301     -0.5170
     27  O5D       -9.1840   -0.8670  -16.4680 O.3   301  NAD301     -0.3112
     28  C5D       -8.9550   -1.2420  -15.1200 C.3   301  NAD301      0.1813
     29  C4D       -8.8230   -2.7700  -15.0570 C.3   301  NAD301      0.1799
     30  O4D       -7.7990   -3.2410  -15.9220 O.3   301  NAD301     -0.3327
     31  C3D       -8.4530   -3.2690  -13.6680 C.3   301  NAD301      0.2158
     32  O3D       -9.1730   -4.4540  -13.4040 O.3   301  NAD301     -0.2175
     33  C2D       -6.9500   -3.5410  -13.7290 C.3   301  NAD301      0.2309
     34  O2D       -6.7030   -4.8770  -13.3040 O.3   301  NAD301     -0.2158
     35  C1D       -6.5670   -3.3490  -15.2080 C.3   301  NAD301      0.2263
     36  N1N       -5.6680   -2.2070  -15.6030 N.pl3 301  NAD301     -0.2787
     37  C2N       -4.5890   -1.7140  -14.8920 C.3   301  NAD301      0.1244
     38  C3N       -3.8200   -0.6440  -15.4310 C.2   301  NAD301      0.0544
     39  C7N       -2.7860    0.1850  -14.6800 C.2   301  NAD301      0.2818
     40  O7N       -2.3310    1.3670  -15.3350 O.2   301  NAD301     -0.2670
     41  N7N       -2.3380   -0.1810  -13.4640 N.am  301  NAD301     -0.0839
     42  C4N       -4.1600   -0.1080  -16.6730 C.2   301  NAD301      0.0033
     43  C5N       -5.2280   -0.6210  -17.3830 C.2   301  NAD301      0.0157
     44  C6N       -5.9530   -1.6670  -16.8320 C.2   301  NAD301      0.0633
@<TRIPOS>BOND
     1    18    17    1
     2    19    17    2
     3    19    20    1
     4    17    16    1
     5    20    21    1
     6    16    15    2
     7    16    22    1
     8    15    14    1
     9    21    22    2
    10    22    13    1
    11    14    13    1
    12    13    12    1
    13    26    24    2
    14    12     7    1
    15    12    10    1
    16     3     1    2
    17    43    44    2
    18    43    42    1
    19    24    25    1
    20    24    27    1
    21    24    23    1
    22     7     6    1
    23    44    36    1
    24    42    38    2
    25     4     1    1
    26     4     5    1
    27    10    11    1
    28    10     8    1
    29    27    28    1
    30     1    23    1
    31     1     2    1
    32    30    35    1
    33    30    29    1
    34     6     5    1
    35     6     8    1
    36    36    35    1
    37    36    37    1
    38     8     9    1
    39    38    37    1
    40    38    39    1
    41    40    39    2
    42    35    33    1
    43    28    29    1
    44    29    31    1
    45    39    41   am
    46    33    31    1
    47    33    34    1
    48    31    32    1
