@<TRIPOS>MOLECULE
3zwn_CGR_A_1.pdb
 36 40 0 0 0
SMALL
GASTEIGER

@<TRIPOS>ATOM
      1  O2B       46.2060    0.5040   15.9420 O.3   2458  CGR2458    -0.4371
      2  PB        45.6750    1.8850   15.4870 P.3   2458  CGR2458     0.2189
      3  O1B       46.6150    3.0600   15.3330 O.2   2458  CGR2458    -0.5170
      4  O3        44.9200    1.6140   14.0930 O.3   2458  CGR2458    -0.2703
      5  PA        44.7340    2.6390   12.8420 P.3   2458  CGR2458     0.2189
      6  O2A       46.1050    2.7640   12.2390 O.3   2458  CGR2458    -0.4371
      7  O1A       43.5280    2.1510   12.1140 O.2   2458  CGR2458    -0.5170
      8 O5'R       44.2470    2.2900   16.2470 O.3   2458  CGR2458    -0.3112
      9 C5'R       43.1190    1.3560   16.4310 C.3   2458  CGR2458     0.1813
     10 C4'R       42.8560    0.9820   17.9270 C.3   2458  CGR2458     0.1796
     11 O4'R       42.5040    2.0530   18.9450 O.3   2458  CGR2458    -0.3353
     12 C1'R       40.9780    2.4020   18.8580 C.3   2458  CGR2458     0.2120
     13 C2'R       40.4530    0.9320   18.5810 C.3   2458  CGR2458     0.2272
     14 O2'R       40.1440    0.1860   19.7950 O.3   2458  CGR2458    -0.2161
     15 C3'R       41.5970    0.0930   17.8720 C.3   2458  CGR2458     0.2155
     16 O3'R       41.8420   -1.2480   18.4950 O.3   2458  CGR2458    -0.2176
     17  N7        40.8000    3.9610   18.1840 N.3   2458  CGR2458    -0.2106
     18  C8        42.0260    4.4730   17.8930 C.3   2458  CGR2458     0.1753
     19  N9        41.9720    5.7110   17.4100 N.pl3 2458  CGR2458    -0.2453
     20  C1'       42.9760    6.7170   16.8330 C.3   2458  CGR2458     0.2287
     21  O4'       42.4460    6.6310   15.3820 O.3   2458  CGR2458    -0.3326
     22  C2'       44.4930    6.5380   16.6330 C.3   2458  CGR2458     0.2310
     23  O2'       45.1400    7.8050   16.3600 O.3   2458  CGR2458    -0.2158
     24  C3'       44.6110    5.6510   15.4050 C.3   2458  CGR2458     0.2158
     25  O3'       45.8790    5.9050   14.7680 O.3   2458  CGR2458    -0.2175
     26  C4'       43.4380    6.0710   14.4840 C.3   2458  CGR2458     0.1799
     27  C5'       43.0610    4.7660   13.7270 C.3   2458  CGR2458     0.1813
     28  O5'       44.3460    4.1200   13.5210 O.3   2458  CGR2458    -0.3112
     29  C4A       40.7160    6.0320   17.3640 C.2   2458  CGR2458     0.2086
     30  C5A       39.8570    5.0060   17.8510 C.3   2458  CGR2458     0.2493
     31  N3A       40.3780    7.2350   16.8990 N.2   2458  CGR2458    -0.3118
     32  C2A       39.1520    7.6520   16.8180 C.1   2458  CGR2458     0.2525
     33  N2A       39.0330    8.8790   16.3350 N.pl3 2458  CGR2458    -0.0226
     34  N1A       38.1390    6.8000   17.2570 N.2   2458  CGR2458    -0.2526
     35  C6A       38.4620    5.4890   17.7630 C.1   2458  CGR2458     0.2146
     36  O6A       37.3890    4.9460   18.0510 O.2   2458  CGR2458    -0.2115
@<TRIPOS>BOND
     1     7     5    2
     2     6     5    1
     3     5    28    1
     4     5     4    1
     5    28    27    1
     6    27    26    1
     7     4     2    1
     8    26    21    1
     9    26    24    1
    10    25    24    1
    11     3     2    2
    12    21    20    1
    13    24    22    1
    14     2     1    1
    15     2     8    1
    16     8     9    1
    17    33    32    1
    18    23    22    1
    19     9    10    1
    20    22    20    1
    21    32    31    2
    22    32    34    2
    23    20    19    1
    24    31    29    2
    25    34    35    2
    26    29    19    1
    27    29    30    1
    28    19    18    1
    29    35    30    1
    30    35    36    2
    31    30    17    1
    32    15    10    1
    33    15    16    1
    34    15    13    1
    35    18    17    1
    36    10    11    1
    37    17    12    1
    38    13    12    1
    39    13    14    1
    40    12    11    1
