@<TRIPOS>MOLECULE
3zwn_NGD_B_1.pdb
 45 49 0 0 0
SMALL
GASTEIGER

@<TRIPOS>ATOM
      1  O6A        1.7240   -9.3600   19.5800 O.2   5573  NGD5573    -0.2069
      2  C6A        2.3350   -8.7110   18.7230 C.1   5573  NGD5573     0.2372
      3  C5A        3.7410   -8.8200   18.5370 C.2   5573  NGD5573     0.2182
      4  N7A        4.6990   -9.5450   19.1390 N.2   5573  NGD5573    -0.2322
      5  C8A        5.8710   -9.2500   18.5630 C.3   5573  NGD5573     0.2246
      6  N9A        5.7070   -8.3410   17.5770 N.pl3 5573  NGD5573    -0.2354
      7  C4A        4.3800   -8.0410   17.5420 C.2   5573  NGD5573     0.2300
      8  N3A        3.6230   -7.1990   16.7710 N.2   5573  NGD5573    -0.3074
      9  C2A        2.2710   -7.0670   16.9150 C.1   5573  NGD5573     0.2531
     10  N2A        1.5670   -6.2300   16.1410 N.pl3 5573  NGD5573    -0.0226
     11  N1A        1.5940   -7.8240   17.9010 N.2   5573  NGD5573    -0.2485
     12  C1'        6.8630   -7.7670   16.7060 C.3   5573  NGD5573     0.2293
     13  O4'        6.4910   -7.1300   15.4360 O.3   5573  NGD5573    -0.3326
     14  C2'        7.9330   -8.8060   16.2550 C.3   5573  NGD5573     0.2310
     15  O2'        8.8510   -9.1200   17.3230 O.3   5573  NGD5573    -0.2158
     16  C3'        8.6820   -8.0640   15.1320 C.3   5573  NGD5573     0.2158
     17  O3'        9.9020   -7.4760   15.6170 O.3   5573  NGD5573    -0.2175
     18  C4'        7.7190   -6.9440   14.6990 C.3   5573  NGD5573     0.1799
     19  C5'        7.5290   -7.2470   13.2250 C.3   5573  NGD5573     0.1813
     20  O5'        6.6700   -8.4160   12.9810 O.3   5573  NGD5573    -0.3112
     21  PA         7.0500   -9.4010   11.6720 P.3   5573  NGD5573     0.2189
     22  O1A        8.4950   -9.7510   11.7570 O.3   5573  NGD5573    -0.4371
     23  O2A        6.0140  -10.3970   11.2740 O.2   5573  NGD5573    -0.5170
     24  O3         6.8890   -8.3330   10.3730 O.3   5573  NGD5573    -0.2703
     25  PB         5.6860   -7.2180   10.0390 P.3   5573  NGD5573     0.2189
     26  O1B        5.6500   -7.2390    8.4960 O.2   5573  NGD5573    -0.5170
     27  O2B        4.4790   -7.5030   10.8800 O.3   5573  NGD5573    -0.4371
     28 O5'R        6.5660   -5.9210   10.6700 O.3   5573  NGD5573    -0.3112
     29 C5'R        7.7430   -5.4830    9.9550 C.3   5573  NGD5573     0.1813
     30 C4'R        7.4100   -4.2870    8.9880 C.3   5573  NGD5573     0.1799
     31 C3'R        8.7810   -3.6820    8.6190 C.3   5573  NGD5573     0.2158
     32 O3'R        8.8620   -3.3830    7.1980 O.3   5573  NGD5573    -0.2175
     33 C2'R        9.0050   -2.4170    9.4910 C.3   5573  NGD5573     0.2309
     34 O2'R        9.0880   -1.2590    8.5770 O.3   5573  NGD5573    -0.2158
     35 O4'R        6.7190   -3.2020    9.7390 O.3   5573  NGD5573    -0.3327
     36 C1'R        7.7580   -2.3610   10.4280 C.3   5573  NGD5573     0.2263
     37  N1         7.7670   -2.6760   11.9250 N.pl3 5573  NGD5573    -0.2787
     38  C6         6.5510   -3.1840   12.4410 C.3   5573  NGD5573     0.1195
     39  C5         6.4620   -3.5260   13.7770 C.2   5573  NGD5573    -0.0045
     40  C4         7.5400   -3.3500   14.6340 C.2   5573  NGD5573     0.0030
     41  C2         8.8730   -2.5000   12.8430 C.2   5573  NGD5573     0.0679
     42  C3         8.7600   -2.8380   14.2220 C.2   5573  NGD5573     0.0710
     43  C7         9.8630   -2.7080   15.3960 C.2   5573  NGD5573     0.2854
     44  N7        11.1020   -2.2220   15.1330 N.am  5573  NGD5573    -0.0837
     45  O7         9.5370   -3.0010   16.7220 O.2   5573  NGD5573    -0.2666
@<TRIPOS>BOND
     1    32    31    1
     2    26    25    2
     3    34    33    1
     4    31    30    1
     5    31    33    1
     6    30    35    1
     7    30    29    1
     8    33    36    1
     9    35    36    1
    10    29    28    1
    11    25    24    1
    12    25    28    1
    13    25    27    1
    14    24    21    1
    15    36    37    1
    16    23    21    2
    17    21    22    1
    18    21    20    1
    19    37    38    1
    20    37    41    1
    21    38    39    1
    22    41    42    2
    23    20    19    1
    24    19    18    1
    25    39    40    2
    26    42    40    1
    27    42    43    1
    28    18    16    1
    29    18    13    1
    30    16    17    1
    31    16    14    1
    32    44    43   am
    33    43    45    2
    34    13    12    1
    35    10     9    1
    36    14    12    1
    37    14    15    1
    38    12     6    1
    39     8     9    2
    40     8     7    2
    41     9    11    2
    42     7     6    1
    43     7     3    1
    44     6     5    1
    45    11     2    2
    46     3     2    1
    47     3     4    2
    48     5     4    1
    49     2     1    2
