@<TRIPOS>MOLECULE
3zwo_G2Q_A_1.pdb
 36 39 0 0 0
SMALL
GASTEIGER

@<TRIPOS>ATOM
      1  N1         1.3470    7.1170    2.2810 N.2   301  G2Q301     -0.2485
      2  C2         0.8340    6.0810    1.5130 C.1   301  G2Q301      0.2531
      3  N2         0.0820    5.1550    2.1160 N.pl3 301  G2Q301     -0.0226
      4  N3         1.1010    6.0740    0.2000 N.2   301  G2Q301     -0.3074
      5  C4         1.8880    7.0420   -0.3770 C.2   301  G2Q301      0.2300
      6  C5         2.4220    8.1230    0.3660 C.2   301  G2Q301      0.2182
      7  C6         2.1530    8.1770    1.7990 C.1   301  G2Q301      0.2372
      8  O6         2.5320    9.0150    2.6740 O.2   301  G2Q301     -0.2069
      9  N7         3.0930    8.8960   -0.5460 N.2   301  G2Q301     -0.2322
     10  C8         2.9940    8.3490   -1.7530 C.3   301  G2Q301      0.2246
     11  N9         2.2760    7.2110   -1.6660 N.pl3 301  G2Q301     -0.2354
     12  PA        -3.3890    5.9280   -5.8730 P.3   301  G2Q301      0.2189
     13  PB        -1.9630    3.3760   -6.4220 P.3   301  G2Q301      0.2189
     14  C1'        1.9040    6.3250   -2.8430 C.3   301  G2Q301      0.2293
     15  O1A       -3.0810    6.2080   -7.3190 O.2   301  G2Q301     -0.5170
     16  O1B       -2.3230    1.8490   -6.8080 O.3   301  G2Q301     -0.4371
     17  C1X       -0.3090    1.3110   -1.2250 C.3   301  G2Q301      0.1777
     18  C2'        1.5960    4.8850   -2.3440 C.3   301  G2Q301      0.2310
     19  O2'        2.1760    3.9120   -3.1980 O.3   301  G2Q301     -0.2158
     20  O2A       -4.7220    6.0860   -5.3380 O.3   301  G2Q301     -0.4371
     21  O2B       -1.0610    4.3250   -7.2810 O.2   301  G2Q301     -0.5170
     22  C2X       -1.3420    0.1640   -1.1250 C.3   301  G2Q301      0.2140
     23  O2X       -0.6960   -1.1070   -0.9530 O.3   301  G2Q301     -0.2176
     24  C3'        0.0780    4.7690   -2.4130 C.3   301  G2Q301      0.2158
     25  O3'       -0.1500    3.4210   -2.6860 O.3   301  G2Q301     -0.2175
     26  O3A       -3.2950    4.2840   -5.8900 O.3   301  G2Q301     -0.2703
     27  C3X       -2.2550    0.3010   -2.4040 C.3   301  G2Q301      0.2140
     28  O3X       -2.5590   -0.9050   -3.0840 O.3   301  G2Q301     -0.2176
     29  C4'       -0.3010    5.6690   -3.5860 C.3   301  G2Q301      0.1799
     30  O4'        0.6080    6.8410   -3.3640 O.3   301  G2Q301     -0.3326
     31  C4X       -1.4590    1.1780   -3.4340 C.3   301  G2Q301      0.1780
     32  O4X       -0.1010    1.4010   -2.8180 O.3   301  G2Q301     -0.3482
     33  C5'       -1.7930    6.1950   -3.6000 C.3   301  G2Q301      0.1813
     34  O5'       -2.1880    6.6180   -4.9290 O.3   301  G2Q301     -0.3112
     35  C5X       -2.2090    2.4600   -3.8040 C.3   301  G2Q301      0.1812
     36  O5X       -1.4150    3.2830   -4.8230 O.3   301  G2Q301     -0.3112
@<TRIPOS>BOND
     1    15    12    2
     2    21    13    2
     3    16    13    1
     4    13    26    1
     5    13    36    1
     6    26    12    1
     7    12    20    1
     8    12    34    1
     9    34    33    1
    10    36    35    1
    11    35    31    1
    12    33    29    1
    13    29    30    1
    14    29    24    1
    15    31    32    1
    16    31    27    1
    17    30    14    1
    18    19    18    1
    19    28    27    1
    20    14    18    1
    21    14    11    1
    22    32    17    1
    23    25    24    1
    24    24    18    1
    25    27    22    1
    26    10    11    1
    27    10     9    1
    28    11     5    1
    29    17    22    1
    30    22    23    1
    31     9     6    2
    32     5     4    2
    33     5     6    1
    34     4     2    2
    35     6     7    1
    36     2     3    1
    37     2     1    2
    38     7     1    2
    39     7     8    2
