@<TRIPOS>MOLECULE
3zwo_NGD_F_1.pdb
 45 49 0 0 0
SMALL
GASTEIGER

@<TRIPOS>ATOM
      1  O6A      -47.0240  -22.6140    5.4690 O.2   5573  NGD5573    -0.2069
      2  C6A      -46.6890  -23.8100    6.0360 C.1   5573  NGD5573     0.2372
      3  C5A      -45.4210  -23.9330    6.8220 C.2   5573  NGD5573     0.2182
      4  N7A      -44.4270  -23.0690    7.1410 N.2   5573  NGD5573    -0.2322
      5  C8A      -43.5250  -23.7520    7.8830 C.3   5573  NGD5573     0.2246
      6  N9A      -43.9350  -25.0310    8.0330 N.pl3 5573  NGD5573    -0.2354
      7  C4A      -45.1190  -25.1740    7.3830 C.2   5573  NGD5573     0.2300
      8  N3A      -46.0020  -26.2140    7.1830 N.2   5573  NGD5573    -0.3074
      9  C2A      -47.1580  -26.0710    6.4620 C.1   5573  NGD5573     0.2531
     10  N2A      -47.9930  -27.1300    6.2960 N.pl3 5573  NGD5573    -0.0226
     11  N1A      -47.4890  -24.8890    5.9010 N.2   5573  NGD5573    -0.2485
     12  C1'      -43.1700  -26.0520    8.8180 C.3   5573  NGD5573     0.2293
     13  O4'      -43.8130  -27.3400    8.9140 O.3   5573  NGD5573    -0.3326
     14  C2'      -43.0370  -25.5080   10.2380 C.3   5573  NGD5573     0.2310
     15  O2'      -41.6970  -25.0410   10.4510 O.3   5573  NGD5573    -0.2158
     16  C3'      -43.4720  -26.6270   11.1820 C.3   5573  NGD5573     0.2158
     17  O3'      -42.4440  -26.9820   12.1260 O.3   5573  NGD5573    -0.2175
     18  C4'      -43.8580  -27.8040   10.2760 C.3   5573  NGD5573     0.1799
     19  C5'      -45.2230  -28.4000   10.6500 C.3   5573  NGD5573     0.1813
     20  O5'      -46.2550  -28.2190    9.6650 O.3   5573  NGD5573    -0.3112
     21  PA       -47.8400  -28.1820   10.0560 P.3   5573  NGD5573     0.2189
     22  O1A      -47.9410  -27.5130   11.4190 O.3   5573  NGD5573    -0.4371
     23  O2A      -48.6320  -27.6840    8.8550 O.2   5573  NGD5573    -0.5170
     24  O3       -48.3150  -29.7320   10.2800 O.3   5573  NGD5573    -0.2703
     25  PB       -47.9200  -31.0610    9.4090 P.3   5573  NGD5573     0.2189
     26  O1B      -47.7520  -30.6020    7.9640 O.2   5573  NGD5573    -0.5170
     27  O2B      -48.9140  -32.1920    9.7040 O.3   5573  NGD5573    -0.4371
     28 O5'R      -46.4510  -31.4050   10.0570 O.3   5573  NGD5573    -0.3112
     29 C5'R      -46.2420  -31.8280   11.4230 C.3   5573  NGD5573     0.1813
     30 C4'R      -45.8520  -33.3140   11.5630 C.3   5573  NGD5573     0.1799
     31 C3'R      -45.4610  -33.6410   12.9930 C.3   5573  NGD5573     0.2158
     32 O3'R      -46.2410  -34.7650   13.4040 O.3   5573  NGD5573    -0.2175
     33 C2'R      -43.9470  -33.9020   12.9850 C.3   5573  NGD5573     0.2309
     34 O2'R      -43.7560  -35.2930   13.3100 O.3   5573  NGD5573    -0.2158
     35 O4'R      -44.6930  -33.6980   10.7920 O.3   5573  NGD5573    -0.3327
     36 C1'R      -43.4670  -33.5750   11.5550 C.3   5573  NGD5573     0.2263
     37  N1       -42.9340  -32.1770   11.2940 N.pl3 5573  NGD5573    -0.2787
     38  C6       -43.0310  -31.7410    9.9280 C.3   5573  NGD5573     0.1195
     39  C5       -42.1820  -30.8060    9.3340 C.2   5573  NGD5573    -0.0045
     40  C4       -41.1160  -30.2970   10.0790 C.2   5573  NGD5573     0.0030
     41  C2       -41.7800  -31.6710   11.9830 C.2   5573  NGD5573     0.0679
     42  C3       -40.9120  -30.7200   11.4020 C.2   5573  NGD5573     0.0710
     43  C7       -39.7520  -30.1130   12.1550 C.2   5573  NGD5573     0.2854
     44  N7       -39.4210  -30.5140   13.3830 N.am  5573  NGD5573    -0.0837
     45  O7       -39.0650  -29.1200   11.5750 O.2   5573  NGD5573    -0.2666
@<TRIPOS>BOND
     1     1     2    2
     2    11     2    2
     3    11     9    2
     4     2     3    1
     5    10     9    1
     6     9     8    2
     7     3     4    2
     8     3     7    1
     9     4     5    1
    10     8     7    2
    11     7     6    1
    12     5     6    1
    13    26    25    2
    14     6    12    1
    15    12    13    1
    16    12    14    1
    17    23    21    2
    18    13    18    1
    19    39    38    1
    20    39    40    2
    21    25    27    1
    22    25    28    1
    23    25    24    1
    24    20    21    1
    25    20    19    1
    26    38    37    1
    27    21    24    1
    28    21    22    1
    29    28    29    1
    30    40    42    1
    31    14    15    1
    32    14    16    1
    33    18    19    1
    34    18    16    1
    35    35    36    1
    36    35    30    1
    37    16    17    1
    38    37    36    1
    39    37    41    1
    40    42    41    2
    41    42    43    1
    42    29    30    1
    43    36    33    1
    44    30    31    1
    45    45    43    2
    46    43    44   am
    47    33    31    1
    48    33    34    1
    49    31    32    1
