@<TRIPOS>MOLECULE
3zwp_AVU_A_1.pdb
 35 38 0 0 0
SMALL
GASTEIGER

@<TRIPOS>ATOM
      1  N1        -2.7500    0.6280  -14.2070 N.2   301  AVU301      0.0021
      2  C2        -3.1070    1.5830  -15.0850 C.3   301  AVU301      0.5254
      3  N3        -4.1420    1.3760  -15.9350 N.2   301  AVU301     -0.0055
      4  C4        -4.8480    0.1970  -15.8960 C.2   301  AVU301      0.3518
      5  C5        -4.4990   -0.8080  -14.9970 C.2   301  AVU301      0.2526
      6  C6        -3.4200   -0.5570  -14.1400 C.2   301  AVU301      0.4393
      7  N6        -3.0260   -1.4790  -13.2300 N.pl3 301  AVU301      0.2180
      8  N7        -5.3630   -1.8440  -15.1950 N.2   301  AVU301     -0.2095
      9  C8        -6.2190   -1.4890  -16.1880 C.3   301  AVU301      0.3377
     10  N9        -5.8920   -0.2430  -16.6060 N.pl3 301  AVU301     -0.1439
     11  PA       -12.4030    1.1410  -16.4810 P.3   301  AVU301      0.2189
     12  PB       -12.0240   -1.6930  -17.2020 P.3   301  AVU301      0.2189
     13  C1'       -6.5140    0.6080  -17.6540 C.3   301  AVU301      0.3186
     14  O1A      -13.5680    1.4970  -17.3390 O.2   301  AVU301     -0.5170
     15  O1B      -11.8650   -1.2210  -18.6600 O.2   301  AVU301     -0.5170
     16  C1R       -9.0770   -5.7360  -15.6190 C.3   301  AVU301      0.1801
     17  C2'       -7.3800   -0.1900  -18.5930 C.3   301  AVU301      0.2570
     18  O2'       -7.2760    0.3710  -19.9210 O.3   301  AVU301     -0.2130
     19  O2A      -12.3070    1.5960  -15.0210 O.3   301  AVU301     -0.4371
     20  O2B      -13.0650   -2.7880  -16.9210 O.3   301  AVU301     -0.4371
     21  C2R       -9.0330   -5.5060  -14.1140 C.3   301  AVU301      0.2229
     22  F2R       -7.9680   -4.6490  -13.8680 F     301  AVU301     -0.2317
     23  C3'       -8.7690    0.0220  -18.0430 C.3   301  AVU301      0.2184
     24  O3'       -9.7700   -0.1670  -19.0500 O.3   301  AVU301     -0.2174
     25  O3A      -12.4190   -0.4660  -16.2320 O.3   301  AVU301     -0.2703
     26  C3R      -10.3110   -4.7610  -13.8380 C.3   301  AVU301      0.2162
     27  O3R      -11.3200   -5.7180  -13.5300 O.3   301  AVU301     -0.2174
     28  C4'       -8.7030    1.4680  -17.5570 C.3   301  AVU301      0.1821
     29  O4'       -7.3680    1.6120  -17.0570 O.3   301  AVU301     -0.3135
     30  C4R      -10.6900   -4.0710  -15.1480 C.3   301  AVU301      0.1782
     31  O4R       -9.9720   -4.7570  -16.1720 O.3   301  AVU301     -0.3480
     32  C5'       -9.8200    1.7780  -16.5620 C.3   301  AVU301      0.1813
     33  O5'      -11.0350    1.4570  -17.2540 O.3   301  AVU301     -0.3112
     34  C5R      -10.3920   -2.5740  -15.2090 C.3   301  AVU301      0.1812
     35  O5R      -10.5510   -2.0470  -16.5390 O.3   301  AVU301     -0.3112
@<TRIPOS>BOND
     1    18    17    1
     2    24    23    1
     3    15    12    2
     4    17    23    1
     5    17    13    1
     6    23    28    1
     7    13    29    1
     8    13    10    1
     9    28    29    1
    10    28    32    1
    11    14    11    2
    12    33    32    1
    13    33    11    1
    14    12    20    1
    15    12    35    1
    16    12    25    1
    17    10     9    1
    18    10     4    1
    19    35    34    1
    20    11    25    1
    21    11    19    1
    22     9     8    1
    23    31    16    1
    24    31    30    1
    25     3     4    2
    26     3     2    1
    27     4     5    1
    28    16    21    1
    29    34    30    1
    30     8     5    2
    31    30    26    1
    32     2     1    1
    33     5     6    1
    34     1     6    2
    35     6     7    1
    36    21    22    1
    37    21    26    1
    38    26    27    1
