@<TRIPOS>MOLECULE
3zws_FMN_A_1.pdb
 31 33 0 0 0
SMALL
GASTEIGER

@<TRIPOS>ATOM
      1  N1       -34.9570  -24.3630   -8.7010 N.2   1397  FMN1397    -0.2887
      2  C2       -35.7050  -24.3080   -9.8160 C.1   1397  FMN1397     0.3669
      3  O2       -35.2740  -24.7570  -10.8580 O.2   1397  FMN1397    -0.1744
      4  N3       -36.9670  -23.7300   -9.7220 N.2   1397  FMN1397    -0.2300
      5  C4       -37.5130  -23.2330   -8.5640 C.1   1397  FMN1397     0.2513
      6  O4       -38.6400  -22.7010   -8.6180 O.2   1397  FMN1397    -0.2057
      7  C4A      -36.7380  -23.3140   -7.4160 C.2   1397  FMN1397     0.2706
      8  N5       -37.2000  -22.8820   -6.1870 N.2   1397  FMN1397    -0.3841
      9  C5A      -36.3790  -22.8380   -5.0980 C.2   1397  FMN1397     0.1452
     10  C6       -36.8270  -22.2640   -3.9160 C.2   1397  FMN1397     0.0252
     11  C7       -36.0120  -22.1720   -2.8130 C.2   1397  FMN1397    -0.0375
     12  C7M      -36.5100  -21.5220   -1.5220 C.3   1397  FMN1397     0.0268
     13  C8       -34.6970  -22.6450   -2.8960 C.3   1397  FMN1397     0.0417
     14  C8M      -33.7150  -22.5810   -1.7220 C.3   1397  FMN1397     0.0091
     15  C9       -34.2610  -23.2150   -4.0780 C.2   1397  FMN1397    -0.0049
     16  C9A      -35.0630  -23.3190   -5.1890 C.2   1397  FMN1397     0.0795
     17  N10      -34.6520  -23.9300   -6.3850 N.pl3 1397  FMN1397    -0.2545
     18  C10      -35.4550  -23.8940   -7.5070 C.2   1397  FMN1397     0.2449
     19  C1'      -33.3160  -24.5290   -6.4810 C.3   1397  FMN1397     0.1336
     20  C2'      -32.1950  -23.5100   -6.6490 C.3   1397  FMN1397     0.2048
     21  O2'      -32.2790  -22.8500   -7.9750 O.3   1397  FMN1397    -0.2185
     22  C3'      -30.8170  -24.1870   -6.6590 C.3   1397  FMN1397     0.2165
     23  O3'      -30.7420  -25.1800   -7.7170 O.3   1397  FMN1397    -0.2175
     24  C4'      -30.5220  -24.8540   -5.3020 C.3   1397  FMN1397     0.2147
     25  O4'      -31.1560  -24.1760   -4.1960 O.3   1397  FMN1397    -0.2176
     26  C5'      -29.0190  -25.0040   -5.0520 C.3   1397  FMN1397     0.1892
     27  O5'      -28.3450  -23.7600   -4.9990 O.3   1397  FMN1397    -0.2674
     28  P        -28.0610  -23.0440   -3.5630 P.3   1397  FMN1397     0.5327
     29  O1P      -27.1400  -21.9080   -3.9110 O.2   1397  FMN1397    -0.2224
     30  O2P      -27.3970  -24.1400   -2.6540 O.3   1397  FMN1397    -0.1145
     31  O3P      -29.3610  -22.4950   -2.9850 O.3   1397  FMN1397    -0.1145
@<TRIPOS>BOND
     1     3     2    2
     2     2     4    2
     3     2     1    2
     4     4     5    2
     5     1    18    2
     6     6     5    2
     7     5     7    1
     8    21    20    1
     9    23    22    1
    10    18     7    1
    11    18    17    1
    12     7     8    2
    13    22    20    1
    14    22    24    1
    15    20    19    1
    16    19    17    1
    17    17    16    1
    18     8     9    2
    19    24    26    1
    20    24    25    1
    21    16     9    1
    22    16    15    2
    23     9    10    1
    24    26    27    1
    25    27    28    1
    26    15    13    1
    27    10    11    2
    28    29    28    2
    29    28    31    1
    30    28    30    1
    31    13    11    1
    32    13    14    1
    33    11    12    1
