@<TRIPOS>MOLECULE
3zws_AVQ_A_1.pdb
 21 23 0 0 0
SMALL
GASTEIGER

@<TRIPOS>ATOM
      1 CLD       -31.6600   -9.2190    0.2060 Cl    1402  AVQ1402    -0.0825
      2  CAQ      -32.6220   -9.4530    1.6130 C.ar  1402  AVQ1402     0.0546
      3  CAF      -33.4230   -8.4110    2.0820 C.ar  1402  AVQ1402     0.0120
      4  CAE      -34.2300   -8.6120    3.2040 C.ar  1402  AVQ1402     0.0122
      5  CAO      -34.1980   -9.8450    3.8400 C.ar  1402  AVQ1402     0.0574
      6 CLC       -35.1460  -10.1680    5.2280 Cl    1402  AVQ1402    -0.0823
      7  CAH      -33.4040  -10.8850    3.3720 C.ar  1402  AVQ1402     0.0089
      8  CAR      -32.6090  -10.7010    2.2400 C.ar  1402  AVQ1402     0.0012
      9  CAI      -31.7510  -11.8890    1.7980 C.3   1402  AVQ1402     0.1006
     10  SAM      -32.3000  -12.5900    0.2170 S.3   1402  AVQ1402    -0.0235
     11  CAS      -33.3160  -13.8200    0.8680 C.1   1402  AVQ1402     0.1454
     12  NAK      -33.9730  -14.6740    0.0970 N.2   1402  AVQ1402    -0.2640
     13  NAL      -33.5040  -14.1220    2.1660 N.2   1402  AVQ1402    -0.0877
     14  NAU      -34.2420  -15.1220    2.1930 N.am  1402  AVQ1402    -0.0674
     15  CAT      -34.5520  -15.5300    0.8830 C.1   1402  AVQ1402     0.2389
     16  NAJ      -35.3370  -16.5900    0.6550 N.2   1402  AVQ1402    -0.3344
     17  CAN      -35.8290  -17.3170    1.6720 C.2   1402  AVQ1402     0.1100
     18  CAA      -36.7260  -18.5150    1.3750 C.3   1402  AVQ1402     0.0630
     19  CAG      -35.5710  -16.9600    2.9970 C.3   1402  AVQ1402     0.1433
     20  CAP      -34.7570  -15.8730    3.2500 C.2   1402  AVQ1402     0.2659
     21  OAB      -34.4530  -15.4920    4.5050 O.2   1402  AVQ1402    -0.2716
@<TRIPOS>BOND
     1    12    11    2
     2    12    15    2
     3     1     2    1
     4    10    11    1
     5    10     9    1
     6    16    15    2
     7    16    17    2
     8    11    13    2
     9    15    14    1
    10    18    17    1
    11     2     3   ar
    12     2     8   ar
    13    17    19    1
    14     9     8    1
    15     3     4   ar
    16    13    14    1
    17    14    20   am
    18     8     7   ar
    19    19    20    1
    20     4     5   ar
    21    20    21    2
    22     7     5   ar
    23     5     6    1
