@<TRIPOS>MOLECULE
3zwt_FMN_A_1.pdb
 31 33 0 0 0
SMALL
GASTEIGER

@<TRIPOS>ATOM
      1  N1       -34.9950  -24.4100   -8.7600 N.2   1397  FMN1397    -0.2887
      2  C2       -35.7330  -24.3450   -9.8960 C.1   1397  FMN1397     0.3669
      3  O2       -35.3040  -24.7740  -10.9530 O.2   1397  FMN1397    -0.1744
      4  N3       -36.9820  -23.7590   -9.8100 N.2   1397  FMN1397    -0.2300
      5  C4       -37.5390  -23.2790   -8.6750 C.1   1397  FMN1397     0.2513
      6  O4       -38.6850  -22.7630   -8.7350 O.2   1397  FMN1397    -0.2057
      7  C4A      -36.7760  -23.3540   -7.5220 C.2   1397  FMN1397     0.2706
      8  N5       -37.2510  -22.9220   -6.2950 N.2   1397  FMN1397    -0.3841
      9  C5A      -36.4470  -22.8640   -5.1800 C.2   1397  FMN1397     0.1452
     10  C6       -36.8960  -22.3130   -3.9980 C.2   1397  FMN1397     0.0252
     11  C7       -36.0580  -22.2260   -2.9010 C.2   1397  FMN1397    -0.0375
     12  C7M      -36.5740  -21.5960   -1.6020 C.3   1397  FMN1397     0.0268
     13  C8       -34.7540  -22.6910   -2.9580 C.3   1397  FMN1397     0.0417
     14  C8M      -33.7920  -22.6220   -1.7620 C.3   1397  FMN1397     0.0091
     15  C9       -34.3350  -23.2630   -4.1610 C.2   1397  FMN1397    -0.0049
     16  C9A      -35.1540  -23.3640   -5.2600 C.2   1397  FMN1397     0.0795
     17  N10      -34.7110  -23.9630   -6.4570 N.pl3 1397  FMN1397    -0.2545
     18  C10      -35.4800  -23.9160   -7.6020 C.2   1397  FMN1397     0.2449
     19  C1'      -33.3870  -24.5820   -6.5400 C.3   1397  FMN1397     0.1336
     20  C2'      -32.2430  -23.5950   -6.7240 C.3   1397  FMN1397     0.2048
     21  O2'      -32.3380  -22.9170   -8.0150 O.3   1397  FMN1397    -0.2185
     22  C3'      -30.8420  -24.1890   -6.7180 C.3   1397  FMN1397     0.2165
     23  O3'      -30.8000  -25.2050   -7.7720 O.3   1397  FMN1397    -0.2175
     24  C4'      -30.5780  -24.8910   -5.3400 C.3   1397  FMN1397     0.2147
     25  O4'      -31.1890  -24.1780   -4.2590 O.3   1397  FMN1397    -0.2176
     26  C5'      -29.0510  -25.0110   -5.0800 C.3   1397  FMN1397     0.1892
     27  O5'      -28.3770  -23.7840   -5.0130 O.3   1397  FMN1397    -0.2674
     28  P        -28.0910  -23.0420   -3.5970 P.3   1397  FMN1397     0.5327
     29  O1P      -27.1300  -21.9230   -3.9600 O.2   1397  FMN1397    -0.2224
     30  O2P      -27.4300  -24.1420   -2.6980 O.3   1397  FMN1397    -0.1145
     31  O3P      -29.3970  -22.5190   -3.0460 O.3   1397  FMN1397    -0.1145
@<TRIPOS>BOND
     1     3     2    2
     2     2     4    2
     3     2     1    2
     4     4     5    2
     5     1    18    2
     6     6     5    2
     7     5     7    1
     8    21    20    1
     9    23    22    1
    10    18     7    1
    11    18    17    1
    12     7     8    2
    13    20    22    1
    14    20    19    1
    15    22    24    1
    16    19    17    1
    17    17    16    1
    18     8     9    2
    19    24    26    1
    20    24    25    1
    21    16     9    1
    22    16    15    2
    23     9    10    1
    24    26    27    1
    25    27    28    1
    26    15    13    1
    27    10    11    2
    28    29    28    2
    29    28    31    1
    30    28    30    1
    31    13    11    1
    32    13    14    1
    33    11    12    1
