@<TRIPOS>MOLECULE
3zwt_KFZ_A_1.pdb
 22 24 0 0 0
SMALL
GASTEIGER

@<TRIPOS>ATOM
      1 CL1       -31.7840   -8.9550    0.0020 Cl    1401  KFZ1401    -0.0825
      2  CAQ      -32.7100   -9.2230    1.4300 C.ar  1401  KFZ1401     0.0546
      3  CAF      -33.5580   -8.2310    1.9250 C.ar  1401  KFZ1401     0.0120
      4  CAE      -34.3170   -8.4900    3.0690 C.ar  1401  KFZ1401     0.0122
      5  CAO      -34.2120   -9.7240    3.6980 C.ar  1401  KFZ1401     0.0574
      6 CL2       -35.1400  -10.0610    5.1060 Cl    1401  KFZ1401    -0.0823
      7  CAG      -33.3620  -10.7080    3.1940 C.ar  1401  KFZ1401     0.0089
      8  CAS      -32.6080  -10.4670    2.0470 C.ar  1401  KFZ1401     0.0012
      9  CAJ      -31.6730  -11.5800    1.5390 C.3   1401  KFZ1401     0.1006
     10  SAN      -32.2510  -12.4180    0.0300 S.3   1401  KFZ1401    -0.0235
     11  CAT      -33.2670  -13.6280    0.7260 C.1   1401  KFZ1401     0.1454
     12  NAL      -33.8940  -14.5220   -0.0240 N.2   1401  KFZ1401    -0.2640
     13  NAM      -33.5330  -13.8080    2.0230 N.2   1401  KFZ1401    -0.0877
     14  NAV      -34.2760  -14.8000    2.1010 N.am  1401  KFZ1401    -0.0674
     15  CAU      -34.5050  -15.3110    0.8100 C.1   1401  KFZ1401     0.2389
     16  NAK      -35.2470  -16.3870    0.6080 N.2   1401  KFZ1401    -0.3344
     17  CAR      -35.8060  -17.0690    1.6270 C.2   1401  KFZ1401     0.1096
     18  CAI      -36.6300  -18.3300    1.3080 C.3   1401  KFZ1401     0.0560
     19  CAA      -35.6370  -19.5350    1.2430 C.3   1401  KFZ1401     0.0075
     20  CAH      -35.6180  -16.6190    2.9510 C.3   1401  KFZ1401     0.1433
     21  CAP      -34.8440  -15.4900    3.1720 C.2   1401  KFZ1401     0.2659
     22  OAB      -34.6130  -15.0290    4.4250 O.2   1401  KFZ1401    -0.2716
@<TRIPOS>BOND
     1    12    11    2
     2    12    15    2
     3     1     2    1
     4    10    11    1
     5    10     9    1
     6    16    15    2
     7    16    17    2
     8    11    13    2
     9    15    14    1
    10    19    18    1
    11    18    17    1
    12     2     3   ar
    13     2     8   ar
    14     9     8    1
    15    17    20    1
    16     3     4   ar
    17    13    14    1
    18     8     7   ar
    19    14    21   am
    20    20    21    1
    21     4     5   ar
    22    21    22    2
    23     7     5   ar
    24     5     6    1
