@<TRIPOS>MOLECULE
3zwv_AVU_A_1.pdb
 35 38 0 0 0
SMALL
GASTEIGER

@<TRIPOS>ATOM
      1  N1        -3.9400    2.8430  -14.2710 N.2   301  AVU301      0.0021
      2  C2        -4.2750    3.6570  -15.2910 C.3   301  AVU301      0.5254
      3  N3        -5.4440    3.5330  -15.9510 N.2   301  AVU301     -0.0055
      4  C4        -6.3270    2.5600  -15.5870 C.2   301  AVU301      0.3518
      5  C5        -6.0310    1.6860  -14.5430 C.2   301  AVU301      0.2526
      6  C6        -4.7840    1.8500  -13.8740 C.2   301  AVU301      0.4393
      7  N6        -4.3890    1.0390  -12.8430 N.pl3 301  AVU301      0.2180
      8  N7        -7.1090    0.8370  -14.4430 N.2   301  AVU301     -0.2095
      9  C8        -8.0220    1.1830  -15.3840 C.3   301  AVU301      0.3377
     10  N9        -7.5270    2.2320  -16.0660 N.pl3 301  AVU301     -0.1439
     11  PA       -13.7530    3.8790  -15.2380 P.3   301  AVU301      0.2189
     12  PB       -13.5740    1.2160  -16.2370 P.3   301  AVU301      0.2189
     13  C1'       -8.1190    3.0120  -17.1720 C.3   301  AVU301      0.3186
     14  O1A      -13.4520    4.3740  -13.8510 O.3   301  AVU301     -0.4371
     15  O1B      -13.4640    1.9250  -17.5790 O.2   301  AVU301     -0.5170
     16  C1R      -10.4190   -3.1390  -15.0510 C.3   301  AVU301      0.1801
     17  C2'       -9.0670    2.2370  -18.0510 C.3   301  AVU301      0.2570
     18  O2'       -8.5090    2.3020  -19.3580 O.3   301  AVU301     -0.2130
     19  O2A      -14.8810    4.4460  -16.0460 O.2   301  AVU301     -0.5170
     20  O2B      -14.5290    0.0550  -16.1590 O.3   301  AVU301     -0.4371
     21  C2R      -10.6170   -3.2380  -13.5540 C.3   301  AVU301      0.2229
     22  F2R       -9.4400   -2.9300  -12.9540 F     301  AVU301     -0.2317
     23  C3'      -10.3550    3.0100  -18.0850 C.3   301  AVU301      0.2184
     24  O3'      -10.4670    3.6270  -19.3910 O.3   301  AVU301     -0.2174
     25  O3A      -14.0200    2.2880  -15.1180 O.3   301  AVU301     -0.2703
     26  C3R      -11.6660   -2.1960  -13.2460 C.3   301  AVU301      0.2162
     27  O3R      -12.7580   -2.9780  -12.8360 O.3   301  AVU301     -0.2174
     28  C4'      -10.2270    4.0480  -16.9680 C.3   301  AVU301      0.1821
     29  O4'       -8.8520    4.1010  -16.6000 O.3   301  AVU301     -0.3135
     30  C4R      -11.9720   -1.4280  -14.5330 C.3   301  AVU301      0.1782
     31  O4R      -10.9600   -1.8670  -15.4260 O.3   301  AVU301     -0.3480
     32  C5'      -11.0920    3.7170  -15.7450 C.3   301  AVU301      0.1813
     33  O5'      -12.4370    3.9760  -16.1590 O.3   301  AVU301     -0.3112
     34  C5R      -11.8430    0.0960  -14.4760 C.3   301  AVU301      0.1812
     35  O5R      -12.0710    0.7730  -15.7330 O.3   301  AVU301     -0.3112
@<TRIPOS>BOND
     1    24    23    1
     2    18    17    1
     3    23    17    1
     4    23    28    1
     5    17    13    1
     6    15    12    2
     7    13    29    1
     8    13    10    1
     9    28    29    1
    10    28    32    1
    11    12    20    1
    12    12    35    1
    13    12    25    1
    14    33    32    1
    15    33    11    1
    16    10     4    1
    17    10     9    1
    18    19    11    2
    19     3     4    2
    20     3     2    1
    21    35    34    1
    22     4     5    1
    23    31    16    1
    24    31    30    1
    25     9     8    1
    26     2     1    1
    27    11    25    1
    28    11    14    1
    29    16    21    1
    30     5     8    2
    31     5     6    1
    32    30    34    1
    33    30    26    1
    34     1     6    2
    35     6     7    1
    36    21    26    1
    37    21    22    1
    38    26    27    1
