@<TRIPOS>MOLECULE
3zww_AVU_A_1.pdb
 35 38 0 0 0
SMALL
GASTEIGER

@<TRIPOS>ATOM
      1  N1        -1.9600    2.6410  -14.8590 N.2   301  AVU301      0.0021
      2  C2        -2.7760    3.1100  -15.8160 C.3   301  AVU301      0.5254
      3  N3        -3.8260    2.3730  -16.2360 N.2   301  AVU301     -0.0055
      4  C4        -4.1040    1.1420  -15.7050 C.2   301  AVU301      0.3518
      5  C5        -3.2790    0.6360  -14.7030 C.2   301  AVU301      0.2526
      6  C6        -2.1950    1.4200  -14.2940 C.2   301  AVU301      0.4393
      7  N6        -1.3770    0.9440  -13.3240 N.pl3 301  AVU301      0.2180
      8  N7        -3.7430   -0.5840  -14.3360 N.2   301  AVU301     -0.2095
      9  C8        -4.8390   -0.8210  -15.1050 C.3   301  AVU301      0.3377
     10  N9        -5.0680    0.2320  -15.9370 N.pl3 301  AVU301     -0.1439
     11  PA       -12.1360    1.2160  -16.6810 P.3   301  AVU301      0.2189
     12  PB       -11.9830   -1.6660  -17.2960 P.3   301  AVU301      0.2189
     13  C1'       -6.1880    0.3770  -16.9320 C.3   301  AVU301      0.3186
     14  O1A      -13.2530    1.4270  -17.6700 O.2   301  AVU301     -0.5170
     15  O1B      -11.8260   -1.1940  -18.7340 O.2   301  AVU301     -0.5170
     16  C1R       -8.8850   -5.7290  -15.9170 C.3   301  AVU301      0.1801
     17  C2'       -7.3160   -0.6180  -16.6620 C.3   301  AVU301      0.2570
     18  O2'       -6.9880   -1.9940  -16.9530 O.3   301  AVU301     -0.2130
     19  O2A      -12.2070    1.8690  -15.3170 O.3   301  AVU301     -0.4371
     20  O2B      -13.0530   -2.6860  -16.9620 O.3   301  AVU301     -0.4371
     21  C2R       -8.9050   -5.7470  -14.4050 C.3   301  AVU301      0.2229
     22  F2R       -7.6830   -5.2750  -13.9740 F     301  AVU301     -0.2317
     23  C3'       -8.4830    0.0040  -17.4440 C.3   301  AVU301      0.2184
     24  O3'       -8.5160   -0.2440  -18.8450 O.3   301  AVU301     -0.2174
     25  O3A      -12.1710   -0.3690  -16.3270 O.3   301  AVU301     -0.2703
     26  C3R       -9.9930   -4.7770  -14.0170 C.3   301  AVU301      0.2162
     27  O3R      -10.9810   -5.5100  -13.3290 O.3   301  AVU301     -0.2174
     28  C4'       -8.2470    1.5000  -17.4260 C.3   301  AVU301      0.1821
     29  O4'       -6.9090    1.6430  -16.8650 O.3   301  AVU301     -0.3135
     30  C4R      -10.5250   -4.1530  -15.3060 C.3   301  AVU301      0.1782
     31  O4R       -9.8520   -4.7850  -16.3890 O.3   301  AVU301     -0.3480
     32  C5'       -9.4910    2.1410  -16.7610 C.3   301  AVU301      0.1813
     33  O5'      -10.6940    1.5760  -17.3750 O.3   301  AVU301     -0.3112
     34  C5R      -10.3130   -2.6410  -15.4130 C.3   301  AVU301      0.1812
     35  O5R      -10.5450   -2.2130  -16.7710 O.3   301  AVU301     -0.3112
@<TRIPOS>BOND
     1    24    23    1
     2    15    12    2
     3    14    11    2
     4    23    28    1
     5    23    17    1
     6    28    29    1
     7    28    32    1
     8    33    32    1
     9    33    11    1
    10    12    20    1
    11    12    35    1
    12    12    25    1
    13    18    17    1
    14    13    29    1
    15    13    17    1
    16    13    10    1
    17    35    34    1
    18    11    25    1
    19    11    19    1
    20    31    16    1
    21    31    30    1
    22     3     2    1
    23     3     4    2
    24    10     4    1
    25    10     9    1
    26    16    21    1
    27     2     1    1
    28     4     5    1
    29    34    30    1
    30    30    26    1
    31     9     8    1
    32     1     6    2
    33     5     8    2
    34     5     6    1
    35    21    26    1
    36    21    22    1
    37     6     7    1
    38    26    27    1
