@<TRIPOS>MOLECULE
3zwx_AV1_A_1.pdb
 36 39 0 0 0
SMALL
GASTEIGER

@<TRIPOS>ATOM
      1 BR1         1.5570    5.6280  -14.1810 Br    1682  AV11682     0.0337
      2  O3         4.0850   -0.9890  -19.4960 O.3   1682  AV11682    -0.2703
      3  PA         3.9990    0.6340  -19.2270 P.3   1682  AV11682     0.2189
      4  PN         5.5100   -1.8360  -19.7110 P.3   1682  AV11682     0.2189
      5  C1'        4.5010    4.1670  -14.9720 C.3   1682  AV11682     0.3238
      6  N1A        5.4840    3.3590   -9.8260 N.2   1682  AV11682     0.0030
      7  O1A        2.5260    0.9150  -18.6490 O.3   1682  AV11682    -0.4371
      8  C1D        7.7320   -3.6290  -15.1080 C.3   1682  AV11682     0.1777
      9  O1N        6.3430   -1.2450  -20.7850 O.2   1682  AV11682    -0.5170
     10  C2'        5.9540    4.7220  -15.0770 C.3   1682  AV11682     0.2574
     11  O2'        5.9300    6.0920  -15.5080 O.3   1682  AV11682    -0.2130
     12  C2A        6.2340    3.0240  -10.8800 C.3   1682  AV11682     0.5255
     13  O2A        4.2690    1.3960  -20.4610 O.2   1682  AV11682    -0.5170
     14  C2D        6.5980   -4.5790  -14.6660 C.3   1682  AV11682     0.2140
     15  O2D        7.0740   -5.9440  -14.6200 O.3   1682  AV11682    -0.2176
     16  O2N        5.1320   -3.4280  -19.9800 O.3   1682  AV11682    -0.4371
     17  C3'        6.6520    3.8040  -16.1070 C.3   1682  AV11682     0.2185
     18  O3'        7.5570    4.5410  -16.9610 O.3   1682  AV11682    -0.2174
     19  N3A        5.8590    3.2840  -12.1290 N.2   1682  AV11682    -0.0039
     20  C3D        5.5370   -4.4180  -15.7780 C.3   1682  AV11682     0.2140
     21  O3D        4.9120   -5.6720  -16.1510 O.3   1682  AV11682    -0.2176
     22  C4'        5.4420    3.2170  -16.8720 C.3   1682  AV11682     0.1822
     23  O4'        4.5310    2.8950  -15.7440 O.3   1682  AV11682    -0.3132
     24  C4A        4.6830    3.9060  -12.3660 C.2   1682  AV11682     0.3694
     25  C4D        6.3380   -3.8180  -16.9550 C.3   1682  AV11682     0.1780
     26  O4D        7.7570   -3.8080  -16.5500 O.3   1682  AV11682    -0.3482
     27  C5'        5.9140    2.0930  -17.8840 C.3   1682  AV11682     0.1813
     28  O5'        5.0100    0.9630  -17.9690 O.3   1682  AV11682    -0.3112
     29  C5A        3.8760    4.2660  -11.2720 C.2   1682  AV11682     0.3071
     30  C5D        5.7900   -2.3860  -17.1520 C.3   1682  AV11682     0.1812
     31  O5D        6.3360   -1.7750  -18.3130 O.3   1682  AV11682    -0.3112
     32  C6A        4.2940    3.9800   -9.9730 C.2   1682  AV11682     0.4517
     33  N6A        3.5340    4.3170   -8.9210 N.pl3 1682  AV11682     0.2193
     34  N7A        2.7870    4.8550  -11.7380 N.2   1682  AV11682    -0.3444
     35  C8A        2.9040    4.8690  -13.0660 C.2   1682  AV11682     0.3130
     36  N9A        4.0420    4.2890  -13.4870 N.pl3 1682  AV11682    -0.1123
@<TRIPOS>BOND
     1     9     4    2
     2    13     3    2
     3    16     4    1
     4     4     2    1
     5     4    31    1
     6     2     3    1
     7     3     7    1
     8     3    28    1
     9    31    30    1
    10    28    27    1
    11    27    22    1
    12    30    25    1
    13    18    17    1
    14    25    26    1
    15    25    20    1
    16    22    17    1
    17    22    23    1
    18    26     8    1
    19    21    20    1
    20    17    10    1
    21    20    14    1
    22    23     5    1
    23    11    10    1
    24     8    14    1
    25    10     5    1
    26     5    36    1
    27    14    15    1
    28     1    35    1
    29    36    35    1
    30    36    24    1
    31    35    34    2
    32    24    19    2
    33    24    29    1
    34    19    12    1
    35    34    29    2
    36    29    32    1
    37    12     6    1
    38    32     6    2
    39    32    33    1
