@<TRIPOS>MOLECULE
3zwy_CV1_D_1.pdb
 36 40 0 0 0
SMALL
GASTEIGER

@<TRIPOS>ATOM
      1  N1        21.6850   37.3730    2.2330 N.pl3 303  CV1303     -0.1141
      2  C2        21.1210   36.2840    2.9220 C.3   303  CV1303      0.4739
      3  N3        21.7390   35.1180    2.9800 N.2   303  CV1303     -0.0091
      4  C4        22.9310   34.9060    2.3870 C.2   303  CV1303      0.3689
      5  C5        23.5540   35.9330    1.6920 C.2   303  CV1303      0.3037
      6  C6        22.9360   37.1730    1.6110 C.2   303  CV1303      0.4183
      7  N6        23.5460   38.1370    0.9380 N.2   303  CV1303      0.1966
      8  N7        24.7010   35.4700    1.2090 N.2   303  CV1303     -0.3445
      9  C8        24.7970   34.2020    1.5870 C.2   303  CV1303      0.3130
     10  N9        23.7260   33.8370    2.3150 N.pl3 303  CV1303     -0.1123
     11  PA        17.2160   32.9730    2.8430 P.3   303  CV1303      0.2189
     12  PB        16.8210   35.5580    4.1050 P.3   303  CV1303      0.2189
     13  C1'       23.4160   32.4770    2.9120 C.3   303  CV1303      0.3238
     14  O1A       17.0780   33.6430    1.5360 O.2   303  CV1303     -0.5170
     15  O1B       15.6160   35.6240    3.2560 O.2   303  CV1303     -0.5170
     16  C2'       22.8990   32.4460    4.3630 C.3   303  CV1303      0.2574
     17  O2'       23.8550   31.7570    5.2020 O.3   303  CV1303     -0.2130
     18  O2A       16.1230   32.0900    3.3100 O.3   303  CV1303     -0.4371
     19  O2B       16.6790   35.8050    5.5490 O.3   303  CV1303     -0.4371
     20  C2D       20.5590   39.0730    0.7150 C.3   303  CV1303      0.2570
     21  O2D       20.8780   40.4460    0.4430 O.3   303  CV1303     -0.2130
     22  C3'       21.5240   31.7230    4.3120 C.3   303  CV1303      0.2185
     23  O3'       21.6030   30.4010    4.8730 O.3   303  CV1303     -0.2174
     24  O3A       17.5280   34.0830    3.9910 O.3   303  CV1303     -0.2703
     25  C3D       19.0460   38.8460    0.6230 C.3   303  CV1303      0.2184
     26  O3D       18.3840   40.0310    0.1610 O.3   303  CV1303     -0.2174
     27  C4'       21.1210   31.6200    2.8220 C.3   303  CV1303      0.1822
     28  O4'       22.3440   31.8980    2.0390 O.3   303  CV1303     -0.3132
     29  C4D       18.5790   38.5180    2.0510 C.3   303  CV1303      0.1821
     30  O4D       19.7330   38.6900    2.9310 O.3   303  CV1303     -0.3135
     31  C5'       19.9140   32.5500    2.4170 C.3   303  CV1303      0.1813
     32  O5'       18.6050   32.0560    2.8590 O.3   303  CV1303     -0.3112
     33  C5D       17.9460   37.0940    2.1750 C.3   303  CV1303      0.1813
     34  O5D       17.9770   36.5460    3.5200 O.3   303  CV1303     -0.3112
     35  C1D       20.9670   38.6910    2.1610 C.3   303  CV1303      0.3206
     36 BR1        26.2990   33.1320    1.1180 Br    303  CV1303      0.0337
@<TRIPOS>BOND
     1    26    25    1
     2    21    20    1
     3    25    20    1
     4    25    29    1
     5    20    35    1
     6     7     6    2
     7    36     9    1
     8     8     9    2
     9     8     5    2
    10    14    11    2
    11     9    10    1
    12     6     5    1
    13     6     1    1
    14     5     4    1
    15    28    27    1
    16    28    13    1
    17    29    33    1
    18    29    30    1
    19    35     1    1
    20    35    30    1
    21    33    34    1
    22     1     2    1
    23    10     4    1
    24    10    13    1
    25     4     3    2
    26    31    27    1
    27    31    32    1
    28    27    22    1
    29    11    32    1
    30    11    18    1
    31    11    24    1
    32    13    16    1
    33     2     3    1
    34    15    12    2
    35    34    12    1
    36    24    12    1
    37    12    19    1
    38    22    16    1
    39    22    23    1
    40    16    17    1
