@<TRIPOS>MOLECULE
3zwy_AV1_A_1.pdb
 36 39 0 0 0
SMALL
GASTEIGER

@<TRIPOS>ATOM
      1  PA       -11.6130    1.1010  -16.3490 P.3   1682  AV11682     0.2189
      2  PN       -11.5990   -1.7040  -17.1340 P.3   1682  AV11682     0.2189
      3  N1A       -1.9790    1.6430  -13.9360 N.2   1682  AV11682     0.0030
      4  O1A      -12.4830    1.9000  -15.2700 O.3   1682  AV11682    -0.4371
      5  O1N      -11.5290   -1.5070  -18.6020 O.2   1682  AV11682    -0.5170
      6  C2A       -2.8070    1.4110  -14.9510 C.3   1682  AV11682     0.5255
      7  O2A      -11.6380    1.7790  -17.6750 O.2   1682  AV11682    -0.5170
      8  O2N      -12.4920   -3.0160  -16.7370 O.3   1682  AV11682    -0.4371
      9  O3       -12.2740   -0.4110  -16.3770 O.3   1682  AV11682    -0.2703
     10  N3A       -4.0000    1.9970  -15.0260 N.2   1682  AV11682    -0.0039
     11  C4A       -4.4110    2.8610  -14.0720 C.2   1682  AV11682     0.3694
     12  C5A       -3.5640    3.1240  -12.9990 C.2   1682  AV11682     0.3071
     13  C6A       -2.3310    2.4930  -12.9480 C.2   1682  AV11682     0.4517
     14  N6A       -1.5280    2.7450  -11.9190 N.pl3 1682  AV11682     0.2193
     15  N7A       -4.1610    3.9890  -12.1890 N.2   1682  AV11682    -0.3444
     16  C8A       -5.3430    4.2620  -12.7340 C.2   1682  AV11682     0.3130
     17  N9A       -5.5230    3.5880  -13.8810 N.pl3 1682  AV11682    -0.1123
     18  C1'       -6.7520    3.6630  -14.7690 C.3   1682  AV11682     0.3238
     19  C1D       -7.0290   -3.8180  -13.9570 C.3   1682  AV11682     0.1777
     20  C2'       -6.4140    3.8560  -16.2640 C.3   1682  AV11682     0.2574
     21  O2'       -6.4020    5.2450  -16.5940 O.3   1682  AV11682    -0.2130
     22  C2D       -8.0120   -4.7200  -13.2020 C.3   1682  AV11682     0.2140
     23  O2D       -7.8680   -6.1060  -13.5740 O.3   1682  AV11682    -0.2176
     24  C3'       -7.5560    3.1420  -16.9990 C.3   1682  AV11682     0.2185
     25  O3'       -8.3170    4.0560  -17.7970 O.3   1682  AV11682    -0.2174
     26  C3D       -9.3750   -4.1620  -13.6230 C.3   1682  AV11682     0.2140
     27  O3D      -10.3680   -5.1860  -13.6080 O.3   1682  AV11682    -0.2176
     28  C4'       -8.4250    2.5950  -15.8660 C.3   1682  AV11682     0.1822
     29  O4'       -7.5200    2.4420  -14.7470 O.3   1682  AV11682    -0.3132
     30  C4D       -9.1420   -3.6720  -15.0430 C.3   1682  AV11682     0.1780
     31  O4D       -7.6980   -3.4350  -15.1870 O.3   1682  AV11682    -0.3482
     32  C5'       -8.9440    1.2440  -16.3360 C.3   1682  AV11682     0.1813
     33  O5'      -10.1550    0.9350  -15.6570 O.3   1682  AV11682    -0.3112
     34  C5D       -9.9140   -2.3630  -15.1350 C.3   1682  AV11682     0.1812
     35  O5D      -10.1060   -1.9670  -16.5020 O.3   1682  AV11682    -0.3112
     36 BR1        -6.5820    5.4660  -11.9430 Br    1682  AV11682     0.0337
@<TRIPOS>BOND
     1     5     2    2
     2    25    24    1
     3     7     1    2
     4     2     8    1
     5     2    35    1
     6     2     9    1
     7    24    20    1
     8    24    28    1
     9    21    20    1
    10    35    34    1
    11     9     1    1
    12     1    33    1
    13     1     4    1
    14    32    28    1
    15    32    33    1
    16    20    18    1
    17    28    29    1
    18    31    30    1
    19    31    19    1
    20    34    30    1
    21    30    26    1
    22    10     6    1
    23    10    11    2
    24     6     3    1
    25    18    29    1
    26    18    17    1
    27    11    17    1
    28    11    12    1
    29    19    22    1
    30     3    13    2
    31    17    16    1
    32    26    27    1
    33    26    22    1
    34    23    22    1
    35    12    13    1
    36    12    15    2
    37    13    14    1
    38    16    15    2
    39    16    36    1
