@<TRIPOS>MOLECULE
3zx0_MO7_A_1.pdb
 31 36 0 0 0
SMALL
GASTEIGER

@<TRIPOS>ATOM
      1 MO1        36.4410    0.6870  117.5340 Mo    531  MO7531      0.0000
      2  O1        35.6680    2.2690  117.5450 O.3   531  MO7531      0.0000
      3  O2        37.5090   -1.1980  117.1230 O.3   531  MO7531      0.0000
      4  O3        38.2390    1.1760  117.9050 O.3   531  MO7531      0.0000
      5  O4        35.5570   -0.1030  118.8050 O.3   531  MO7531      0.0000
      6  O5        37.5410    1.3820  115.8060 O.3   531  MO7531      0.0000
      7 MO2        36.7180   -2.2000  118.8270 Mo    531  MO7531      0.0000
      8  O6        37.5850   -3.7000  119.0120 O.3   531  MO7531      0.0000
      9  O7        38.0740   -0.9540  119.3900 O.3   531  MO7531      0.0000
     10  O8        35.6080   -2.2120  120.1690 O.3   531  MO7531      0.0000
     11 MO3        39.3560   -0.6980  117.9210 Mo    531  MO7531      0.0000
     12  O9        39.5690    0.1060  116.1410 O.3   531  MO7531      0.0000
     13  O10       39.5830   -2.4330  117.8020 O.3   531  MO7531      0.0000
     14  O11       40.7760    0.0680  118.5240 O.3   531  MO7531      0.0000
     15 MO4        39.4010    2.0780  116.2700 Mo    531  MO7531      0.0000
     16  O12       39.5610    2.2130  114.5170 O.3   531  MO7531      0.0000
     17  O13       38.5620    3.8350  116.5970 O.3   531  MO7531      0.0000
     18  O14       40.7730    2.7730  117.0320 O.3   531  MO7531      0.0000
     19 MO5        36.8780    3.4230  115.7810 Mo    531  MO7531      0.0000
     20  O15       36.1980    4.9860  116.1390 O.3   531  MO7531      0.0000
     21  O16       37.5230    3.2970  114.1530 O.3   531  MO7531      0.0000
     22  O17       35.6290   -0.3910  116.1700 O.3   531  MO7531      0.0000
     23  O18       35.3520   -2.1660  117.4160 O.3   531  MO7531      0.0000
     24  O19       35.8350    2.0750  114.8420 O.3   531  MO7531      0.0000
     25 MO6        36.4420   -2.3920  115.7820 Mo    531  MO7531      0.0000
     26 MO7        36.5840    0.3000  114.3340 Mo    531  MO7531      0.0000
     27  O20       37.7520   -1.1520  114.9790 O.3   531  MO7531      0.0000
     28  O21       35.8990   -2.6380  114.1600 O.3   531  MO7531      0.0000
     29  O22       37.4760   -3.5550  116.5800 O.3   531  MO7531      0.0000
     30  O23       35.3420   -0.5460  113.4750 O.3   531  MO7531      0.0000
     31  O24       37.5150    0.9770  113.0050 O.3   531  MO7531      0.0000
@<TRIPOS>BOND
     1    31    26    1
     2    30    26    1
     3    21    19    1
     4    28    25    1
     5    26    24    1
     6    26    27    1
     7    26     6    1
     8    26    22    1
     9    16    15    1
    10    24    19    1
    11    27    25    1
    12    19    20    1
    13    19    17    1
    14    19     2    1
    15    25    29    1
    16    25     3    1
    17    25    23    1
    18     6    15    1
    19    12    15    1
    20    12    11    1
    21    22     1    1
    22    15    17    1
    23    15    18    1
    24     3    11    1
    25    23     7    1
    26     1     2    1
    27     1     4    1
    28     1     5    1
    29    13    11    1
    30     4    11    1
    31    11    14    1
    32    11     9    1
    33     5     7    1
    34     7     8    1
    35     7     9    1
    36     7    10    1
