@<TRIPOS>MOLECULE
3zx2_DVT_A_1.pdb
 38 48 0 0 0
SMALL
GASTEIGER

@<TRIPOS>ATOM
      1  O28       36.3410    4.4320  117.1260 O.3   531  DVT531      0.0000
      2  V10       37.0980    3.0510  116.9890 V     531  DVT531      0.0000
      3  O18       36.1340    1.9750  115.8320 O.3   531  DVT531      0.0000
      4  O15       38.2270    3.2410  115.5450 O.3   531  DVT531      0.0000
      5  V1        39.3080    1.8020  115.1800 V     531  DVT531      0.0000
      6  O5        40.1570    2.2410  113.8660 O.3   531  DVT531      0.0000
      7  O27       38.6000    3.3700  118.0850 O.3   531  DVT531      0.0000
      8  V9        39.8150    1.9990  118.2100 V     531  DVT531      0.0000
      9  O2        38.2090    0.9830  117.0360 O.3   531  DVT531      0.0000
     10  O4        40.4860    2.2860  116.5640 O.3   531  DVT531      0.0000
     11  O8        40.3970    0.0810  118.1080 O.3   531  DVT531      0.0000
     12  O26       40.8410    2.6150  119.2800 O.3   531  DVT531      0.0000
     13  O24       38.6440    1.1650  119.6250 O.3   531  DVT531      0.0000
     14  V7        39.7770   -0.4980  119.8840 V     531  DVT531      0.0000
     15  O11       40.3060   -2.1720  119.5630 O.3   531  DVT531      0.0000
     16  O25       40.6640    0.3050  120.9530 O.3   531  DVT531      0.0000
     17  O21       38.4910   -1.0790  121.0680 O.3   531  DVT531      0.0000
     18  V6        37.0250   -2.0260  120.3990 V     531  DVT531      0.0000
     19  O19       35.7660   -2.3800  119.0480 O.3   531  DVT531      0.0000
     20  O22       36.3390   -2.3580  121.8090 O.3   531  DVT531      0.0000
     21  O6        38.0500   -3.5150  120.0120 O.3   531  DVT531      0.0000
     22  V8        37.0260    0.5910  118.7910 V     531  DVT531      0.0000
     23  O20       36.2460   -0.1420  120.0740 O.3   531  DVT531      0.0000
     24  O23       36.3770    2.1250  118.6360 O.3   531  DVT531      0.0000
     25  O16       39.9790   -2.3390  116.9360 O.3   531  DVT531      0.0000
     26  V5        39.1800   -3.2860  118.5450 V     531  DVT531      0.0000
     27  O14       39.9820   -4.6730  118.3970 O.3   531  DVT531      0.0000
     28  O7        38.1160   -1.1810  118.5400 O.3   531  DVT531      0.0000
     29  V2        39.2810   -0.8050  116.7630 V     531  DVT531      0.0000
     30  O1        40.0420   -0.1110  115.4350 O.3   531  DVT531      0.0000
     31  O17       36.0080   -0.2370  117.3650 O.3   531  DVT531      0.0000
     32  V4        36.4800   -2.1780  117.4340 V     531  DVT531      0.0000
     33  O13       37.6340   -3.5790  117.4840 O.3   531  DVT531      0.0000
     34  O12       35.4010   -2.7980  116.4130 O.3   531  DVT531      0.0000
     35  O9        37.6550   -1.4040  116.0290 O.3   531  DVT531      0.0000
     36  V3        36.6950    0.3010  115.5760 V     531  DVT531      0.0000
     37  O3        37.9230    0.8560  114.3600 O.3   531  DVT531      0.0000
     38  O10       35.6250   -0.3690  114.5570 O.3   531  DVT531      0.0000
@<TRIPOS>BOND
     1     6     5    1
     2    37     5    1
     3    37    36    1
     4    38    36    1
     5     5    30    1
     6     5     4    1
     7     5    10    1
     8    30    29    1
     9     4     2    1
    10    36     3    1
    11    36    31    1
    12     3     2    1
    13    35    29    1
    14    35    32    1
    15    34    32    1
    16    10     8    1
    17    29    25    1
    18    29     9    1
    19    29    11    1
    20    29    28    1
    21    25    26    1
    22     2     1    1
    23     2     7    1
    24     2    24    1
    25     9    22    1
    26    31    22    1
    27    32    33    1
    28    32    19    1
    29    33    26    1
    30     7     8    1
    31    11    14    1
    32     8    12    1
    33     8    13    1
    34    27    26    1
    35    28    22    1
    36    26    15    1
    37    26    21    1
    38    24    22    1
    39    22    13    1
    40    22    23    1
    41    19    18    1
    42    15    14    1
    43    14    16    1
    44    14    17    1
    45    21    18    1
    46    23    18    1
    47    18    17    1
    48    18    20    1
