@<TRIPOS>MOLECULE
3zx4_2M8_A_1.pdb
 18 18 0 0 0
SMALL
GASTEIGER

@<TRIPOS>ATOM
      1  C1        28.3230   55.5680   -0.1750 C.3   262  2M8262      0.2700
      2  O3A       28.2180   55.6820   -1.5910 O.3   262  2M8262     -0.3169
      3  C22       27.3240   54.7310   -2.1760 C.3   262  2M8262      0.2529
      4  C23       27.4190   54.8650   -3.6890 C.3   262  2M8262      0.2232
      5  O13       26.8940   56.1450   -4.0610 O.3   262  2M8262     -0.2171
      6  C21       25.9060   54.9850   -1.7470 C.2   262  2M8262      0.3941
      7  O1A       25.6200   56.0630   -1.1930 O.co2 262  2M8262     -0.2429
      8  O1B       25.0240   54.1940   -2.1350 O.co2 262  2M8262     -0.2429
      9  C2        29.5530   56.3410    0.2760 C.3   262  2M8262      0.2406
     10  O2        29.5020   56.4270    1.6970 O.3   262  2M8262     -0.2149
     11  C3        30.8250   55.6450   -0.1820 C.3   262  2M8262      0.2198
     12  O3        31.9340   56.3390    0.3950 O.3   262  2M8262     -0.2174
     13  C4        30.8300   54.1870    0.2690 C.3   262  2M8262      0.2144
     14  O4        31.9270   53.4740   -0.3130 O.3   262  2M8262     -0.2176
     15  C5        29.5610   53.4790   -0.1750 C.3   262  2M8262      0.1835
     16  C6        29.5230   52.0820    0.4360 C.3   262  2M8262      0.2142
     17  O6        28.4740   51.3450   -0.1910 O.3   262  2M8262     -0.2176
     18  O5        28.4000   54.1990    0.2340 O.3   262  2M8262     -0.3256
@<TRIPOS>BOND
     1     5     4    1
     2     4     3    1
     3     3     6    1
     4     3     2    1
     5     8     6   ar
     6     6     7   ar
     7     2     1    1
     8    14    13    1
     9    17    16    1
    10    11    13    1
    11    11     9    1
    12    11    12    1
    13     1    18    1
    14     1     9    1
    15    15    18    1
    16    15    13    1
    17    15    16    1
    18     9    10    1
