@<TRIPOS>MOLECULE
3zx5_2M8_A_1.pdb
 18 18 0 0 0
SMALL
GASTEIGER

@<TRIPOS>ATOM
      1  C1        28.6960   55.6040   -0.2810 C.3   262  2M8262      0.2700
      2  O3A       28.6920   55.8390   -1.6940 O.3   262  2M8262     -0.3169
      3  C22       27.7900   55.0190   -2.4540 C.3   262  2M8262      0.2529
      4  C23       27.9620   55.3800   -3.9370 C.3   262  2M8262      0.2232
      5  O13       27.0160   54.6490   -4.7310 O.3   262  2M8262     -0.2171
      6  C21       26.3570   55.1990   -2.0090 C.2   262  2M8262      0.3941
      7  O1A       25.8920   56.3470   -1.8590 O.co2 262  2M8262     -0.2429
      8  O1B       25.6010   54.2130   -2.0990 O.co2 262  2M8262     -0.2429
      9  C2        29.9020   56.3270    0.3240 C.3   262  2M8262      0.2406
     10  O2        29.8610   56.2760    1.7590 O.3   262  2M8262     -0.2149
     11  C3        31.1950   55.6930   -0.1790 C.3   262  2M8262      0.2198
     12  O3        32.3120   56.3450    0.4190 O.3   262  2M8262     -0.2174
     13  C4        31.1930   54.2200    0.2010 C.3   262  2M8262      0.2144
     14  O4        32.3160   53.5600   -0.3720 O.3   262  2M8262     -0.2176
     15  C5        29.9590   53.5070   -0.3210 C.3   262  2M8262      0.1835
     16  C6        29.9270   52.0820    0.2400 C.3   262  2M8262      0.2142
     17  O6        28.9830   51.3140   -0.5080 O.3   262  2M8262     -0.2176
     18  O5        28.7410   54.1970   -0.0130 O.3   262  2M8262     -0.3256
@<TRIPOS>BOND
     1     5     4    1
     2     4     3    1
     3     3     6    1
     4     3     2    1
     5     8     6   ar
     6     6     7   ar
     7     2     1    1
     8    17    16    1
     9    14    13    1
    10    15    18    1
    11    15    13    1
    12    15    16    1
    13     1    18    1
    14     1     9    1
    15    11    13    1
    16    11     9    1
    17    11    12    1
    18     9    10    1
