@<TRIPOS>MOLECULE
3zx7_PC_A_1.pdb
 11 10 0 0 0
SMALL
GASTEIGER

@<TRIPOS>ATOM
      1  P1        -7.0810   20.8080   -2.4970 P.3   900  PC900       0.5325
      2  O1        -7.0310   19.2020   -2.5780 O.3   900  PC900      -0.1145
      3  O3        -7.5430   21.1870   -1.1500 O.3   900  PC900      -0.1145
      4  O4        -8.1100   21.3830   -3.5880 O.2   900  PC900      -0.2224
      5  O2        -5.6130   21.4460   -2.7530 O.3   900  PC900      -0.2725
      6  C1        -5.7810   22.8660   -2.7250 C.3   900  PC900       0.1317
      7  C2        -4.4500   23.5750   -3.0110 C.3   900  PC900      -0.0401
      8  N1        -4.5810   24.4970   -4.1700 N.4   900  PC900       0.3874
      9  C3        -5.9650   24.5440   -4.6500 C.3   900  PC900      -0.0959
     10  C4        -4.1200   25.8370   -3.8340 C.3   900  PC900      -0.0959
     11  C5        -3.7390   23.9960   -5.2550 C.3   900  PC900      -0.0959
@<TRIPOS>BOND
     1    11     8    1
     2     9     8    1
     3     8    10    1
     4     8     7    1
     5     4     1    2
     6     7     6    1
     7     5     6    1
     8     5     1    1
     9     2     1    1
    10     1     3    1
