@<TRIPOS>MOLECULE
3zxe_PGZ_A_1.pdb
 33 35 0 0 0
SMALL
GASTEIGER

@<TRIPOS>ATOM
      1  O1B       -7.8170   23.8950  -32.6870 O.2     1  PGZ1       -0.2684
      2  C1B       -6.9850   23.1560  -33.2010 C.2     1  PGZ1        0.2649
      3  C5B       -7.4620   21.8590  -33.8000 C.ar    1  PGZ1        0.0550
      4  C6B       -8.6970   21.3100  -33.4280 C.ar    1  PGZ1        0.0042
      5  C7B       -9.1310   20.1100  -33.9980 C.ar    1  PGZ1       -0.0041
      6  C2B       -8.3340   19.4610  -34.9430 C.ar    1  PGZ1       -0.0218
      7  C8B       -8.7880   18.1620  -35.5730 C.3     1  PGZ1        0.0310
      8  C3B       -7.1080   20.0080  -35.3160 C.ar    1  PGZ1       -0.0041
      9  C4B       -6.6740   21.2030  -34.7460 C.ar    1  PGZ1        0.0042
     10  N1B       -5.6870   23.4870  -33.2510 N.am    1  PGZ1       -0.1981
     11  C3A       -5.2170   24.7510  -32.6800 C.3     1  PGZ1        0.1591
     12  C4A       -4.0970   24.4490  -31.6800 C.3     1  PGZ1        0.2038
     13  O4A       -3.0540   23.6370  -32.2430 O.3     1  PGZ1       -0.2185
     14  C2D       -3.4850   25.7760  -31.2610 C.3     1  PGZ1        0.1812
     15  C6A       -2.4080   25.5820  -30.2110 C.3     1  PGZ1        0.2141
     16  O6A       -2.1080   26.8740  -29.6950 O.3     1  PGZ1       -0.2176
     17  O5A       -2.9300   26.4050  -32.4260 O.3     1  PGZ1       -0.3399
     18  C1A       -3.9740   26.8550  -33.2920 C.3     1  PGZ1        0.1918
     19  S1D       -3.2920   27.8930  -34.5580 S.3     1  PGZ1       -0.1086
     20  C1D       -2.4130   26.9410  -35.7580 C.3     1  PGZ1        0.0716
     21  C2A       -4.7530   25.6490  -33.8360 C.3     1  PGZ1        0.1815
     22  O4P       -5.9120   26.1230  -34.5170 O.3     1  PGZ1       -0.3113
     23  P         -6.1530   25.9770  -36.1050 P.3     1  PGZ1        0.2144
     24  O3P       -7.6460   25.7870  -36.2980 O.3     1  PGZ1       -0.4373
     25  O2P       -5.1700   25.0110  -36.7230 O.2     1  PGZ1       -0.5172
     26  O1P       -5.8440   27.4680  -36.6560 O.3     1  PGZ1       -0.3092
     27  C1C       -5.5420   27.7090  -38.0340 C.3     1  PGZ1        0.1756
     28  C5C       -6.7780   28.1220  -38.8060 C.ar    1  PGZ1        0.0077
     29  C6C       -7.7010   29.0200  -38.2580 C.ar    1  PGZ1       -0.0018
     30  C7C       -8.8320   29.3890  -38.9910 C.ar    1  PGZ1       -0.0002
     31  C2C       -9.0390   28.8630  -40.2710 C.ar    1  PGZ1       -0.0000
     32  C4C       -6.9860   27.5990  -40.0860 C.ar    1  PGZ1       -0.0018
     33  C3C       -8.1160   27.9690  -40.8210 C.ar    1  PGZ1       -0.0002
@<TRIPOS>BOND
     1    33    31   ar
     2    33    32   ar
     3    31    30   ar
     4    32    28   ar
     5    30    29   ar
     6    28    29   ar
     7    28    27    1
     8    27    26    1
     9    25    23    2
    10    26    23    1
    11    24    23    1
    12    23    22    1
    13    20    19    1
    14     7     6    1
    15     8     6   ar
    16     8     9   ar
    17     6     5   ar
    18     9     3   ar
    19    19    18    1
    20    22    21    1
    21     5     4   ar
    22    21    18    1
    23    21    11    1
    24     3     4   ar
    25     3     2    1
    26    18    17    1
    27    10     2   am
    28    10    11    1
    29     2     1    2
    30    11    12    1
    31    17    14    1
    32    13    12    1
    33    12    14    1
    34    14    15    1
    35    15    16    1
