@<TRIPOS>MOLECULE
3zxg_0SM_A_1.pdb
 36 35 0 0 0
SMALL
GASTEIGER

@<TRIPOS>ATOM
      1  C1        -5.8570  -35.4480   10.0490 C.3   943  0SM943      0.1732
      2  C3        -4.2240  -38.4390   10.7090 C.3   943  0SM943      0.0374
      3  C4        -0.9750  -34.0620    9.9790 C.3   943  0SM943      0.1271
      4  C5        -0.2890  -32.7800    9.4510 C.3   943  0SM943     -0.0402
      5  C6         1.8990  -31.8440   10.0140 C.3   943  0SM943     -0.0959
      6  C7         1.5200  -32.5210    7.7620 C.3   943  0SM943     -0.0959
      7  C8         1.7020  -34.1560    9.4820 C.3   943  0SM943     -0.0959
      8  C11       -8.8490  -37.5380   10.0910 C.2   943  0SM943      0.2415
      9  C12       -9.3370  -38.7890   10.8760 C.3   943  0SM943      0.0868
     10  C13      -10.5100  -39.4640   10.1640 C.3   943  0SM943      0.0096
     11  C14      -11.5600  -40.0420   11.1100 C.3   943  0SM943      0.0005
     12  C15      -12.3520  -41.1380   10.3900 C.3   943  0SM943      0.0000
     13  C16      -13.8070  -40.7380   10.1600 C.3   943  0SM943      0.0000
     14  C17      -14.7340  -41.3110   11.2390 C.3   943  0SM943      0.0000
     15  C18      -15.1510  -42.7390   10.8890 C.3   943  0SM943      0.0000
     16  C19      -16.2050  -43.3290   11.8530 C.3   943  0SM943      0.0000
     17  C20      -17.2270  -44.1080   11.0240 C.3   943  0SM943      0.0000
     18  C21      -17.8270  -45.3270   11.7450 C.3   943  0SM943      0.0000
     19  C22      -19.3160  -45.1710   12.0910 C.3   943  0SM943      0.0000
     20  C23      -20.0040  -46.5390   12.0420 C.3   943  0SM943      0.0000
     21  C24      -20.8890  -46.7630   13.2650 C.3   943  0SM943      0.0000
     22  C25      -20.1930  -47.7270   14.2300 C.3   943  0SM943      0.0000
     23  C26      -20.4810  -47.4140   15.7110 C.3   943  0SM943      0.0000
     24  C27      -21.8060  -48.0470   16.1560 C.3   943  0SM943      0.0000
     25  C28      -22.3890  -47.2990   17.3500 C.3   943  0SM943      0.0000
     26  N          1.1730  -32.8070    9.1610 N.4   943  0SM943      0.3874
     27  O2        -6.1580  -38.6170   12.1190 O.3   943  0SM943     -0.2212
     28  O11       -9.4700  -37.1790    9.0910 O.2   943  0SM943     -0.2733
     29  O1P       -2.4650  -36.3540   10.9140 O.2   943  0SM943     -0.5172
     30  O2P       -3.9390  -34.6580   12.0940 O.3   943  0SM943     -0.4373
     31  O3P       -4.4730  -35.3130    9.6740 O.3   943  0SM943     -0.3121
     32  NBQ       -7.8020  -36.8040   10.5150 N.am  943  0SM943     -0.2020
     33  O4P       -2.3680  -33.8220   10.2120 O.3   943  0SM943     -0.3163
     34  CBV       -6.3200  -36.9060   10.2850 C.3   943  0SM943      0.1554
     35  P         -3.3340  -34.9980   10.7780 P.3   943  0SM943      0.2140
     36  CBU       -5.4190  -37.6790   11.3050 C.3   943  0SM943      0.1744
@<TRIPOS>BOND
     1     6    26    1
     2    28     8    2
     3    26     4    1
     4    26     7    1
     5    26     5    1
     6     4     3    1
     7    31     1    1
     8    31    35    1
     9     3    33    1
    10     1    34    1
    11     8    32   am
    12     8     9    1
    13    13    12    1
    14    13    14    1
    15    10     9    1
    16    10    11    1
    17    33    35    1
    18    34    32    1
    19    34    36    1
    20    12    11    1
    21     2    36    1
    22    35    29    2
    23    35    30    1
    24    15    14    1
    25    15    16    1
    26    17    18    1
    27    17    16    1
    28    36    27    1
    29    18    19    1
    30    20    19    1
    31    20    21    1
    32    21    22    1
    33    22    23    1
    34    23    24    1
    35    24    25    1
