@<TRIPOS>MOLECULE
3zxh_E41_A_1.pdb
 27 28 0 0 0
SMALL
GASTEIGER

@<TRIPOS>ATOM
      1  O1        -2.5380   24.5660   54.7530 O.3   401  E41401     -0.4026
      2  N1        -2.6630   25.3820   55.8810 N.am  401  E41401     -0.2016
      3  N         -3.0270   28.7710   56.7250 N.3   401  E41401     -0.1509
      4  CA        -2.2750   27.5360   56.9150 C.3   401  E41401      0.1243
      5  C         -2.2940   26.6300   55.6900 C.2   401  E41401      0.1029
      6  O         -1.9050   27.0110   54.5560 O.2   401  E41401     -0.5381
      7  CB        -0.8190   27.8130   57.3380 C.3   401  E41401      0.0225
      8  CG1       -0.7500   28.4810   58.7200 C.3   401  E41401      0.0019
      9  CG2        0.0630   26.5620   57.3490 C.3   401  E41401      0.0019
     10  S1        -4.6790   28.6660   57.0250 S.O2  401  E41401      0.0636
     11  O3        -4.8620   27.8000   58.1900 O.2   401  E41401     -0.1528
     12  O4        -5.1770   30.0400   57.0660 O.2   401  E41401     -0.1528
     13  C6        -5.4510   27.8640   55.6480 C.ar  401  E41401      0.1222
     14  C7        -5.6550   26.4900   55.7170 C.ar  401  E41401      0.0199
     15  C8        -6.2110   25.8260   54.6260 C.ar  401  E41401      0.0014
     16  C9        -5.8250   28.6290   54.5380 C.ar  401  E41401      0.0199
     17  C10       -6.3970   27.9610   53.4420 C.ar  401  E41401      0.0013
     18  C11       -6.5850   26.5460   53.4820 C.ar  401  E41401      0.0001
     19  C12       -7.1840   25.9090   52.3790 C.ar  401  E41401      0.0000
     20  C13       -7.5470   26.6330   51.2340 C.ar  401  E41401      0.0000
     21  C14       -7.3590   28.0110   51.1940 C.ar  401  E41401      0.0000
     22  C15       -6.7610   28.6910   52.2670 C.ar  401  E41401      0.0000
     23  C16       -2.2080   31.1040   56.3350 C.3   401  E41401      0.0192
     24  C17       -1.8120   32.0820   55.2310 C.3   401  E41401      0.0014
     25  C18       -2.6110   29.7590   55.7110 C.3   401  E41401      0.0962
     26  C19       -1.8830   33.5310   55.7510 C.3   401  E41401      0.0000
     27  C20       -0.4220   31.6960   54.7080 C.3   401  E41401      0.0000
@<TRIPOS>BOND
     1    21    20   ar
     2    21    22   ar
     3    20    19   ar
     4    22    17   ar
     5    19    18   ar
     6    17    18   ar
     7    17    16   ar
     8    18    15   ar
     9    16    13   ar
    10     6     5    2
    11    15    14   ar
    12    27    24    1
    13     1     2    1
    14    24    26    1
    15    24    23    1
    16    13    14   ar
    17    13    10    1
    18     5     2   am
    19     5     4    1
    20    25    23    1
    21    25     3    1
    22     3     4    1
    23     3    10    1
    24     4     7    1
    25    10    12    2
    26    10    11    2
    27     7     9    1
    28     7     8    1
