@<TRIPOS>MOLECULE
3zxi_TYA_A_1.pdb
 34 37 0 0 0
SMALL
GASTEIGER

@<TRIPOS>ATOM
      1  OPP       -0.4920    3.4470   26.4160 O.3   1374  TYA1374    -0.3125
      2  P         -1.4620    2.3930   25.7430 P.3   1374  TYA1374     0.2141
      3  O1P       -2.8480    3.1140   25.3460 O.2   1374  TYA1374    -0.5172
      4  O2P       -1.7250    1.1880   26.6560 O.3   1374  TYA1374    -0.4373
      5  O5'       -0.6750    1.9720   24.4280 O.3   1374  TYA1374    -0.3114
      6  C5'       -1.2610    2.1470   23.1500 C.3   1374  TYA1374     0.1813
      7  C4'       -0.3570    2.9150   22.2260 C.3   1374  TYA1374     0.1821
      8  O4'       -1.1610    3.5080   21.1810 O.3   1374  TYA1374    -0.3135
      9  C3'        0.3810    4.0700   22.8700 C.3   1374  TYA1374     0.2184
     10  O3'        1.5270    4.3880   22.0810 O.3   1374  TYA1374    -0.2174
     11  C2'       -0.6470    5.1950   22.7650 C.3   1374  TYA1374     0.2570
     12  O2'       -0.1110    6.5000   22.8280 O.3   1374  TYA1374    -0.2130
     13  C1'       -1.2930    4.9060   21.4070 C.3   1374  TYA1374     0.3186
     14  N9        -2.7150    5.2420   21.3340 N.pl3 1374  TYA1374    -0.1439
     15  C8        -3.7160    4.8780   22.1620 C.3   1374  TYA1374     0.3377
     16  N7        -4.8730    5.3880   21.6970 N.2   1374  TYA1374    -0.2095
     17  C5        -4.5980    6.0620   20.5410 C.2   1374  TYA1374     0.2526
     18  C6        -5.3650    6.7910   19.6170 C.2   1374  TYA1374     0.4393
     19  N6        -6.7600    6.9270   19.7950 N.pl3 1374  TYA1374     0.2180
     20  N1        -4.7450    7.3580   18.5670 N.2   1374  TYA1374     0.0021
     21  C2        -3.4210    7.2260   18.3850 C.3   1374  TYA1374     0.5254
     22  N3        -2.6390    6.5350   19.2430 N.2   1374  TYA1374    -0.0055
     23  C4        -3.2210    5.9580   20.3140 C.2   1374  TYA1374     0.3518
     24  NH2        2.6420    3.3780   27.9400 N.3   1374  TYA1374    -0.1299
     25  CA         1.7810    2.7380   26.9400 C.3   1374  TYA1374     0.1261
     26  C          0.3330    3.0160   27.3280 C.3   1374  TYA1374     0.1683
     27  CB         2.1020    1.2530   26.8530 C.3   1374  TYA1374     0.0479
     28  CG         3.6000    0.9150   27.1310 C.ar  1374  TYA1374    -0.0204
     29  CD1        3.9290   -0.0860   28.0210 C.ar  1374  TYA1374    -0.0009
     30  CD2        4.6180    1.6350   26.4910 C.ar  1374  TYA1374    -0.0009
     31  CE1        5.2650   -0.3690   28.2620 C.ar  1374  TYA1374     0.0417
     32  CE2        5.9450    1.3460   26.7270 C.ar  1374  TYA1374     0.0417
     33  CZ         6.2700    0.3390   27.6260 C.ar  1374  TYA1374     0.1957
     34  OH         7.5710    0.0350   27.8850 O.3   1374  TYA1374    -0.2866
@<TRIPOS>BOND
     1    21    20    1
     2    21    22    1
     3    20    18    2
     4    22    23    2
     5    18    19    1
     6    18    17    1
     7    23    17    1
     8    23    14    1
     9    17    16    2
    10     8    13    1
    11     8     7    1
    12    14    13    1
    13    14    15    1
    14    13    11    1
    15    16    15    1
    16    10     9    1
    17     7     9    1
    18     7     6    1
    19    11    12    1
    20    11     9    1
    21     6     5    1
    22     5     2    1
    23     3     2    2
    24     2     1    1
    25     2     4    1
    26     1    26    1
    27    30    32   ar
    28    30    28   ar
    29    32    33   ar
    30    27    25    1
    31    27    28    1
    32    25    26    1
    33    25    24    1
    34    28    29   ar
    35    33    34    1
    36    33    31   ar
    37    29    31   ar
