@<TRIPOS>MOLECULE
3zxk_XYP_A_2.pdb
 10 10 0 0 0
SMALL
GASTEIGER

@<TRIPOS>ATOM
      1  O4A       15.2940    6.4120   19.0020 O.3   1561  XYP1561    -0.1869
      2  C1B       14.6960    7.4780   18.2410 C.3   1561  XYP1561     0.3024
      3  C2B       15.5640    7.7380   17.0110 C.3   1561  XYP1561     0.2434
      4  C3B       14.8680    8.7270   16.0720 C.3   1561  XYP1561     0.2199
      5  C4B       13.4720    8.2050   15.7230 C.3   1561  XYP1561     0.2143
      6  C5B       12.6720    8.0520   17.0120 C.3   1561  XYP1561     0.1804
      7  O2B       16.8510    8.2230   17.4090 O.3   1561  XYP1561    -0.2148
      8  O3B       15.6500    8.8900   14.8870 O.3   1561  XYP1561    -0.2174
      9  O4B       12.7800    9.0480   14.7900 O.3   1561  XYP1561    -0.2176
     10  O5B       13.3600    7.1090   17.8500 O.3   1561  XYP1561    -0.3237
@<TRIPOS>BOND
     1     9     5    1
     2     8     4    1
     3     5     4    1
     4     5     6    1
     5     4     3    1
     6     3     7    1
     7     3     2    1
     8     6    10    1
     9    10     2    1
    10     2     1    1
