@<TRIPOS>MOLECULE
3zxr_P3S_A_1.pdb
 15 14 0 0 0
SMALL
GASTEIGER

@<TRIPOS>ATOM
      1  O3A      -24.5670   82.5620   21.0360 O.3   505  P3S505     -0.1237
      2  PA       -23.1420   82.4370   21.5310 P.3   505  P3S505      0.4896
      3  O1A      -22.4450   83.7230   21.6580 O.3   505  P3S505     -0.1237
      4  O2A      -22.2970   81.3850   20.8370 O.2   505  P3S505     -0.2328
      5  NE       -23.3540   81.7910   23.0900 N.3   505  P3S505     -0.0523
      6  SD       -22.8790   82.4460   24.3740 S.3   505  P3S505      0.0022
      7  OE       -23.5730   83.6880   24.5310 O.3   505  P3S505     -0.1552
      8  CE       -21.2570   82.8160   24.3810 C.3   505  P3S505      0.0974
      9  CG       -23.2090   81.4590   25.6880 C.3   505  P3S505      0.0859
     10  CB       -24.6140   80.8430   25.6790 C.3   505  P3S505      0.0443
     11  CA       -24.8960   79.9410   26.9090 C.3   505  P3S505      0.1953
     12  N        -24.0790   78.7140   26.9090 N.3   505  P3S505     -0.1208
     13  C        -26.3520   79.5140   27.0010 C.2   505  P3S505      0.3819
     14  OT       -27.1650   79.7200   26.0620 O.co2 505  P3S505     -0.2441
     15  O        -26.6860   78.8910   28.0130 O.co2 505  P3S505     -0.2441
@<TRIPOS>BOND
     1     4     2    2
     2     1     2    1
     3     2     3    1
     4     2     5    1
     5     5     6    1
     6     6     8    1
     7     6     7    1
     8     6     9    1
     9    10     9    1
    10    10    11    1
    11    14    13   ar
    12    11    12    1
    13    11    13    1
    14    13    15   ar
