@<TRIPOS>MOLECULE
3zxr_IQ1_A_1.pdb
 25 28 0 0 0
SMALL
GASTEIGER

@<TRIPOS>ATOM
      1  C25      -25.1500   78.9470   12.0890 C.3   501  IQ1501      0.0170
      2  C22      -25.7470   80.2150   12.6800 C.3   501  IQ1501      0.0954
      3  C23      -24.6260   81.0790   13.2520 C.3   501  IQ1501      0.0170
      4  C24      -26.7140   79.8030   13.7790 C.3   501  IQ1501      0.0170
      5  C2       -26.4860   80.9790   11.6070 C.1   501  IQ1501      0.1113
      6  N3       -25.9240   81.6810   10.6310 N.2   501  IQ1501     -0.3410
      7  N1       -27.7950   81.0680   11.4600 N.2   501  IQ1501     -0.3411
      8  C5       -28.0940   81.8470   10.3550 C.2   501  IQ1501      0.1738
      9  C6       -29.4260   82.0170    9.8620 C.ar  501  IQ1501      0.0362
     10  C7       -30.4420   81.1920   10.3490 C.ar  501  IQ1501      0.0233
     11  C8       -31.7520   81.3570    9.8920 C.ar  501  IQ1501      0.0990
     12  N9       -32.0340   82.3050    8.9780 N.ar  501  IQ1501     -0.2423
     13  C10      -31.0840   83.1150    8.4850 C.ar  501  IQ1501      0.0990
     14  C11      -29.7670   82.9910    8.9200 C.ar  501  IQ1501      0.0233
     15  C4       -26.8910   82.2490    9.8230 C.2   501  IQ1501      0.1752
     16  C12      -26.6020   83.1770    8.8000 C.ar  501  IQ1501      0.0523
     17  C13      -25.6180   84.1630    8.9750 C.ar  501  IQ1501      0.1014
     18  N14      -25.3300   85.0540    8.0050 N.ar  501  IQ1501     -0.2438
     19  C15      -25.9660   85.0290    6.8180 C.ar  501  IQ1501      0.0813
     20  C16      -25.6420   85.9600    5.8230 C.ar  501  IQ1501      0.0191
     21  C21      -27.2630   83.1400    7.5670 C.ar  501  IQ1501      0.0057
     22  C20      -26.9540   84.0670    6.5730 C.ar  501  IQ1501      0.0178
     23  C19      -27.6240   84.0350    5.3450 C.ar  501  IQ1501      0.0015
     24  C18      -27.3010   84.9660    4.3540 C.ar  501  IQ1501      0.0001
     25  C17      -26.3130   85.9290    4.5950 C.ar  501  IQ1501      0.0015
@<TRIPOS>BOND
     1    24    25   ar
     2    24    23   ar
     3    25    20   ar
     4    23    22   ar
     5    20    19   ar
     6    22    19   ar
     7    22    21   ar
     8    19    18   ar
     9    21    16   ar
    10    18    17   ar
    11    13    14   ar
    12    13    12   ar
    13    16    17   ar
    14    16    15    1
    15    14     9   ar
    16    12    11   ar
    17    15     8    1
    18    15     6    2
    19     9    10   ar
    20     9     8    1
    21    11    10   ar
    22     8     7    2
    23     6     5    2
    24     7     5    2
    25     5     2    1
    26     1     2    1
    27     2     3    1
    28     2     4    1
