@<TRIPOS>MOLECULE
3zxs_DLZ_A_1.pdb
 23 24 0 0 0
SMALL
GASTEIGER

@<TRIPOS>ATOM
      1  C7        31.1520   51.3130  284.4410 C.3   1511  DLZ1511     0.0288
      2  C7A       32.2600   50.2910  284.4770 C.3   1511  DLZ1511     0.1233
      3  C5A       33.3400   50.5320  285.3180 C.2   1511  DLZ1511     0.1061
      4  C6        33.3930   51.8020  286.1230 C.3   1511  DLZ1511     0.0633
      5  N5        34.3460   49.6320  285.3490 N.2   1511  DLZ1511    -0.3925
      6  C4A       34.2650   48.5150  284.5760 C.2   1511  DLZ1511     0.2697
      7  C4        35.2820   47.5820  284.6050 C.1   1511  DLZ1511     0.2513
      8  O4        36.2570   47.8230  285.3290 O.2   1511  DLZ1511    -0.2057
      9  N3        35.2100   46.4440  283.8750 N.2   1511  DLZ1511    -0.2300
     10  C2        34.1180   46.2230  283.1180 C.1   1511  DLZ1511     0.3669
     11  O2        34.0930   45.1500  282.4710 O.2   1511  DLZ1511    -0.1744
     12  N1        33.0840   47.1140  283.0510 N.2   1511  DLZ1511    -0.2890
     13  C8        33.1620   48.2550  283.7610 C.2   1511  DLZ1511     0.2413
     14  N8        32.1990   49.1710  283.7190 N.pl3 1511  DLZ1511    -0.2730
     15  C1'       31.0620   48.9000  282.8720 C.3   1511  DLZ1511     0.1291
     16  C2'       31.4370   49.0370  281.3930 C.3   1511  DLZ1511     0.2044
     17  O2'       32.0180   50.3390  281.2270 O.3   1511  DLZ1511    -0.2185
     18  C3'       30.1500   48.7560  280.5450 C.3   1511  DLZ1511     0.2166
     19  O3'       30.0600   47.5760  279.7040 O.3   1511  DLZ1511    -0.2175
     20  C4'       29.8810   49.9190  279.6480 C.3   1511  DLZ1511     0.2175
     21  O4'       30.0400   51.1260  280.4600 O.3   1511  DLZ1511    -0.2175
     22  C5'       28.4630   49.6530  279.0610 C.3   1511  DLZ1511     0.2175
     23  O5'       28.1300   48.2980  278.6600 O.3   1511  DLZ1511    -0.2175
@<TRIPOS>BOND
     1    23    22    1
     2    22    20    1
     3    20    21    1
     4    20    18    1
     5    19    18    1
     6    18    16    1
     7    17    16    1
     8    16    15    1
     9    11    10    2
    10    15    14    1
    11    12    10    2
    12    12    13    2
    13    10     9    2
    14    14    13    1
    15    14     2    1
    16    13     6    1
    17     9     7    2
    18     1     2    1
    19     2     3    1
    20     6     7    1
    21     6     5    2
    22     7     8    2
    23     3     5    2
    24     3     4    1
