@<TRIPOS>MOLECULE
3zxt_ACP_A_1.pdb
 31 33 0 0 0
SMALL
GASTEIGER

@<TRIPOS>ATOM
      1  PG        74.9980   18.6850   47.9050 P.3   1277  ACP1277     0.1295
      2  O1G       75.9580   19.9320   47.5070 O.2   1277  ACP1277    -0.4595
      3  O2G       75.9190   17.5180   48.5600 O.3   1277  ACP1277    -0.3567
      4  O3G       73.9480   19.1130   48.8910 O.3   1277  ACP1277    -0.3567
      5  PB        74.2480   16.3110   46.4200 P.3   1277  ACP1277     0.3815
      6  O1B       73.4280   15.9100   47.6470 O.3   1277  ACP1277    -0.1391
      7  O2B       75.8250   15.8880   46.4920 O.2   1277  ACP1277    -0.2547
      8  C3B       74.1780   18.1140   46.3590 C.3   1277  ACP1277     0.1768
      9  PA        72.1530   15.6070   45.0790 P.3   1277  ACP1277     0.2209
     10  O1A       71.6410   15.1690   46.4540 O.3   1277  ACP1277    -0.4371
     11  O2A       71.7950   16.9860   44.5210 O.2   1277  ACP1277    -0.5170
     12  O3A       73.7240   15.5650   45.0890 O.3   1277  ACP1277    -0.2483
     13  O5'       71.5350   14.6100   44.1010 O.3   1277  ACP1277    -0.3111
     14  C5'       70.1200   14.7770   44.4500 C.3   1277  ACP1277     0.1813
     15  C4'       69.3590   16.1580   44.5040 C.3   1277  ACP1277     0.1821
     16  O4'       69.4110   16.8470   43.2460 O.3   1277  ACP1277    -0.3135
     17  C3'       67.8610   15.8400   44.6790 C.3   1277  ACP1277     0.2184
     18  O3'       67.1170   16.5320   45.7080 O.3   1277  ACP1277    -0.2174
     19  C2'       67.2050   16.0240   43.3190 C.3   1277  ACP1277     0.2570
     20  O2'       66.1050   16.9180   43.3860 O.3   1277  ACP1277    -0.2130
     21  C1'       68.2990   16.4710   42.3740 C.3   1277  ACP1277     0.3186
     22  N9        68.5710   15.2210   41.6080 N.pl3 1277  ACP1277    -0.1439
     23  C8        69.7100   14.5040   41.7420 C.3   1277  ACP1277     0.3377
     24  N7        69.7530   13.3830   40.9960 N.2   1277  ACP1277    -0.2095
     25  C5        68.5870   13.3710   40.3310 C.2   1277  ACP1277     0.2526
     26  C6        68.0020   12.4430   39.3630 C.2   1277  ACP1277     0.4393
     27  N6        68.7520   11.3740   39.0320 N.pl3 1277  ACP1277     0.2180
     28  N1        66.7590   12.7060   38.8490 N.2   1277  ACP1277     0.0021
     29  C2        66.0530   13.8120   39.2430 C.3   1277  ACP1277     0.5254
     30  N3        66.5500   14.7130   40.1480 N.2   1277  ACP1277    -0.0055
     31  C4        67.7930   14.5560   40.7250 C.2   1277  ACP1277     0.3518
@<TRIPOS>BOND
     1    28    29    1
     2    28    26    2
     3    27    26    1
     4    29    30    1
     5    26    25    1
     6    30    31    2
     7    25    31    1
     8    25    24    2
     9    31    22    1
    10    24    23    1
    11    22    23    1
    12    22    21    1
    13    21    16    1
    14    21    19    1
    15    16    15    1
    16    19    20    1
    17    19    17    1
    18    13    14    1
    19    13     9    1
    20    14    15    1
    21    15    17    1
    22    11     9    2
    23    17    18    1
    24     9    12    1
    25     9    10    1
    26    12     5    1
    27     8     5    1
    28     8     1    1
    29     5     7    2
    30     5     6    1
    31     2     1    2
    32     1     3    1
    33     1     4    1
