@<TRIPOS>MOLECULE
3zxv_MXI_A_1.pdb
 28 31 0 0 0
SMALL
GASTEIGER

@<TRIPOS>ATOM
      1  N26      -31.3980   83.9010    8.0080 N.pl3 501  MXI501     -0.1072
      2  C8       -31.1240   82.9050    8.8770 C.ar  501  MXI501      0.1698
      3  N9       -32.1060   82.0820    9.3010 N.ar  501  MXI501     -0.2259
      4  C10      -31.8470   81.0860   10.1680 C.ar  501  MXI501      0.1005
      5  C11      -30.5650   80.8700   10.6610 C.ar  501  MXI501      0.0234
      6  C7       -29.8310   82.7270    9.3610 C.ar  501  MXI501      0.0403
      7  C6       -29.5290   81.7030   10.2570 C.ar  501  MXI501      0.0375
      8  C5       -28.2340   81.5080   10.7590 C.2   501  MXI501      0.1738
      9  N1       -27.9590   80.7760   11.8760 N.2   501  MXI501     -0.3411
     10  C2       -26.6160   80.6950   11.9230 C.1   501  MXI501      0.1113
     11  C22      -25.8110   79.9730   12.9750 C.3   501  MXI501      0.0954
     12  C24      -26.7060   79.5580   14.1290 C.3   501  MXI501      0.0170
     13  C23      -24.7030   80.9090   13.4460 C.3   501  MXI501      0.0170
     14  C25      -25.2070   78.7120   12.3830 C.3   501  MXI501      0.0170
     15  C4       -26.9940   81.8530   10.1620 C.2   501  MXI501      0.1737
     16  N3       -26.0030   81.3250   10.9160 N.2   501  MXI501     -0.3411
     17  C12      -26.7010   82.7740    9.0120 C.ar  501  MXI501      0.0331
     18  C21      -27.4670   82.7250    7.9030 C.ar  501  MXI501      0.0027
     19  C20      -27.1940   83.6310    6.7720 C.ar  501  MXI501      0.0003
     20  C15      -26.1240   84.4980    6.8960 C.ar  501  MXI501      0.0030
     21  C14      -25.3810   84.4740    8.0730 C.ar  501  MXI501      0.0002
     22  C13      -25.7200   83.5790    9.0910 C.ar  501  MXI501      0.0027
     23  C19      -27.9790   83.6060    5.6170 C.ar  501  MXI501      0.0031
     24  C18      -27.6720   84.4740    4.5660 C.ar  501  MXI501      0.0369
     25  C17      -26.5940   85.3630    4.6810 C.ar  501  MXI501      0.1387
     26  C16      -25.8190   85.3700    5.8530 C.ar  501  MXI501      0.0369
     27  O27      -26.2810   86.3080    3.5250 O.3   501  MXI501     -0.4714
     28  C28      -25.1020   87.2250    3.8270 C.3   501  MXI501      0.2525
@<TRIPOS>BOND
     1    27    28    1
     2    27    25    1
     3    24    25   ar
     4    24    23   ar
     5    25    26   ar
     6    23    19   ar
     7    26    20   ar
     8    19    20   ar
     9    19    18   ar
    10    20    21   ar
    11    18    17   ar
    12     1     2    1
    13    21    22   ar
    14     2     3   ar
    15     2     6   ar
    16    17    22   ar
    17    17    15    1
    18     3     4   ar
    19     6     7   ar
    20    15     8    1
    21    15    16    2
    22     4     5   ar
    23     7     5   ar
    24     7     8    1
    25     8     9    2
    26    16    10    2
    27     9    10    2
    28    10    11    1
    29    14    11    1
    30    11    13    1
    31    11    12    1
