@<TRIPOS>MOLECULE
3zxv_P3S_A_1.pdb
 15 14 0 0 0
SMALL
GASTEIGER

@<TRIPOS>ATOM
      1  O3A      -24.6430   82.6610   21.2690 O.3   505  P3S505     -0.1237
      2  PA       -23.2200   82.3420   21.6460 P.3   505  P3S505      0.4896
      3  O1A      -22.3540   83.5490   21.7750 O.3   505  P3S505     -0.1237
      4  O2A      -22.5990   81.2450   20.8320 O.2   505  P3S505     -0.2328
      5  NE       -23.3280   81.6770   23.1810 N.3   505  P3S505     -0.0523
      6  SD       -22.9360   82.3580   24.4830 S.3   505  P3S505      0.0022
      7  OE       -23.7390   83.5230   24.7010 O.3   505  P3S505     -0.1552
      8  CE       -21.3260   82.7310   24.4830 C.3   505  P3S505      0.0974
      9  CG       -23.2260   81.2820   25.7340 C.3   505  P3S505      0.0859
     10  CB       -24.6740   80.7540   25.7900 C.3   505  P3S505      0.0443
     11  CA       -24.9270   79.8940   27.0450 C.3   505  P3S505      0.1953
     12  N        -24.0370   78.7280   27.0910 N.3   505  P3S505     -0.1208
     13  C        -26.3540   79.4040   27.1450 C.2   505  P3S505      0.3819
     14  OT       -27.1980   79.7140   26.2730 O.co2 505  P3S505     -0.2441
     15  O        -26.6630   78.6870   28.0990 O.co2 505  P3S505     -0.2441
@<TRIPOS>BOND
     1     4     2    2
     2     1     2    1
     3     2     3    1
     4     2     5    1
     5     5     6    1
     6     6     8    1
     7     6     7    1
     8     6     9    1
     9     9    10    1
    10    10    11    1
    11    14    13   ar
    12    11    12    1
    13    11    13    1
    14    13    15   ar
