@<TRIPOS>MOLECULE
3zxw_CAP_A_1.pdb
 21 20 0 0 0
SMALL
GASTEIGER

@<TRIPOS>ATOM
      1  C1       -34.1680   20.8890  -17.3240 C.3   477  CAP477      0.1978
      2  C2       -33.6730   20.0660  -16.1420 C.3   477  CAP477      0.2763
      3  C3       -32.6210   20.8310  -15.3340 C.3   477  CAP477      0.2253
      4  C4       -33.1260   22.1130  -14.6740 C.3   477  CAP477      0.2152
      5  C5       -32.4110   22.4110  -13.3600 C.3   477  CAP477      0.1892
      6  C        -34.8230   19.6060  -15.2570 C.2   477  CAP477      0.3967
      7  O1       -34.7250   20.0440  -18.2980 O.3   477  CAP477     -0.2669
      8  O2       -33.0550   18.8550  -16.6480 O.3   477  CAP477     -0.2086
      9  O3       -32.1130   19.9570  -14.3530 O.3   477  CAP477     -0.2170
     10  O4       -32.9050   23.1850  -15.5560 O.3   477  CAP477     -0.2176
     11  O5       -32.7120   23.7300  -12.9630 O.3   477  CAP477     -0.2674
     12  O6       -35.8810   20.2700  -15.1750 O.co2 477  CAP477     -0.2428
     13  O7       -34.7030   18.5390  -14.6030 O.co2 477  CAP477     -0.2428
     14  P1       -35.3690   20.6970  -19.6140 P.3   477  CAP477      0.5327
     15  P2       -31.5200   24.7730  -12.7020 P.3   477  CAP477      0.5327
     16  O1P      -36.1590   21.9240  -19.2150 O.3   477  CAP477     -0.1145
     17  O2P      -34.2600   21.1130  -20.5470 O.2   477  CAP477     -0.2224
     18  O3P      -36.2480   19.6700  -20.2870 O.3   477  CAP477     -0.1145
     19  O4P      -30.6320   24.7700  -13.9280 O.2   477  CAP477     -0.2224
     20  O5P      -30.7480   24.3470  -11.4780 O.3   477  CAP477     -0.1145
     21  O6P      -32.0680   26.1600  -12.4640 O.3   477  CAP477     -0.1145
@<TRIPOS>BOND
     1    17    14    2
     2    18    14    1
     3    14    16    1
     4    14     7    1
     5     7     1    1
     6     1     2    1
     7     8     2    1
     8     2     3    1
     9     2     6    1
    10    10     4    1
    11     3     4    1
    12     3     9    1
    13     6    12   ar
    14     6    13   ar
    15     4     5    1
    16    19    15    2
    17     5    11    1
    18    11    15    1
    19    15    21    1
    20    15    20    1
