@<TRIPOS>MOLECULE
3zxz_KRW_A_1.pdb
 28 32 0 0 0
SMALL
GASTEIGER

@<TRIPOS>ATOM
      1  O28       16.3110   78.7530   -1.1750 O.3   2345  KRW2345    -0.2182
      2  C27       16.4420   79.6810   -0.1180 C.3   2345  KRW2345     0.2083
      3  C26       17.9130   80.0570    0.0670 C.3   2345  KRW2345     0.1629
      4  N12       18.0880   81.0210    1.1560 N.ar  2345  KRW2345    -0.2466
      5  C11       17.8610   80.7280    2.5060 C.ar  2345  KRW2345     0.0990
      6  N13       18.4760   82.2330    0.9630 N.ar  2345  KRW2345    -0.1675
      7  C14       18.5500   82.8410    2.0990 C.ar  2345  KRW2345     0.1239
      8  C10       18.1620   81.9200    3.1640 C.ar  2345  KRW2345     0.0671
      9  C1        18.1100   82.2210    4.6320 C.2   2345  KRW2345     0.1398
     10  N4        18.4760   83.4880    5.0310 N.2   2345  KRW2345    -0.3782
     11  C5        18.4140   83.6950    6.3690 C.2   2345  KRW2345     0.2666
     12  N9        18.7100   84.8240    7.1140 N.pl3 2345  KRW2345    -0.1634
     13  N8        18.5060   84.5780    8.3670 N.pl3 2345  KRW2345    -0.0326
     14  N7        18.0910   83.3650    8.5540 N.2   2345  KRW2345    -0.0855
     15  C6        18.0220   82.7610    7.2720 C.1   2345  KRW2345     0.0982
     16  N3        17.6500   81.5030    6.9290 N.2   2345  KRW2345    -0.2079
     17  C2        17.7020   81.2420    5.5810 C.3   2345  KRW2345     0.1950
     18  C         19.1850   86.1050    6.5720 C.3   2345  KRW2345     0.1452
     19  C16       20.6520   85.9880    6.1520 C.ar  2345  KRW2345    -0.0003
     20  C19       21.0080   85.7660    4.7750 C.ar  2345  KRW2345    -0.0011
     21  C20       22.3790   85.6550    4.3760 C.ar  2345  KRW2345     0.0174
     22  C25       22.7600   85.4320    3.0160 C.ar  2345  KRW2345     0.0031
     23  C24       24.1460   85.3300    2.6870 C.ar  2345  KRW2345     0.0207
     24  C23       25.1060   85.4560    3.7370 C.ar  2345  KRW2345     0.0988
     25  N22       24.7620   85.6690    5.0460 N.ar  2345  KRW2345    -0.2438
     26  C21       23.4380   85.7660    5.3640 C.ar  2345  KRW2345     0.0813
     27  C18       23.0740   85.9860    6.7340 C.ar  2345  KRW2345     0.0188
     28  C17       21.6990   86.0960    7.1240 C.ar  2345  KRW2345    -0.0010
@<TRIPOS>BOND
     1     1     2    1
     2     2     3    1
     3     3     4    1
     4     6     4   ar
     5     6     7   ar
     6     4     5   ar
     7     7     8   ar
     8     5     8   ar
     9    23    22   ar
    10    23    24   ar
    11    22    21   ar
    12     8     9    1
    13    24    25   ar
    14    21    20   ar
    15    21    26   ar
    16     9    10    2
    17     9    17    1
    18    20    19   ar
    19    10    11    2
    20    25    26   ar
    21    26    27   ar
    22    17    16    1
    23    19    18    1
    24    19    28   ar
    25    11    12    1
    26    11    15    1
    27    18    12    1
    28    27    28   ar
    29    16    15    2
    30    12    13    1
    31    15    14    2
    32    13    14    1
