@<TRIPOS>MOLECULE
3zy2_GDP_A_1.pdb
 28 29 0 0 0
SMALL
GASTEIGER

@<TRIPOS>ATOM
      1  PB         7.9590  -15.0370   19.2750 P.3   1381  GDP1381     0.5373
      2  O1B        8.5030  -14.8420   20.6420 O.3   1381  GDP1381    -0.1143
      3  O2B        7.6150  -16.3670   18.5320 O.3   1381  GDP1381    -0.1143
      4  O3B        7.5350  -13.6530   18.4880 O.2   1381  GDP1381    -0.2221
      5  O3A        9.6090  -14.8690   18.8200 O.3   1381  GDP1381    -0.2261
      6  PA        10.1930  -14.1980   17.3510 P.3   1381  GDP1381     0.2231
      7  O1A       11.7970  -14.4320   17.9920 O.3   1381  GDP1381    -0.4370
      8  O2A        9.8100  -14.6300   16.1540 O.2   1381  GDP1381    -0.5169
      9  O5'        9.4460  -12.6330   17.8090 O.3   1381  GDP1381    -0.3111
     10  C5'       10.2560  -12.4300   18.7940 C.3   1381  GDP1381     0.1813
     11  C4'       10.9370  -11.2980   19.0490 C.3   1381  GDP1381     0.1798
     12  O4'       10.8500  -10.2070   19.8740 O.3   1381  GDP1381    -0.3326
     13  C3'       12.2440  -11.7660   19.0670 C.3   1381  GDP1381     0.2141
     14  O3'       13.3430  -11.9710   17.7380 O.3   1381  GDP1381    -0.2176
     15  O2'       13.6760   -9.4240   18.5110 O.3   1381  GDP1381    -0.2157
     16  C1'       12.4300   -9.7870   20.5600 C.3   1381  GDP1381     0.2294
     17  N9        12.5740  -10.4940   21.6230 N.pl3 1381  GDP1381    -0.2354
     18  N7        12.3030  -11.9130   23.2250 N.2   1381  GDP1381    -0.2322
     19  C5        13.4010  -11.3290   23.5030 C.2   1381  GDP1381     0.2182
     20  C6        14.7620  -11.1480   24.5690 C.1   1381  GDP1381     0.2372
     21  O6        14.6190  -11.9020   25.4150 O.2   1381  GDP1381    -0.2069
     22  N1        15.3660  -10.3730   24.1290 N.2   1381  GDP1381    -0.2485
     23  C2        15.5280   -9.5520   23.2100 C.1   1381  GDP1381     0.2531
     24  N2        16.2200   -8.8710   22.9820 N.pl3 1381  GDP1381    -0.0226
     25  N3        14.5400   -9.3480   21.9980 N.2   1381  GDP1381    -0.3074
     26  C4        13.5060  -10.3150   22.2800 C.2   1381  GDP1381     0.2300
     27  C2'       13.5990  -10.1450   19.6590 C.3   1381  GDP1381     0.2327
     28  C8        11.4550  -11.7910   22.2540 C.3   1381  GDP1381     0.2246
@<TRIPOS>BOND
     1     8     6    2
     2     6     9    1
     3     6     7    1
     4     6     5    1
     5    14    13    1
     6     9    10    1
     7     4     1    2
     8    15    27    1
     9     3     1    1
    10    10    11    1
    11     5     1    1
    12    11    13    1
    13    11    12    1
    14     1     2    1
    15    27    16    1
    16    12    16    1
    17    16    17    1
    18    17    28    1
    19    17    26    1
    20    25    26    2
    21    25    23    2
    22    28    18    1
    23    26    19    1
    24    24    23    1
    25    23    22    2
    26    18    19    2
    27    19    20    1
    28    22    20    2
    29    20    21    2
