@<TRIPOS>MOLECULE
3zy3_GDP_A_1.pdb
 28 30 0 0 0
SMALL
GASTEIGER

@<TRIPOS>ATOM
      1  PB       -19.6580   30.4880   11.3070 P.3   1384  GDP1384     0.5373
      2  O1B      -20.6020   29.3690   10.9500 O.3   1384  GDP1384    -0.1143
      3  O2B      -18.5590   29.9430   12.1890 O.3   1384  GDP1384    -0.1143
      4  O3B      -19.1950   31.3140   10.1430 O.2   1384  GDP1384    -0.2221
      5  O3A      -20.4320   31.4890   12.2900 O.3   1384  GDP1384    -0.2261
      6  PA       -22.0080   31.7180   12.5620 P.3   1384  GDP1384     0.2231
      7  O1A      -22.6590   32.2970   11.3480 O.2   1384  GDP1384    -0.5169
      8  O2A      -22.0900   32.6840   13.7440 O.3   1384  GDP1384    -0.4370
      9  O5'      -22.6600   30.3080   12.9380 O.3   1384  GDP1384    -0.3111
     10  C5'      -22.0940   29.5690   14.0070 C.3   1384  GDP1384     0.1813
     11  C4'      -23.0540   29.5810   15.1860 C.3   1384  GDP1384     0.1799
     12  O4'      -22.6350   28.5490   16.0640 O.3   1384  GDP1384    -0.3326
     13  C3'      -22.9590   30.8100   16.0780 C.3   1384  GDP1384     0.2158
     14  O3'      -23.7140   31.9330   15.6230 O.3   1384  GDP1384    -0.2175
     15  C2'      -23.4360   30.2550   17.4160 C.3   1384  GDP1384     0.2310
     16  O2'      -24.8570   30.0130   17.4290 O.3   1384  GDP1384    -0.2158
     17  C1'      -22.7030   28.9360   17.4440 C.3   1384  GDP1384     0.2293
     18  N9       -21.3100   29.1760   17.9390 N.pl3 1384  GDP1384    -0.2354
     19  C8       -20.1720   29.1760   17.1870 C.3   1384  GDP1384     0.2246
     20  N7       -19.0890   29.4100   17.9610 N.2   1384  GDP1384    -0.2322
     21  C5       -19.5440   29.5720   19.2380 C.2   1384  GDP1384     0.2182
     22  C6       -18.9590   29.8560   20.5680 C.1   1384  GDP1384     0.2372
     23  O6       -17.7220   30.0150   20.6650 O.2   1384  GDP1384    -0.2069
     24  N1       -19.7880   29.9440   21.6440 N.2   1384  GDP1384    -0.2485
     25  C2       -21.1420   29.7620   21.5300 C.1   1384  GDP1384     0.2531
     26  N2       -21.9700   29.8430   22.6180 N.pl3 1384  GDP1384    -0.0226
     27  N3       -21.7390   29.4850   20.3500 N.2   1384  GDP1384    -0.3074
     28  C4       -21.0020   29.4110   19.2020 C.2   1384  GDP1384     0.2300
@<TRIPOS>BOND
     1     4     1    2
     2     2     1    1
     3     1     3    1
     4     1     5    1
     5     7     6    2
     6     5     6    1
     7     6     9    1
     8     6     8    1
     9     9    10    1
    10    10    11    1
    11    11    12    1
    12    11    13    1
    13    14    13    1
    14    12    17    1
    15    13    15    1
    16    19    18    1
    17    19    20    1
    18    15    16    1
    19    15    17    1
    20    17    18    1
    21    18    28    1
    22    20    21    2
    23    28    21    1
    24    28    27    2
    25    21    22    1
    26    27    25    2
    27    22    23    2
    28    22    24    2
    29    25    24    2
    30    25    26    1
