@<TRIPOS>MOLECULE
3zy5_GFB_A_1.pdb
 38 41 0 0 0
SMALL
GASTEIGER

@<TRIPOS>ATOM
      1  O1P      -12.8840  -27.0170   16.5360 O.3   1386  GFB1386    -0.4371
      2  P        -11.3820  -26.8570   16.4820 P.3   1386  GFB1386     0.2189
      3  O3P      -10.8290  -26.2130   15.2370 O.2   1386  GFB1386    -0.5170
      4  O2P      -10.9670  -26.0100   17.8130 O.3   1386  GFB1386    -0.2703
      5  O5'      -10.6930  -28.2680   16.7470 O.3   1386  GFB1386    -0.3112
      6  P1        -9.5570  -25.8240   18.5830 P.3   1386  GFB1386     0.2208
      7  C5'      -11.1800  -29.0320   17.8500 C.3   1386  GFB1386     0.1813
      8  C4'      -12.0310  -30.1440   17.2410 C.3   1386  GFB1386     0.1799
      9  O4'      -11.9420  -31.3090   18.0720 O.3   1386  GFB1386    -0.3326
     10  C3'      -13.5070  -29.7880   17.1580 C.3   1386  GFB1386     0.2158
     11  C1'      -13.2460  -31.7990   18.3930 C.3   1386  GFB1386     0.2293
     12  O3'      -13.8750  -29.1670   15.9100 O.3   1386  GFB1386    -0.2175
     13  C2'      -14.1770  -31.1320   17.3930 C.3   1386  GFB1386     0.2310
     14  O2'      -14.2360  -31.9100   16.1920 O.3   1386  GFB1386    -0.2158
     15  N9       -13.6950  -31.3030   19.7190 N.pl3 1386  GFB1386    -0.2354
     16  C8       -13.1130  -30.4130   20.5470 C.3   1386  GFB1386     0.2246
     17  C4       -14.8600  -31.6670   20.2490 C.2   1386  GFB1386     0.2300
     18  N7       -13.9190  -30.2250   21.6200 N.2   1386  GFB1386    -0.2322
     19  C5       -15.0050  -31.0100   21.4590 C.2   1386  GFB1386     0.2182
     20  C6       -16.1530  -31.2560   22.1990 C.1   1386  GFB1386     0.2372
     21  O6       -16.3030  -30.6720   23.2960 O.2   1386  GFB1386    -0.2069
     22  N1       -17.0860  -32.1070   21.7070 N.2   1386  GFB1386    -0.2485
     23  C2       -16.9070  -32.7240   20.5190 C.1   1386  GFB1386     0.2531
     24  N2       -17.7980  -33.5920   19.9970 N.pl3 1386  GFB1386    -0.0226
     25  N3       -15.8090  -32.5100   19.7930 N.2   1386  GFB1386    -0.3074
     26  C1        -7.3460  -26.1080   17.1350 C.3   1386  GFB1386     0.2741
     27  C2A       -7.5940  -26.0920   15.6150 C.3   1386  GFB1386     0.2409
     28  O1        -8.5010  -26.6730   17.7310 O.3   1386  GFB1386    -0.2857
     29  O5        -6.3070  -27.0130   17.4950 O.3   1386  GFB1386    -0.3281
     30  C3        -6.3260  -25.8400   14.8040 C.3   1386  GFB1386     0.2197
     31  O2        -8.5360  -25.0690   15.3040 O.3   1386  GFB1386    -0.2149
     32  C4A       -5.2090  -26.7670   15.2890 C.3   1386  GFB1386     0.2118
     33  O3        -6.6000  -26.0380   13.3910 O.3   1386  GFB1386    -0.2174
     34  C5A       -5.0560  -26.8000   16.8160 C.3   1386  GFB1386     0.1508
     35  O4        -5.4950  -28.0970   14.8380 O.3   1386  GFB1386    -0.2177
     36  C6A       -4.1130  -27.9230   17.2270 C.3   1386  GFB1386     0.0350
     37  O1X       -9.2630  -24.3390   18.5820 O.2   1386  GFB1386    -0.5170
     38  O2X       -9.6500  -26.4880   19.9290 O.3   1386  GFB1386    -0.4371
@<TRIPOS>BOND
     1    33    30    1
     2    30    32    1
     3    30    27    1
     4    35    32    1
     5     3     2    2
     6    32    34    1
     7    31    27    1
     8    27    26    1
     9    12    10    1
    10    14    13    1
    11     2     1    1
    12     2     5    1
    13     2     4    1
    14     5     7    1
    15    34    36    1
    16    34    29    1
    17    26    29    1
    18    26    28    1
    19    10     8    1
    20    10    13    1
    21     8     7    1
    22     8     9    1
    23    13    11    1
    24    28     6    1
    25     4     6    1
    26     9    11    1
    27    11    15    1
    28    37     6    2
    29     6    38    1
    30    15    17    1
    31    15    16    1
    32    25    17    2
    33    25    23    2
    34    24    23    1
    35    17    19    1
    36    23    22    2
    37    16    18    1
    38    19    18    2
    39    19    20    1
    40    22    20    2
    41    20    21    2
