@<TRIPOS>MOLECULE
3zy6_GFB_A_1.pdb
 38 41 0 0 0
SMALL
GASTEIGER

@<TRIPOS>ATOM
      1  O1P       11.9200    5.2970   17.8510 O.3   1381  GFB1381    -0.4371
      2  P         10.4530    5.2750   17.5210 P.3   1381  GFB1381     0.2189
      3  O3P       10.0290    4.7750   16.1430 O.2   1381  GFB1381    -0.5170
      4  O2P        9.7830    4.4310   18.7210 O.3   1381  GFB1381    -0.2703
      5  O5'        9.8940    6.7770   17.7280 O.3   1381  GFB1381    -0.3112
      6  P1         8.2540    4.3970   19.2280 P.3   1381  GFB1381     0.2208
      7  C5'       10.1990    7.4300   18.9550 C.3   1381  GFB1381     0.1813
      8  C4'       11.2940    8.4580   18.7010 C.3   1381  GFB1381     0.1799
      9  O4'       11.1890    9.4500   19.7050 O.3   1381  GFB1381    -0.3326
     10  C3'       12.6980    7.8880   18.8530 C.3   1381  GFB1381     0.2158
     11  C1'       12.4550    9.7060   20.3130 C.3   1381  GFB1381     0.2293
     12  O3'       13.2300    7.3840   17.6240 O.3   1381  GFB1381    -0.2175
     13  C2'       13.4610    9.0960   19.3450 C.3   1381  GFB1381     0.2310
     14  O2'       13.7130    9.9960   18.2590 O.3   1381  GFB1381    -0.2158
     15  N9        12.6410    8.9750   21.5970 N.pl3 1381  GFB1381    -0.2354
     16  C8        11.8700    8.0150   22.1590 C.3   1381  GFB1381     0.2246
     17  C4        13.7040    9.1610   22.3650 C.2   1381  GFB1381     0.2300
     18  N7        12.4340    7.6130   23.3120 N.2   1381  GFB1381    -0.2322
     19  C5        13.5950    8.3000   23.4440 C.2   1381  GFB1381     0.2182
     20  C6        14.6100    8.3320   24.3890 C.1   1381  GFB1381     0.2372
     21  O6        14.5500    7.5900   25.3910 O.2   1381  GFB1381    -0.2069
     22  N1        15.6450    9.1990   24.2390 N.2   1381  GFB1381    -0.2485
     23  C2        15.7340   10.0070   23.1660 C.1   1381  GFB1381     0.2531
     24  N2        16.7840   10.8480   23.0070 N.pl3 1381  GFB1381    -0.0226
     25  N3        14.7690    9.9960   22.2350 N.2   1381  GFB1381    -0.3074
     26  C1         6.4150    5.5280   17.6510 C.3   1381  GFB1381     0.2741
     27  C2A        6.7140    6.0570   16.2570 C.3   1381  GFB1381     0.2409
     28  O1         7.6110    5.6480   18.4270 O.3   1381  GFB1381    -0.2857
     29  O5         5.3750    6.3370   18.2330 O.3   1381  GFB1381    -0.3281
     30  C3         5.4570    5.9860   15.3830 C.3   1381  GFB1381     0.2197
     31  O2         7.8600    5.4750   15.6260 O.3   1381  GFB1381    -0.2149
     32  C4A        4.4850    6.9850   16.0110 C.3   1381  GFB1381     0.2118
     33  O3         5.7790    6.3370   14.0170 O.3   1381  GFB1381    -0.2174
     34  C5A        4.1800    6.6070   17.4590 C.3   1381  GFB1381     0.1508
     35  O4         5.0810    8.2970   15.9940 O.3   1381  GFB1381    -0.2177
     36  C6A        3.3680    7.7210   18.1310 C.3   1381  GFB1381     0.0350
     37  O1X        7.6470    3.1010   18.7340 O.2   1381  GFB1381    -0.5170
     38  O2X        8.3420    4.7270   20.6930 O.3   1381  GFB1381    -0.4371
@<TRIPOS>BOND
     1    33    30    1
     2    30    32    1
     3    30    27    1
     4    31    27    1
     5    35    32    1
     6    32    34    1
     7     3     2    2
     8    27    26    1
     9    34    36    1
    10    34    29    1
    11     2     5    1
    12     2     1    1
    13     2     4    1
    14    12    10    1
    15    26    29    1
    16    26    28    1
    17     5     7    1
    18    14    13    1
    19    28     6    1
    20     8    10    1
    21     8     7    1
    22     8     9    1
    23     4     6    1
    24    37     6    2
    25    10    13    1
    26     6    38    1
    27    13    11    1
    28     9    11    1
    29    11    15    1
    30    15    16    1
    31    15    17    1
    32    16    18    1
    33    25    17    2
    34    25    23    2
    35    17    19    1
    36    24    23    1
    37    23    22    2
    38    18    19    2
    39    19    20    1
    40    22    20    2
    41    20    21    2
