@<TRIPOS>MOLECULE
3zya_2A8_A_1.pdb
 24 27 0 0 0
SMALL
GASTEIGER

@<TRIPOS>ATOM
      1  NAA       16.4530  -12.9390  -28.1130 N.pl3 400  2A8400     -0.1267
      2  OAB       11.4660  -18.8150  -32.0190 O.3   400  2A8400     -0.2134
      3  CAC        7.5710  -16.4900  -34.1620 C.ar  400  2A8400     -0.0003
      4  CAD        7.8530  -15.7380  -33.0190 C.ar  400  2A8400     -0.0045
      5  CAE        8.4050  -17.5290  -34.5630 C.ar  400  2A8400     -0.0003
      6  CAF       19.1320  -14.4810  -30.1040 C.ar  400  2A8400      0.0015
      7  CAG       18.4370  -14.8400  -31.2450 C.ar  400  2A8400      0.0014
      8  CAH       18.5070  -13.8500  -29.0470 C.ar  400  2A8400      0.0194
      9  CAI        9.0000  -16.0660  -32.2860 C.ar  400  2A8400     -0.0231
     10  CAJ        9.5530  -17.8390  -33.8130 C.ar  400  2A8400     -0.0018
     11  CAK       12.6600  -14.1360  -30.8920 C.ar  400  2A8400      0.0120
     12  CAL       14.2820  -15.9210  -30.8940 C.ar  400  2A8400      0.0162
     13  CAM       17.0760  -14.5710  -31.3590 C.ar  400  2A8400      0.0179
     14  CAN       11.6720  -15.0630  -31.2730 C.ar  400  2A8400     -0.0218
     15  CAO       13.3120  -16.8490  -31.2720 C.ar  400  2A8400     -0.0005
     16  CA0        9.1680  -15.1760  -31.1150 C.3   400  2A8400      0.0308
     17  NAP       14.9910  -13.6140  -30.3180 N.pl3 400  2A8400     -0.2111
     18  CAQ       11.0720  -17.5220  -31.9000 C.3   400  2A8400      0.1960
     19  CA1       10.3660  -14.3390  -31.4020 C.3   400  2A8400      0.0308
     20  CAR       17.1440  -13.5850  -29.1640 C.ar  400  2A8400      0.1042
     21  CAS       13.9750  -14.5760  -30.7050 C.ar  400  2A8400      0.0702
     22  CAT        9.8350  -17.0880  -32.6550 C.ar  400  2A8400      0.0080
     23  CAU       11.9950  -16.4050  -31.4530 C.ar  400  2A8400      0.0080
     24  CAV       16.4130  -13.9390  -30.3030 C.ar  400  2A8400      0.0871
@<TRIPOS>BOND
     1     5     3   ar
     2     5    10   ar
     3     3     4   ar
     4    10    22   ar
     5     4     9   ar
     6    22     9   ar
     7    22    18    1
     8     9    16    1
     9     2    18    1
    10    18    23    1
    11    23    14   ar
    12    23    15   ar
    13    19    14    1
    14    19    16    1
    15    13     7   ar
    16    13    24   ar
    17    14    11   ar
    18    15    12   ar
    19     7     6   ar
    20    12    21   ar
    21    11    21   ar
    22    21    17    1
    23    17    24    1
    24    24    20   ar
    25     6     8   ar
    26    20     8   ar
    27    20     1    1
