@<TRIPOS>MOLECULE
3zyb_III_J_1.pdb
 25 25 0 0 0
SMALL
GASTEIGER

@<TRIPOS>ATOM
      1  N         -9.8980  -11.5070    2.7530 N.3   301  LYS301     -0.1231
      2  C         -8.1450  -10.0120    3.6180 C.2   301  LYS301      0.2434
      3  O         -7.9430   -9.5940    2.4780 O.2   301  LYS301     -0.2733
      4  CA        -8.9540  -11.2840    3.8430 C.3   301  LYS301      0.1678
      5  CB        -8.0040  -12.4760    3.9810 C.3   301  LYS301      0.0284
      6  CG        -8.6810  -13.7820    4.3610 C.3   301  LYS301      0.0035
      7  CD        -7.6840  -14.9310    4.3760 C.3   301  LYS301      0.0206
      8  CE        -6.5730  -14.6950    5.3910 C.3   301  LYS301      0.1093
      9  NZ        -7.0750  -14.7200    6.7940 N.3   301  LYS301     -0.1314
     10  N         -7.6810   -9.3890    4.7120 N.am  302  PRO302     -0.2718
     11  C         -5.4190   -8.5370    4.1550 C.2   302  PRO302      0.2598
     12  O         -5.0360   -9.7060    4.1540 O.2   302  PRO302     -0.2715
     13  CA        -6.8310   -8.1970    4.6240 C.3   302  PRO302      0.1535
     14  CB        -6.8000   -7.6830    6.0660 C.3   302  PRO302      0.0310
     15  CG        -7.0520   -8.8850    6.8990 C.3   302  PRO302      0.0237
     16  CD        -7.9940   -9.7460    6.1070 C.3   302  PRO302      0.0939
     17  CD1       -2.8940   -4.4660    1.1510 C.3   303  LEU303      0.0001
     18  CG        -3.4130   -5.8590    1.4760 C.3   303  LEU303      0.0022
     19  CD2       -3.2120   -6.7980    0.2960 C.3   303  LEU303      0.0001
     20  CB        -2.7280   -6.4080    2.7300 C.3   303  LEU303      0.0312
     21  CA        -3.2840   -7.7110    3.3100 C.3   303  LEU303      0.1744
     22  C         -2.3840   -8.2040    4.4410 C.2   303  LEU303      0.2806
     23  O         -2.7170   -8.0710    5.6200 O.2   303  LEU303     -0.2698
     24  N         -4.6590   -7.5190    3.7610 N.am  303  LEU303     -0.1963
     25  N         -1.2400   -8.7710    4.0720 N.am  304  NH2304     -0.0863
@<TRIPOS>BOND
     1    19    18    1
     2    17    18    1
     3    18    20    1
     4     3     2    2
     5    20    21    1
     6     1     4    1
     7    21    24    1
     8    21    22    1
     9     2     4    1
    10     2    10   am
    11    24    11   am
    12     4     5    1
    13     5     6    1
    14    25    22   am
    15    12    11    2
    16    11    13    1
    17     6     7    1
    18     7     8    1
    19    22    23    2
    20    13    10    1
    21    13    14    1
    22    10    16    1
    23     8     9    1
    24    14    15    1
    25    16    15    1
