@<TRIPOS>MOLECULE
3zyb_GAL_I_1.pdb
 11 11 0 0 0
SMALL
GASTEIGER

@<TRIPOS>ATOM
      1  C1        11.0140  -19.3130  -10.7070 C.3   299  GAL299      0.1777
      2  O5        10.1720  -19.6130  -11.7860 O.3   299  GAL299     -0.3481
      3  C5        10.2150  -18.6930  -12.8840 C.3   299  GAL299      0.1810
      4  C6         9.2260  -19.1900  -13.9540 C.3   299  GAL299      0.2141
      5  O6         7.8940  -18.9930  -13.5080 O.3   299  GAL299     -0.2176
      6  C4        11.6650  -18.5590  -13.4170 C.3   299  GAL299      0.2142
      7  O4        12.0320  -19.7420  -14.1200 O.3   299  GAL299     -0.2176
      8  C3        12.6250  -18.2710  -12.2450 C.3   299  GAL299      0.2173
      9  O3        13.9890  -18.1990  -12.6320 O.3   299  GAL299     -0.2175
     10  C2        12.4980  -19.3480  -11.1590 C.3   299  GAL299      0.2141
     11  O2        13.3890  -18.9690  -10.1200 O.3   299  GAL299     -0.2176
@<TRIPOS>BOND
     1     7     6    1
     2     4     5    1
     3     4     3    1
     4     6     3    1
     5     6     8    1
     6     3     2    1
     7     9     8    1
     8     8    10    1
     9     2     1    1
    10    10     1    1
    11    10    11    1
