@<TRIPOS>MOLECULE
3zyf_147_A_1.pdb
 21 22 0 0 0
SMALL
GASTEIGER

@<TRIPOS>ATOM
      1  C1         9.5260    8.6690    9.7630 C.3   1001  1471001     0.3218
      2  C2        10.8550    8.0270   10.0330 C.3   1001  1471001     0.2542
      3  O2        11.7640    8.9780   10.5390 O.3   1001  1471001    -0.2135
      4  C3        11.4020    7.4110    8.8320 C.3   1001  1471001     0.2211
      5  O3        12.6350    6.7180    9.2240 O.3   1001  1471001    -0.2173
      6  C4        10.4900    6.5160    8.2380 C.3   1001  1471001     0.2145
      7  O4        10.3340    5.3310    9.0700 O.3   1001  1471001    -0.2176
      8  C5         9.1420    7.1250    8.0180 C.3   1001  1471001     0.1846
      9  C6         8.1760    6.0910    7.5210 C.3   1001  1471001     0.2142
     10  O6         6.9930    6.5290    7.0080 O.3   1001  1471001    -0.2176
     11  O5         8.6210    7.7650    9.2320 O.3   1001  1471001    -0.3157
     12  O1'        9.0210    9.1850   10.9590 O.3   1001  1471001    -0.4505
     13  C1'        8.0930   10.2620   10.6320 C.ar  1001  1471001     0.1415
     14  C2'        7.9120   10.6290    9.3240 C.ar  1001  1471001     0.0387
     15  C3'        6.9980   11.6920    8.9950 C.ar  1001  1471001     0.0272
     16  C4'        6.3270   12.3190    9.9830 C.ar  1001  1471001     0.1431
     17  C5'        6.5120   11.9420   11.3040 C.ar  1001  1471001     0.0272
     18  C6'        7.4140   10.8950   11.6250 C.ar  1001  1471001     0.0387
     19  N1'        5.3960   13.3880    9.6690 N.pl3 1001  1471001     0.0577
     20  O2'        5.3250   13.8680    8.4230 O.2   1001  1471001    -0.1261
     21  O3'        4.5910   13.8340   10.5930 O.2   1001  1471001    -0.1261
@<TRIPOS>BOND
     1    10     9    1
     2     9     8    1
     3     8     6    1
     4     8    11    1
     5     6     4    1
     6     6     7    1
     7    20    19    2
     8     4     5    1
     9     4     2    1
    10    15    14   ar
    11    15    16   ar
    12    11     1    1
    13    14    13   ar
    14    19    16    1
    15    19    21    2
    16     1     2    1
    17     1    12    1
    18    16    17   ar
    19     2     3    1
    20    13    12    1
    21    13    18   ar
    22    17    18   ar
