@<TRIPOS>MOLECULE
3zyh_G0S_I_1.pdb
 14 14 0 0 0
SMALL
GASTEIGER

@<TRIPOS>ATOM
      1  C1         8.5580  -18.5960  -37.2060 C.3     1  G0S1        0.1955
      2  C2         7.1480  -18.3790  -36.6890 C.3     1  G0S1        0.2219
      3  O2         6.2600  -18.0540  -37.7430 O.3     1  G0S1       -0.2167
      4  O3         5.9050  -16.7260  -35.2680 O.3     1  G0S1       -0.2175
      5  C4         8.2240  -17.1740  -34.7790 C.3     1  G0S1        0.2143
      6  O4         7.8640  -17.9760  -33.6440 O.3     1  G0S1       -0.2176
      7  C5         9.5690  -17.5610  -35.3510 C.3     1  G0S1        0.1820
      8  O5         9.4960  -18.7680  -36.1890 O.3     1  G0S1       -0.3398
      9  C6        10.5740  -17.7560  -34.3180 C.3     1  G0S1        0.2142
     10  O6        11.8690  -17.9300  -34.7750 O.3     1  G0S1       -0.2176
     11  S1         8.5580  -20.0040  -38.2580 S.3     1  G0S1       -0.1094
     12  C1A        9.8530  -19.6770  -39.4160 C.3     1  G0S1        0.0600
     13  C3         7.1350  -17.3300  -35.6740 C.3     1  G0S1        0.2181
     14  C2A        9.7330  -18.4470  -40.2590 C.3     1  G0S1        0.0126
@<TRIPOS>BOND
     1    14    12    1
     2    12    11    1
     3    11     1    1
     4     3     2    1
     5     1     2    1
     6     1     8    1
     7     2    13    1
     8     8     7    1
     9    13     4    1
    10    13     5    1
    11     7     5    1
    12     7     9    1
    13     5     6    1
    14    10     9    1
