@<TRIPOS>MOLECULE
3zyr_MAN_A_1.pdb
 11 11 0 0 0
SMALL
GASTEIGER

@<TRIPOS>ATOM
      1  C1        34.4610    9.3470   44.0350 C.3   303  MAN303      0.1777
      2  C2        33.6630    8.0640   44.2760 C.3   303  MAN303      0.2141
      3  C3        34.6180    6.9050   44.5040 C.3   303  MAN303      0.2173
      4  C4        35.5850    6.8290   43.3180 C.3   303  MAN303      0.2142
      5  C5        36.2970    8.1590   43.1020 C.3   303  MAN303      0.1810
      6  C6        37.1270    8.1190   41.8330 C.3   303  MAN303      0.2141
      7  O2        32.8650    7.7610   43.1390 O.3   303  MAN303     -0.2176
      8  O3        33.8610    5.7000   44.6210 O.3   303  MAN303     -0.2175
      9  O4        36.5630    5.8280   43.5420 O.3   303  MAN303     -0.2176
     10  O5        35.3450    9.1870   42.9490 O.3   303  MAN303     -0.3481
     11  O6        37.9210    9.2950   41.7320 O.3   303  MAN303     -0.2176
@<TRIPOS>BOND
     1    11     6    1
     2     6     5    1
     3    10     5    1
     4    10     1    1
     5     5     4    1
     6     7     2    1
     7     4     9    1
     8     4     3    1
     9     1     2    1
    10     2     3    1
    11     3     8    1
