@<TRIPOS>MOLECULE
3zyr_NAG_A_1.pdb
 14 14 0 0 0
SMALL
GASTEIGER

@<TRIPOS>ATOM
      1  C1        31.5650    8.3600   43.1220 C.3   304  NAG304      0.1665
      2  C2        31.2060    8.4370   41.6360 C.3   304  NAG304      0.1576
      3  C3        29.8100    9.0040   41.5220 C.3   304  NAG304      0.2069
      4  C4        28.8450    8.1500   42.3490 C.3   304  NAG304      0.2134
      5  C5        29.3100    8.0830   43.8010 C.3   304  NAG304      0.1809
      6  C6        28.3590    7.2430   44.6640 C.3   304  NAG304      0.2141
      7  C7        33.2130    8.8800   40.2590 C.2   304  NAG304      0.2420
      8  C8        34.1380    9.9510   39.7610 C.3   304  NAG304      0.0964
      9  N2        32.2020    9.3070   41.0070 N.am  304  NAG304     -0.2019
     10  O3        29.4320    8.9380   40.1650 O.3   304  NAG304     -0.2184
     11  O4        27.5840    8.7660   42.3430 O.3   304  NAG304     -0.2176
     12  O5        30.6520    7.5880   43.8400 O.3   304  NAG304     -0.3489
     13  O6        28.2710    5.9160   44.1980 O.3   304  NAG304     -0.2176
     14  O7        33.4180    7.6920   39.9860 O.2   304  NAG304     -0.2733
@<TRIPOS>BOND
     1     8     7    1
     2    14     7    2
     3    10     3    1
     4     7     9   am
     5     9     2    1
     6     3     2    1
     7     3     4    1
     8     2     1    1
     9    11     4    1
    10     4     5    1
    11     1    12    1
    12     5    12    1
    13     5     6    1
    14    13     6    1
