@<TRIPOS>MOLECULE
3zyr_BMA_A_1.pdb
 11 11 0 0 0
SMALL
GASTEIGER

@<TRIPOS>ATOM
      1  C1        37.6360   12.4520   45.3390 C.3   302  BMA302      0.1777
      2  C2        37.1500   11.0140   45.2250 C.3   302  BMA302      0.2141
      3  C3        35.6220   11.0600   45.2680 C.3   302  BMA302      0.2173
      4  C4        35.1120   11.8670   46.4750 C.3   302  BMA302      0.2142
      5  C5        35.7510   13.2730   46.5100 C.3   302  BMA302      0.1810
      6  C6        35.3300   14.0480   47.7590 C.3   302  BMA302      0.2141
      7  O2        37.7450   10.1700   46.2400 O.3   302  BMA302     -0.2176
      8  O3        35.1230    9.7390   45.2710 O.3   302  BMA302     -0.2175
      9  O4        33.7020   11.8940   46.4030 O.3   302  BMA302     -0.2176
     10  O5        37.1710   13.1090   46.4990 O.3   302  BMA302     -0.3481
     11  O6        35.7910   13.3610   48.9240 O.3   302  BMA302     -0.2176
@<TRIPOS>BOND
     1     2     3    1
     2     2     1    1
     3     2     7    1
     4     3     8    1
     5     3     4    1
     6     1    10    1
     7     9     4    1
     8     4     5    1
     9    10     5    1
    10     5     6    1
    11     6    11    1
