@<TRIPOS>MOLECULE
3zyu_1GH_A_1.pdb
 31 35 0 0 0
SMALL
GASTEIGER

@<TRIPOS>ATOM
      1  O2         3.0300   -5.5000   26.5480 O.2   1173  1GH1173    -0.1926
      2  C13        2.6320   -5.5910   25.3960 C.1   1173  1GH1173     0.2725
      3  N1         2.2270   -6.7570   24.7660 N.am  1173  1GH1173    -0.1997
      4  C6         2.2600   -8.0600   25.5120 C.3   1173  1GH1173     0.1296
      5  C8         0.9120   -8.7100   25.6100 C.ar  1173  1GH1173     0.0781
      6  N2         0.8900  -10.0500   25.6340 N.ar  1173  1GH1173    -0.2465
      7  C12       -0.3100  -10.6330   25.7260 C.ar  1173  1GH1173     0.0985
      8  C11       -1.4940   -9.9390   25.7970 C.ar  1173  1GH1173     0.0207
      9  C10       -1.4400   -8.5700   25.7750 C.ar  1173  1GH1173     0.0029
     10  C9        -0.2250   -7.9350   25.6800 C.ar  1173  1GH1173     0.0164
     11  C7         3.3030   -8.9940   24.9390 C.3   1173  1GH1173     0.0292
     12  N3         2.4940   -4.6040   24.4940 N.2   1173  1GH1173    -0.3221
     13  C14        2.0100   -5.1120   23.3020 C.2   1173  1GH1173     0.1618
     14  C5         1.8370   -6.4610   23.4520 C.2   1173  1GH1173     0.0929
     15  C15        1.7100   -4.4880   22.0980 C.3   1173  1GH1173     0.1863
     16  N4         1.2490   -5.1640   21.0590 N.2   1173  1GH1173    -0.2626
     17  C16        1.0630   -6.4990   21.1690 C.ar  1173  1GH1173     0.0780
     18  C4         1.3420   -7.2330   22.3590 C.ar  1173  1GH1173     0.0369
     19  C3         1.1270   -8.5970   22.3820 C.ar  1173  1GH1173     0.0397
     20  C17        0.5670   -7.1870   20.0370 C.ar  1173  1GH1173     0.0219
     21  C18        0.3610   -8.5440   20.0960 C.ar  1173  1GH1173     0.0394
     22  C2         0.6420   -9.2410   21.2770 C.ar  1173  1GH1173     0.1389
     23  O1         0.3820  -10.5830   21.1950 O.3   1173  1GH1173    -0.4714
     24  C1         0.7890  -11.4090   22.2810 C.3   1173  1GH1173     0.2525
     25  C19       -0.1960   -9.2380   18.9130 C.ar  1173  1GH1173     0.0526
     26  C22        0.3550  -10.3020   18.2760 C.ar  1173  1GH1173     0.1545
     27  C23        1.5890  -11.0780   18.4810 C.3   1173  1GH1173     0.0754
     28  O3        -0.4440  -10.6920   17.2430 O.2   1173  1GH1173    -0.3581
     29  N5        -1.5400   -9.8320   17.2370 N.ar  1173  1GH1173    -0.0817
     30  C20       -1.4020   -8.9550   18.2310 C.ar  1173  1GH1173     0.1007
     31  C21       -2.2990   -7.9910   18.4840 C.3   1173  1GH1173     0.0557
@<TRIPOS>BOND
     1    29    28   ar
     2    29    30   ar
     3    28    26   ar
     4    30    31    1
     5    30    25   ar
     6    26    27    1
     7    26    25   ar
     8    25    21    1
     9    20    21   ar
    10    20    17   ar
    11    21    22   ar
    12    16    17    2
    13    16    15    1
    14    17    18   ar
    15    23    22    1
    16    23    24    1
    17    22    19   ar
    18    15    13    1
    19    18    19   ar
    20    18    14    2
    21    13    14    1
    22    13    12    2
    23    14     3    1
    24    12     2    2
    25     3     2   am
    26     3     4    1
    27    11     4    1
    28     2     1    2
    29     4     5    1
    30     5     6   ar
    31     5    10   ar
    32     6     7   ar
    33    10     9   ar
    34     7     8   ar
    35     9     8   ar
