@<TRIPOS>MOLECULE
3zyx_MBT_A_1.pdb
 20 22 0 0 0
SMALL
GASTEIGER

@<TRIPOS>ATOM
      1  C1        52.3880  158.5510   27.8320 C.2   601  MBT601      0.1227
      2  C2        52.9440  159.2510   26.7540 C.3   601  MBT601      0.1271
      3  S3        53.4410  158.4710   25.3240 S.3   601  MBT601     -0.1005
      4  C4        53.2300  156.8230   25.6910 C.2   601  MBT601      0.0528
      5  C5        52.6400  156.3680   26.8700 C.2   601  MBT601      0.1187
      6  N6        52.1850  157.2110   27.8220 N.2   601  MBT601     -0.4085
      7  C7        53.6690  155.8970   24.7650 C.2   601  MBT601      0.0226
      8  C8        53.5230  154.5420   25.0230 C.2   601  MBT601      0.0446
      9  C9        52.9390  154.0810   26.1970 C.2   601  MBT601     -0.0041
     10  C10       52.4880  155.0070   27.1220 C.3   601  MBT601      0.0867
     11  C11       53.0930  160.6330   26.8460 C.2   601  MBT601      0.0062
     12  C12       52.7020  161.2940   28.0130 C.2   601  MBT601      0.0449
     13  C13       52.1510  160.5950   29.0840 C.2   601  MBT601      0.0165
     14  C14       51.9900  159.2200   28.9900 C.2   601  MBT601      0.0300
     15  N15       53.9790  153.6610   24.0620 N.pl3 601  MBT601     -0.3043
     16  C16       54.5620  154.2230   22.8630 C.3   601  MBT601      0.1122
     17  C17       53.8720  152.2290   24.2580 C.3   601  MBT601      0.1122
     18  N18       52.8670  162.6730   28.1130 N.pl3 601  MBT601     -0.3043
     19  C19       53.4340  163.3830   26.9810 C.3   601  MBT601      0.1122
     20  C20       52.4900  163.3860   29.3290 C.3   601  MBT601      0.1122
@<TRIPOS>BOND
     1    16    15    1
     2    15    17    1
     3    15     8    1
     4     7     8    1
     5     7     4    2
     6     8     9    2
     7     3     4    1
     8     3     2    1
     9     4     5    1
    10     9    10    1
    11     2    11    1
    12     2     1    1
    13    11    12    2
    14     5    10    1
    15     5     6    2
    16    19    18    1
    17     6     1    2
    18     1    14    1
    19    12    18    1
    20    12    13    1
    21    18    20    1
    22    14    13    2
