@<TRIPOS>MOLECULE
3zyz_BGC_A_1.pdb
 12 12 0 0 0
SMALL
GASTEIGER

@<TRIPOS>ATOM
      1  C2         2.9280   -2.1470   13.5320 C.3   1717  BGC1717     0.2434
      2  C3         1.7910   -3.1120   13.7790 C.3   1717  BGC1717     0.2199
      3  C4         2.3360   -4.5250   13.6580 C.3   1717  BGC1717     0.2144
      4  C5         3.5200   -4.7410   14.6190 C.3   1717  BGC1717     0.1836
      5  C6         4.1060   -6.1480   14.5300 C.3   1717  BGC1717     0.2142
      6  C1         4.1450   -2.4520   14.4290 C.3   1717  BGC1717     0.3024
      7  O1         5.2280   -1.6300   14.0570 O.3   1717  BGC1717    -0.1869
      8  O2         2.4190   -0.8520   13.7570 O.3   1717  BGC1717    -0.2148
      9  O3         0.7930   -2.8600   12.8100 O.3   1717  BGC1717    -0.2174
     10  O4         1.3000   -5.4570   13.8740 O.3   1717  BGC1717    -0.2176
     11  O5         4.5510   -3.8110   14.3200 O.3   1717  BGC1717    -0.3236
     12  O6         4.8030   -6.2800   13.3070 O.3   1717  BGC1717    -0.2176
@<TRIPOS>BOND
     1     9     2    1
     2    12     5    1
     3     1     8    1
     4     1     2    1
     5     1     6    1
     6     3     2    1
     7     3    10    1
     8     3     4    1
     9     7     6    1
    10    11     6    1
    11    11     4    1
    12     5     4    1
