@<TRIPOS>MOLECULE
3zz5_G74_A_1.pdb
 23 23 0 0 0
SMALL
GASTEIGER

@<TRIPOS>ATOM
      1  O88      -19.7410    9.4970  -20.2610 O.2   1181  G741181    -0.2501
      2  C84      -18.7340   10.1590  -20.0360 C.2   1181  G741181     0.3170
      3  O86      -18.7670   11.2960  -19.0960 O.3   1181  G741181    -0.4485
      4  C3       -18.9920   11.1370  -17.6750 C.3   1181  G741181     0.2086
      5  C5       -19.1550    9.6810  -17.2410 C.3   1181  G741181     0.0513
      6  C82      -17.4630    9.7640  -20.7410 C.3   1181  G741181     0.1113
      7  C63      -17.7570    8.8240  -21.9270 C.3   1181  G741181     0.0335
      8  C57      -17.8950    9.6770  -23.1960 C.3   1181  G741181     0.1007
      9  C59      -18.3440    8.8570  -24.3950 C.3   1181  G741181     0.0428
     10  C61      -19.8510    9.0170  -24.5060 C.3   1181  G741181     0.1317
     11  C73      -20.2840   10.0630  -25.5350 C.2   1181  G741181     0.0116
     12  C71      -21.1000    9.3290  -26.6070 C.2   1181  G741181     0.1073
     13  N69      -20.9970    7.9520  -26.1350 N.2   1181  G741181    -0.1785
     14  C65      -20.4430    7.7560  -25.0200 C.1   1181  G741181     0.1336
     15  O66      -20.4030    6.7210  -24.3920 O.2   1181  G741181    -0.2264
     16  N49      -16.5430   10.1320  -23.5060 N.am  1181  G741181    -0.1704
     17  C39      -16.0980   11.3750  -23.2170 C.2   1181  G741181     0.4208
     18  O47      -16.8100   12.2200  -22.6820 O.2   1181  G741181    -0.2246
     19  O37      -14.7150   11.7640  -23.5150 O.3   1181  G741181    -0.4408
     20  C1       -14.0180   11.4510  -24.7310 C.3   1181  G741181     0.1379
     21  C2       -12.5410   11.2060  -24.3900 C.3   1181  G741181     0.0437
     22  C4       -14.5970   10.2020  -25.3980 C.3   1181  G741181     0.0437
     23  C6       -14.1550   12.6430  -25.6770 C.3   1181  G741181     0.0437
@<TRIPOS>BOND
     1    12    13    1
     2    12    11    2
     3    13    14    2
     4    23    20    1
     5    11    10    1
     6    22    20    1
     7    14    10    1
     8    14    15    2
     9    20    21    1
    10    20    19    1
    11    10     9    1
    12     9     8    1
    13    19    17    1
    14    16    17   am
    15    16     8    1
    16    17    18    2
    17     8     7    1
    18     7     6    1
    19     6     2    1
    20     1     2    2
    21     2     3    1
    22     3     4    1
    23     4     5    1
