@<TRIPOS>MOLECULE
3zz6_G75_A_1.pdb
 37 39 0 0 0
SMALL
GASTEIGER

@<TRIPOS>ATOM
      1  O88      -18.9560    9.3090  -18.3140 O.2   1181  G751181    -0.2501
      2  C84      -18.6990   10.3790  -18.8980 C.2   1181  G751181     0.3170
      3  O86      -19.0570   11.6140  -18.1890 O.3   1181  G751181    -0.4485
      4  C3       -18.8830   11.7100  -16.7670 C.3   1181  G751181     0.2086
      5  C5       -19.9220   12.5990  -16.1110 C.3   1181  G751181     0.0513
      6  C82      -18.0210   10.4520  -20.2830 C.3   1181  G751181     0.1113
      7  C63      -18.0920    9.1430  -21.0870 C.3   1181  G751181     0.0333
      8  C57      -18.3250    9.3740  -22.5960 C.3   1181  G751181     0.0970
      9  C59      -19.1010    8.2550  -23.3340 C.3   1181  G751181     0.0383
     10  C61      -19.5320    8.6910  -24.7450 C.3   1181  G751181     0.1100
     11  C65      -20.4840    7.7420  -25.4210 C.1   1181  G751181     0.1250
     12  O66      -20.3790    6.4080  -25.3350 O.2   1181  G751181    -0.2271
     13  N69      -21.3790    8.3810  -26.0760 N.2   1181  G751181    -0.2063
     14  C71      -21.4230    9.8320  -25.8610 C.3   1181  G751181     0.1387
     15  C73      -20.3320   10.0030  -24.7870 C.3   1181  G751181     0.0438
     16  N49      -16.9940    9.4220  -23.1890 N.am  1181  G751181    -0.2057
     17  C39      -16.6870   10.2650  -24.1860 C.2   1181  G751181     0.2616
     18  O47      -17.4900   11.0440  -24.6620 O.2   1181  G751181    -0.2715
     19  C37      -15.2800   10.2710  -24.7240 C.3   1181  G751181     0.1804
     20  C41      -14.5510   11.3750  -23.9400 C.3   1181  G751181     0.0575
     21  C51      -13.1300   11.5050  -24.4110 C.ar  1181  G751181    -0.0200
     22  C55      -12.1450   10.6850  -23.8640 C.ar  1181  G751181    -0.0042
     23  C11      -10.8330   10.8110  -24.3130 C.ar  1181  G751181    -0.0003
     24  C9       -10.4970   11.7370  -25.3020 C.ar  1181  G751181    -0.0000
     25  C7       -11.4810   12.5620  -25.8550 C.ar  1181  G751181    -0.0003
     26  C53      -12.8060   12.4450  -25.4040 C.ar  1181  G751181    -0.0042
     27  N33      -15.1870   10.6140  -26.1560 N.am  1181  G751181    -0.1607
     28  C31      -15.9490   10.2020  -27.2040 C.2   1181  G751181     0.4219
     29  O35      -16.9090    9.4260  -27.1300 O.2   1181  G751181    -0.2245
     30  O1       -15.5990   10.7320  -28.5330 O.3   1181  G751181    -0.4285
     31  C1       -16.3430   10.3630  -29.6980 C.3   1181  G751181     0.2368
     32  C2       -15.4550    9.8630  -30.8310 C.ar  1181  G751181     0.0213
     33  C4       -15.5860    8.5490  -31.3020 C.ar  1181  G751181    -0.0007
     34  C6       -14.7920    8.0680  -32.3540 C.ar  1181  G751181    -0.0002
     35  C8       -13.8420    8.9060  -32.9450 C.ar  1181  G751181    -0.0000
     36  C12      -13.7050   10.2260  -32.4770 C.ar  1181  G751181    -0.0002
     37  C10      -14.5050   10.7010  -31.4200 C.ar  1181  G751181    -0.0007
@<TRIPOS>BOND
     1    35    36   ar
     2    35    34   ar
     3    36    37   ar
     4    34    33   ar
     5    37    32   ar
     6    33    32   ar
     7    32    31    1
     8    31    30    1
     9    30    28    1
    10    28    29    2
    11    28    27   am
    12    27    19    1
    13    13    14    1
    14    13    11    2
    15    14    15    1
    16    25    26   ar
    17    25    24   ar
    18    11    12    2
    19    11    10    1
    20    26    21   ar
    21    24    23   ar
    22    15    10    1
    23    10     9    1
    24    19    17    1
    25    19    20    1
    26    18    17    2
    27    21    20    1
    28    21    22   ar
    29    23    22   ar
    30    17    16   am
    31     9     8    1
    32    16     8    1
    33     8     7    1
    34     7     6    1
    35     6     2    1
    36     2     1    2
    37     2     3    1
    38     3     4    1
    39     4     5    1
