@<TRIPOS>MOLECULE
3zz7_G81_A_1.pdb
 34 35 0 0 0
SMALL
GASTEIGER

@<TRIPOS>ATOM
      1  O35       16.7890    9.5310   27.0090 O.2   1181  G811181    -0.2246
      2  C31       15.8510   10.3480   27.0510 C.2   1181  G811181     0.4213
      3  O1        15.4240   10.9800   28.2940 O.3   1181  G811181    -0.4408
      4  C1        15.9850   10.8490   29.5820 C.3   1181  G811181     0.1379
      5  C2        17.4690   11.1850   29.4860 C.3   1181  G811181     0.0437
      6  C4        15.2680   11.8620   30.4760 C.3   1181  G811181     0.0437
      7  C6        15.7310    9.4400   30.0990 C.3   1181  G811181     0.0437
      8  N33       15.1120   10.7850   26.0240 N.am  1181  G811181    -0.1607
      9  C37       15.2160   10.4210   24.6310 C.3   1181  G811181     0.1804
     10  C41       14.3990   11.4530   23.8810 C.3   1181  G811181     0.0575
     11  C51       13.0150   11.3770   24.4760 C.ar  1181  G811181    -0.0200
     12  C53       12.1730   10.3180   24.1430 C.ar  1181  G811181    -0.0042
     13  C7        10.8930   10.2590   24.7020 C.ar  1181  G811181    -0.0003
     14  C9        10.4530   11.2460   25.5900 C.ar  1181  G811181    -0.0000
     15  C11       11.2970   12.3020   25.9380 C.ar  1181  G811181    -0.0003
     16  C55       12.5780   12.3670   25.3780 C.ar  1181  G811181    -0.0042
     17  C39       16.6220   10.5000   24.1670 C.2   1181  G811181     0.2616
     18  O47       17.3500   11.4060   24.5240 O.2   1181  G811181    -0.2715
     19  N49       16.9850    9.5150   23.3680 N.am  1181  G811181    -0.2057
     20  C57       18.3170    9.4390   22.8320 C.3   1181  G811181     0.0970
     21  C59       18.9530    8.3690   23.7300 C.3   1181  G811181     0.0383
     22  C61       20.3660    8.7050   24.1970 C.3   1181  G811181     0.1100
     23  C73       20.5650   10.0670   24.8950 C.3   1181  G811181     0.0438
     24  C71       21.5920    9.8120   26.0130 C.3   1181  G811181     0.1387
     25  N69       21.5200    8.3560   26.1210 N.2   1181  G811181    -0.2063
     26  C65       20.8970    7.7330   25.2100 C.1   1181  G811181     0.1250
     27  O66       20.7540    6.5150   25.1090 O.2   1181  G811181    -0.2271
     28  C63       18.1050    9.0610   21.3630 C.3   1181  G811181     0.0333
     29  C82       17.2530   10.1040   20.6140 C.3   1181  G811181     0.1113
     30  C84       17.9760   11.3670   20.1630 C.2   1181  G811181     0.3170
     31  O88       17.4520   12.4350   20.4040 O.2   1181  G811181    -0.2501
     32  O86       19.2520   11.3730   19.4260 O.3   1181  G811181    -0.4485
     33  C3        19.4250   12.1680   18.2350 C.3   1181  G811181     0.2086
     34  C5        19.1870   11.3600   16.9650 C.3   1181  G811181     0.0513
@<TRIPOS>BOND
     1    34    33    1
     2    33    32    1
     3    32    30    1
     4    30    31    2
     5    30    29    1
     6    29    28    1
     7    28    20    1
     8    20    19    1
     9    20    21    1
    10    19    17   am
    11    21    22    1
    12    10    11    1
    13    10     9    1
    14    12    11   ar
    15    12    13   ar
    16    17    18    2
    17    17     9    1
    18    22    23    1
    19    22    26    1
    20    11    16   ar
    21     9     8    1
    22    13    14   ar
    23    23    24    1
    24    27    26    2
    25    26    25    2
    26    16    15   ar
    27    14    15   ar
    28    24    25    1
    29     8     2   am
    30     1     2    2
    31     2     3    1
    32     3     4    1
    33     5     4    1
    34     4     7    1
    35     4     6    1
