@<TRIPOS>MOLECULE
3zz8_G82_A_1.pdb
 50 52 0 0 0
SMALL
GASTEIGER

@<TRIPOS>ATOM
      1  O88      -18.9700    9.5420  -17.3860 O.2   1181  G821181    -0.2501
      2  C84      -18.7340   10.6300  -17.9530 C.2   1181  G821181     0.3170
      3  O86      -19.2530   11.8310  -17.3220 O.3   1181  G821181    -0.4485
      4  C3       -18.9300   12.1150  -15.9550 C.3   1181  G821181     0.2086
      5  C5       -20.1330   12.7510  -15.2980 C.3   1181  G821181     0.0513
      6  C82      -17.9170   10.8260  -19.2300 C.3   1181  G821181     0.1113
      7  C63      -17.6880    9.5760  -20.1030 C.3   1181  G821181     0.0334
      8  C57      -17.7220    9.9990  -21.5860 C.3   1181  G821181     0.0973
      9  C59      -18.5610    9.0450  -22.4280 C.3   1181  G821181     0.0427
     10  C61      -18.5740    9.4290  -23.9050 C.3   1181  G821181     0.1317
     11  C73      -18.9380   10.8810  -24.2310 C.2   1181  G821181     0.0116
     12  C71      -20.0420   10.8640  -25.2960 C.2   1181  G821181     0.1073
     13  N69      -20.3810    9.4490  -25.2900 N.2   1181  G821181    -0.1785
     14  C65      -19.6680    8.6870  -24.5750 C.1   1181  G821181     0.1336
     15  O66      -19.8410    7.3860  -24.3950 O.2   1181  G821181    -0.2264
     16  N49      -16.3660    9.9780  -22.1750 N.am  1181  G821181    -0.2057
     17  C39      -15.7830   11.1290  -22.5730 C.2   1181  G821181     0.2615
     18  O47      -16.3420   12.2150  -22.4530 O.2   1181  G821181    -0.2715
     19  C37      -14.3900   11.0800  -23.1700 C.3   1181  G821181     0.1771
     20  C41      -13.5170   12.0010  -22.2980 C.3   1181  G821181     0.0574
     21  C51      -12.0420   12.1610  -22.6340 C.ar  1181  G821181    -0.0200
     22  C55      -11.3010   11.1780  -23.3040 C.ar  1181  G821181    -0.0042
     23  C11       -9.9480   11.3930  -23.5740 C.ar  1181  G821181    -0.0003
     24  C9        -9.3340   12.5870  -23.1880 C.ar  1181  G821181    -0.0000
     25  C7       -10.0630   13.5670  -22.5160 C.ar  1181  G821181    -0.0003
     26  C53      -11.4150   13.3550  -22.2440 C.ar  1181  G821181    -0.0042
     27  N33      -14.3150   11.6060  -24.5340 N.am  1181  G821181    -0.1960
     28  C31      -14.9900   11.1480  -25.6110 C.2   1181  G821181     0.2617
     29  O35      -15.7920   10.2140  -25.5910 O.2   1181  G821181    -0.2715
     30  C23      -14.6990   11.8800  -26.9090 C.3   1181  G821181     0.1767
     31  C25      -15.4000   13.2360  -26.8450 C.3   1181  G821181     0.0429
     32  C15      -15.7820   13.8780  -28.1820 C.3   1181  G821181     0.1118
     33  C14      -17.1360   14.5300  -27.9740 C.2   1181  G821181     0.3168
     34  O2       -17.2810   15.6030  -26.9760 O.3   1181  G821181    -0.4557
     35  C29      -16.9190   16.9860  -27.1290 C.3   1181  G821181     0.1363
     36  C45      -17.9020   17.7690  -26.2590 C.3   1181  G821181     0.0437
     37  C43      -17.0270   17.4080  -28.6010 C.3   1181  G821181     0.0437
     38  C12      -15.5100   17.2390  -26.5830 C.3   1181  G821181     0.0437
     39  O1       -18.1210   14.1390  -28.6010 O.2   1181  G821181    -0.2501
     40  N21      -15.0990   11.1660  -28.1350 N.am  1181  G821181    -0.1611
     41  C17      -14.2840   11.0320  -29.2050 C.2   1181  G821181     0.4218
     42  O19      -13.1560   11.5120  -29.2410 O.2   1181  G821181    -0.2245
     43  O15      -14.7140   10.3050  -30.4030 O.3   1181  G821181    -0.4285
     44  C13      -14.9900   11.0110  -31.6210 C.3   1181  G821181     0.2368
     45  C4       -14.0810   10.5540  -32.7510 C.ar  1181  G821181     0.0213
     46  C2       -14.0520    9.2080  -33.1520 C.ar  1181  G821181    -0.0007
     47  C1       -13.2110    8.8070  -34.2040 C.ar  1181  G821181    -0.0002
     48  C10      -12.3940    9.7370  -34.8570 C.ar  1181  G821181    -0.0000
     49  C8       -12.4220   11.0790  -34.4600 C.ar  1181  G821181    -0.0002
     50  C6       -13.2650   11.4860  -33.4140 C.ar  1181  G821181    -0.0007
@<TRIPOS>BOND
     1    48    49   ar
     2    48    47   ar
     3    49    50   ar
     4    47    46   ar
     5    50    45   ar
     6    46    45   ar
     7    45    44    1
     8    44    43    1
     9    43    41    1
    10    42    41    2
    11    41    40   am
    12    39    33    2
    13    37    35    1
    14    32    33    1
    15    32    31    1
    16    40    30    1
    17    33    34    1
    18    35    34    1
    19    35    38    1
    20    35    36    1
    21    30    31    1
    22    30    28    1
    23    28    29    2
    24    28    27   am
    25    12    13    1
    26    12    11    2
    27    13    14    2
    28    14    15    2
    29    14    10    1
    30    27    19    1
    31    11    10    1
    32    10     9    1
    33    23    22   ar
    34    23    24   ar
    35    22    21   ar
    36    24    25   ar
    37    19    17    1
    38    19    20    1
    39    21    20    1
    40    21    26   ar
    41    17    18    2
    42    17    16   am
    43    25    26   ar
    44     9     8    1
    45    16     8    1
    46     8     7    1
    47     7     6    1
    48     6     2    1
    49     2     1    2
    50     2     3    1
    51     3     4    1
    52     4     5    1
