@<TRIPOS>MOLECULE
3zz9_G83_A_1.pdb
 49 51 0 0 0
SMALL
GASTEIGER

@<TRIPOS>ATOM
      1  O19       13.9190   11.3970   29.7240 O.2   1181  G831181    -0.2245
      2  C17       14.9780   10.7780   29.7400 C.2   1181  G831181     0.4219
      3  O15       15.3260   10.0120   30.9470 O.3   1181  G831181    -0.4285
      4  C13       14.4770    9.9350   32.1110 C.3   1181  G831181     0.2368
      5  C4        14.6140   11.0600   33.1460 C.ar  1181  G831181     0.0213
      6  C6        14.3200   10.7870   34.4940 C.ar  1181  G831181    -0.0007
      7  C8        14.4310   11.7890   35.4670 C.ar  1181  G831181    -0.0002
      8  C10       14.8290   13.0810   35.1000 C.ar  1181  G831181    -0.0000
      9  C1        15.1200   13.3730   33.7620 C.ar  1181  G831181    -0.0002
     10  C2        15.0120   12.3660   32.7930 C.ar  1181  G831181    -0.0007
     11  N21       15.8030   10.8070   28.6760 N.am  1181  G831181    -0.1605
     12  C23       15.4730   11.6050   27.4830 C.3   1181  G831181     0.1872
     13  C25       16.5760   12.6630   27.4450 C.3   1181  G831181     0.1406
     14  C14       16.5680   13.4430   28.7520 C.2   1181  G831181     0.3190
     15  O1        15.7420   14.3410   28.9200 O.2   1181  G831181    -0.2500
     16  O2        17.5030   13.0870   29.8370 O.3   1181  G831181    -0.4557
     17  C29       18.8590   13.5310   29.9620 C.3   1181  G831181     0.1363
     18  C12       18.9490   15.0190   29.5800 C.3   1181  G831181     0.0437
     19  C43       19.2550   13.3140   31.4210 C.3   1181  G831181     0.0437
     20  C45       19.7650   12.6890   29.0660 C.3   1181  G831181     0.0437
     21  C31       15.4800   10.8980   26.1460 C.2   1181  G831181     0.2623
     22  O35       16.1080    9.8580   26.0100 O.2   1181  G831181    -0.2715
     23  N33       14.7980   11.5060   25.1520 N.am  1181  G831181    -0.1960
     24  C37       14.6990   11.0000   23.7840 C.3   1181  G831181     0.1771
     25  C41       13.7890   12.0060   23.0910 C.3   1181  G831181     0.0574
     26  C51       12.3060   11.8780   23.3850 C.ar  1181  G831181    -0.0200
     27  C53       11.4310   12.7210   22.6900 C.ar  1181  G831181    -0.0042
     28  C7        10.0600   12.6500   22.9250 C.ar  1181  G831181    -0.0003
     29  C9         9.5650   11.7310   23.8590 C.ar  1181  G831181    -0.0000
     30  C11       10.4330   10.8950   24.5610 C.ar  1181  G831181    -0.0003
     31  C55       11.8040   10.9660   24.3220 C.ar  1181  G831181    -0.0042
     32  C39       16.0350   11.0690   23.0860 C.2   1181  G831181     0.2615
     33  O47       16.5600   12.1650   22.9080 O.2   1181  G831181    -0.2715
     34  N49       16.6180    9.9210   22.6800 N.am  1181  G831181    -0.2057
     35  C57       17.9250    9.9210   21.9800 C.3   1181  G831181     0.0973
     36  C59       18.8650    8.9750   22.7410 C.3   1181  G831181     0.0427
     37  C61       18.8490    9.1950   24.2620 C.3   1181  G831181     0.1317
     38  C73       19.0690   10.6680   24.6850 C.2   1181  G831181     0.0116
     39  C71       20.3040   10.7790   25.5890 C.2   1181  G831181     0.1073
     40  N69       20.7350    9.3910   25.6000 N.2   1181  G831181    -0.1785
     41  C65       20.0020    8.5120   24.9160 C.1   1181  G831181     0.1336
     42  O66       20.2230    7.3230   24.8150 O.2   1181  G831181    -0.2264
     43  C63       17.7000    9.4740   20.5170 C.3   1181  G831181     0.0334
     44  C82       17.7420   10.6820   19.5860 C.3   1181  G831181     0.1113
     45  C84       18.8420   10.5650   18.5330 C.2   1181  G831181     0.3170
     46  O88       19.4190    9.5100   18.2410 O.2   1181  G831181    -0.2501
     47  O86       19.2200   11.7630   17.7920 O.3   1181  G831181    -0.4485
     48  C3        19.0390   11.8780   16.3620 C.3   1181  G831181     0.2086
     49  C5        19.9160   12.9840   15.7850 C.3   1181  G831181     0.0513
@<TRIPOS>BOND
     1    49    48    1
     2    48    47    1
     3    47    45    1
     4    46    45    2
     5    45    44    1
     6    44    43    1
     7    43    35    1
     8    35    34    1
     9    35    36    1
    10    34    32   am
    11    27    28   ar
    12    27    26   ar
    13    36    37    1
    14    33    32    2
    15    28    29   ar
    16    32    24    1
    17    25    26    1
    18    25    24    1
    19    26    31   ar
    20    24    23    1
    21    29    30   ar
    22    37    38    1
    23    37    41    1
    24    31    30   ar
    25    38    39    2
    26    42    41    2
    27    41    40    2
    28    23    21   am
    29    39    40    1
    30    22    21    2
    31    21    12    1
    32    13    12    1
    33    13    14    1
    34    12    11    1
    35    11     2   am
    36    14    15    2
    37    14    16    1
    38    20    17    1
    39    18    17    1
    40     1     2    2
    41     2     3    1
    42    16    17    1
    43    17    19    1
    44     3     4    1
    45     4     5    1
    46    10     5   ar
    47    10     9   ar
    48     5     6   ar
    49     9     8   ar
    50     6     7   ar
    51     8     7   ar
