@<TRIPOS>MOLECULE
3zzb_G85_A_1.pdb
 47 49 0 0 0
SMALL
GASTEIGER

@<TRIPOS>ATOM
      1  C1        16.4660    6.0170   33.3360 C.ar  1181  G851181    -0.0002
      2  C2        15.8800    6.9480   32.4870 C.ar  1181  G851181    -0.0007
      3  C3        18.2460   12.9600   17.4320 C.3   1181  G851181     0.2086
      4  C4        15.4290    8.1680   32.9930 C.ar  1181  G851181     0.0213
      5  C5        19.0940   12.0300   16.5590 C.3   1181  G851181     0.0513
      6  C6        15.5640    8.4750   34.3380 C.ar  1181  G851181    -0.0007
      7  C7        10.8770   12.1500   24.9080 C.ar  1181  G851181    -0.0003
      8  C8        16.1610    7.5390   35.1790 C.ar  1181  G851181    -0.0002
      9  C9        10.2700   10.8940   24.9740 C.ar  1181  G851181    -0.0000
     10  C10       16.6060    6.3090   34.6870 C.ar  1181  G851181    -0.0000
     11  C11       10.9660    9.7470   24.5700 C.ar  1181  G851181    -0.0003
     12  C12       19.9860   11.3300   29.0970 C.3   1181  G851181     0.0296
     13  C13       14.7820    9.1680   32.0730 C.3   1181  G851181     0.2368
     14  O15       15.5980    9.2520   30.9140 O.3   1181  G851181    -0.4285
     15  C17       15.3720   10.2690   29.9150 C.2   1181  G851181     0.4219
     16  O19       14.4110   11.0470   30.0040 O.2   1181  G851181    -0.2245
     17  N21       16.2680   10.2690   28.9470 N.am  1181  G851181    -0.1584
     18  C23       16.2120   11.1780   27.8250 C.3   1181  G851181     0.2054
     19  C25       17.4700   12.0500   27.8610 C.3   1181  G851181     0.1730
     20  O27       17.7790   12.4300   29.2140 O.3   1181  G851181    -0.3562
     21  C29       19.1850   12.5650   29.5260 C.3   1181  G851181     0.0931
     22  C31       16.1470   10.4000   26.5150 C.2   1181  G851181     0.2643
     23  N33       15.3550   10.9370   25.5720 N.am  1181  G851181    -0.1959
     24  O35       16.7760    9.3440   26.3590 O.2   1181  G851181    -0.2714
     25  C37       15.2330   10.3360   24.2660 C.3   1181  G851181     0.1771
     26  C39       16.5980   10.4240   23.6410 C.2   1181  G851181     0.2615
     27  C41       14.2890   11.2360   23.4900 C.3   1181  G851181     0.0574
     28  C43       19.2990   12.6200   31.0460 C.3   1181  G851181     0.0296
     29  C45       19.7670   13.8030   28.8420 C.3   1181  G851181     0.0296
     30  O47       17.3100   11.3880   23.8910 O.2   1181  G851181    -0.2715
     31  N49       16.9940    9.4030   22.8700 N.am  1181  G851181    -0.2057
     32  C51       12.8750   11.0900   24.0100 C.ar  1181  G851181    -0.0200
     33  C53       12.1850   12.2470   24.4140 C.ar  1181  G851181    -0.0042
     34  C55       12.2650    9.8290   24.0780 C.ar  1181  G851181    -0.0042
     35  C57       18.2970    9.4850   22.2400 C.3   1181  G851181     0.0970
     36  C59       19.3050    8.5860   22.9880 C.3   1181  G851181     0.0383
     37  C61       19.6200    8.9320   24.4560 C.3   1181  G851181     0.1100
     38  C63       18.0050    9.0840   20.7800 C.3   1181  G851181     0.0333
     39  C65       20.4220    7.8400   25.0930 C.1   1181  G851181     0.1250
     40  O66       20.3270    6.6550   24.7790 O.2   1181  G851181    -0.2271
     41  N69       21.2260    8.3760   26.0090 N.2   1181  G851181    -0.2063
     42  C71       21.5280    9.7870   25.7850 C.3   1181  G851181     0.1387
     43  C73       20.5270   10.1560   24.6800 C.3   1181  G851181     0.0438
     44  C82       17.5420   10.3400   19.9720 C.3   1181  G851181     0.1113
     45  C84       18.5670   11.4110   19.5090 C.2   1181  G851181     0.3170
     46  O86       18.1240   12.6600   18.8650 O.3   1181  G851181    -0.4485
     47  O88       19.7860   11.2980   19.6550 O.2   1181  G851181    -0.2501
@<TRIPOS>BOND
     1     5     3    1
     2     3    46    1
     3    46    45    1
     4    45    47    2
     5    45    44    1
     6    44    38    1
     7    38    35    1
     8    35    31    1
     9    35    36    1
    10    31    26   am
    11    36    37    1
    12    27    32    1
    13    27    25    1
    14    26    30    2
    15    26    25    1
    16    32    34   ar
    17    32    33   ar
    18    34    11   ar
    19    25    23    1
    20    33     7   ar
    21    37    43    1
    22    37    39    1
    23    11     9   ar
    24    43    42    1
    25    40    39    2
    26     7     9   ar
    27    39    41    2
    28    23    22   am
    29    42    41    1
    30    24    22    2
    31    22    18    1
    32    18    19    1
    33    18    17    1
    34    19    20    1
    35    29    21    1
    36    17    15   am
    37    12    21    1
    38    20    21    1
    39    21    28    1
    40    15    16    2
    41    15    14    1
    42    14    13    1
    43    13     4    1
    44     2     4   ar
    45     2     1   ar
    46     4     6   ar
    47     1    10   ar
    48     6     8   ar
    49    10     8   ar
