@<TRIPOS>MOLECULE
3zzc_G83_A_1.pdb
 49 51 0 0 0
SMALL
GASTEIGER

@<TRIPOS>ATOM
      1  O19      -14.4350   -6.1400  -13.2970 O.2   1181  G831181    -0.2245
      2  C17      -13.6060   -5.6420  -14.0720 C.2   1181  G831181     0.4219
      3  O15      -13.6980   -5.9130  -15.5050 O.3   1181  G831181    -0.4285
      4  C13      -14.3780   -7.0480  -16.0560 C.3   1181  G831181     0.2368
      5  C4       -14.0750   -7.0570  -17.5220 C.ar  1181  G831181     0.0213
      6  C6       -14.2740   -5.8880  -18.2620 C.ar  1181  G831181    -0.0007
      7  C8       -14.0060   -5.8700  -19.6220 C.ar  1181  G831181    -0.0002
      8  C10      -13.5070   -7.0460  -20.2380 C.ar  1181  G831181    -0.0000
      9  C1       -13.2830   -8.2070  -19.4890 C.ar  1181  G831181    -0.0002
     10  C2       -13.5810   -8.2180  -18.1060 C.ar  1181  G831181    -0.0007
     11  N21      -12.6250   -4.8290  -13.6660 N.am  1181  G831181    -0.1605
     12  C23      -12.5250   -4.5260  -12.2650 C.3   1181  G831181     0.1872
     13  C25      -11.0850   -4.9080  -12.0080 C.3   1181  G831181     0.1406
     14  C14      -10.9210   -6.3340  -11.6470 C.2   1181  G831181     0.3190
     15  O1       -11.5530   -6.8880  -10.7380 O.2   1181  G831181    -0.2500
     16  O2        -9.9300   -7.0620  -12.3980 O.3   1181  G831181    -0.4557
     17  C29       -8.5430   -7.0880  -12.0420 C.3   1181  G831181     0.1363
     18  C12       -8.2220   -6.3540  -10.7310 C.3   1181  G831181     0.0437
     19  C43       -7.8390   -6.3980  -13.2040 C.3   1181  G831181     0.0437
     20  C45       -8.1190   -8.5530  -11.8910 C.3   1181  G831181     0.0437
     21  C31      -12.5500   -3.0570  -11.9700 C.2   1181  G831181     0.2623
     22  O35      -12.0970   -2.2800  -12.8210 O.2   1181  G831181    -0.2715
     23  N33      -12.9730   -2.7050  -10.7390 N.am  1181  G831181    -0.1960
     24  C37      -12.9690   -1.3060  -10.2880 C.3   1181  G831181     0.1771
     25  C41      -13.6080   -1.2280   -8.8960 C.3   1181  G831181     0.0574
     26  C51      -15.0870   -1.5490   -8.9720 C.ar  1181  G831181    -0.0200
     27  C53      -15.9250   -0.9000   -9.8780 C.ar  1181  G831181    -0.0042
     28  C7       -17.2940   -1.2360   -9.9700 C.ar  1181  G831181    -0.0003
     29  C9       -17.8660   -2.2100   -9.1310 C.ar  1181  G831181    -0.0000
     30  C11      -17.0170   -2.8340   -8.2010 C.ar  1181  G831181    -0.0003
     31  C55      -15.6300   -2.5300   -8.1230 C.ar  1181  G831181    -0.0042
     32  C39      -11.5220   -0.9010  -10.1270 C.2   1181  G831181     0.2615
     33  O47      -10.7060   -1.6880   -9.6320 O.2   1181  G831181    -0.2715
     34  N49      -11.2170    0.3280  -10.5520 N.am  1181  G831181    -0.2057
     35  C57       -9.8690    0.8880  -10.5110 C.3   1181  G831181     0.0970
     36  C59       -9.3590    0.9700  -11.9540 C.3   1181  G831181     0.0383
     37  C61       -9.2300   -0.3880  -12.6850 C.3   1181  G831181     0.1100
     38  C73       -8.3310   -1.4820  -12.1070 C.3   1181  G831181     0.0438
     39  C71       -7.7800   -2.2680  -13.3210 C.3   1181  G831181     0.1387
     40  N69       -7.9610   -1.2640  -14.3640 N.2   1181  G831181    -0.2063
     41  C65       -8.6030   -0.2130  -14.0460 C.1   1181  G831181     0.1250
     42  O66       -8.7750    0.8120  -14.7080 O.2   1181  G831181    -0.2271
     43  C63       -9.9900    2.2880   -9.8630 C.3   1181  G831181     0.0333
     44  C82      -10.4720    2.1650   -8.4130 C.3   1181  G831181     0.1113
     45  C84       -9.4830    1.3520   -7.6040 C.2   1181  G831181     0.3170
     46  O88       -8.2800    1.4130   -7.8160 O.2   1181  G831181    -0.2501
     47  O86       -9.9700    0.4800   -6.5530 O.3   1181  G831181    -0.4485
     48  C3        -9.0910   -0.4570   -5.8960 C.3   1181  G831181     0.2086
     49  C5        -8.2370    0.2320   -4.8340 C.3   1181  G831181     0.0513
@<TRIPOS>BOND
     1     8     7   ar
     2     8     9   ar
     3     7     6   ar
     4     9    10   ar
     5     6     5   ar
     6    10     5   ar
     7     5     4    1
     8     4     3    1
     9     3     2    1
    10    42    41    2
    11    40    41    2
    12    40    39    1
    13     2    11   am
    14     2     1    2
    15    41    37    1
    16    11    12    1
    17    39    38    1
    18    19    17    1
    19    22    21    2
    20    37    38    1
    21    37    36    1
    22    16    17    1
    23    16    14    1
    24    12    13    1
    25    12    21    1
    26    17    20    1
    27    17    18    1
    28    13    14    1
    29    21    23   am
    30    36    35    1
    31    14    15    2
    32    23    24    1
    33    34    35    1
    34    34    32   am
    35    35    43    1
    36    24    32    1
    37    24    25    1
    38    32    33    2
    39    28    27   ar
    40    28    29   ar
    41    27    26   ar
    42    43    44    1
    43    29    30   ar
    44    26    25    1
    45    26    31   ar
    46    44    45    1
    47    30    31   ar
    48    46    45    2
    49    45    47    1
    50    47    48    1
    51    48    49    1
