@<TRIPOS>MOLECULE
3zzd_G85_A_1.pdb
 47 49 0 0 0
SMALL
GASTEIGER

@<TRIPOS>ATOM
      1  C1       -13.9790   -5.9580  -19.8160 C.ar  1181  G851181    -0.0002
      2  C2       -14.3000   -5.8290  -18.4690 C.ar  1181  G851181    -0.0007
      3  C3        -9.8940    0.7410   -5.3690 C.3   1181  G851181     0.2086
      4  C4       -14.1530   -6.9150  -17.5940 C.ar  1181  G851181     0.0213
      5  C5       -11.2820    0.4090   -4.8460 C.3   1181  G851181     0.0513
      6  C6       -13.6620   -8.1310  -18.0610 C.ar  1181  G851181    -0.0007
      7  C7       -17.2700   -1.2000  -10.0710 C.ar  1181  G851181    -0.0003
      8  C8       -13.3150   -8.2650  -19.4290 C.ar  1181  G851181    -0.0002
      9  C9       -17.9170   -2.1120   -9.2210 C.ar  1181  G851181    -0.0000
     10  C10      -13.4750   -7.1950  -20.3070 C.ar  1181  G851181    -0.0000
     11  C11      -17.1350   -2.7300   -8.2320 C.ar  1181  G851181    -0.0003
     12  C12       -8.4150   -6.2630  -10.8760 C.3   1181  G851181     0.0296
     13  C13      -14.5280   -6.7740  -16.1310 C.3   1181  G851181     0.2368
     14  O15      -13.6690   -5.8080  -15.5040 O.3   1181  G851181    -0.4285
     15  C17      -13.5870   -5.6040  -14.0590 C.2   1181  G851181     0.4219
     16  O19      -14.4540   -6.0820  -13.3190 O.2   1181  G851181    -0.2245
     17  N21      -12.5480   -4.8870  -13.6220 N.am  1181  G851181    -0.1584
     18  C23      -12.3730   -4.6180  -12.2220 C.3   1181  G851181     0.2054
     19  C25      -10.9020   -4.9900  -12.0210 C.3   1181  G851181     0.1730
     20  O27      -10.6620   -6.4090  -11.9790 O.3   1181  G851181    -0.3562
     21  C29       -9.2770   -6.8920  -11.9870 C.3   1181  G851181     0.0931
     22  C31      -12.4970   -3.1410  -11.9290 C.2   1181  G851181     0.2643
     23  N33      -12.9290   -2.7890  -10.6920 N.am  1181  G851181    -0.1959
     24  O35      -12.1230   -2.3300  -12.8040 O.2   1181  G851181    -0.2714
     25  C37      -12.9990   -1.3830  -10.2720 C.3   1181  G851181     0.1771
     26  C39      -11.5700   -0.9030  -10.1450 C.2   1181  G851181     0.2615
     27  C41      -13.6440   -1.2910   -8.8830 C.3   1181  G851181     0.0574
     28  C43       -9.2630   -8.4000  -11.6970 C.3   1181  G851181     0.0296
     29  C45       -8.6110   -6.6320  -13.3410 C.3   1181  G851181     0.0296
     30  O47      -10.7070   -1.6120   -9.6200 O.2   1181  G851181    -0.2715
     31  N49      -11.2880    0.3080  -10.6260 N.am  1181  G851181    -0.2057
     32  C51      -15.1290   -1.5580   -8.9810 C.ar  1181  G851181    -0.0200
     33  C53      -15.9010   -0.9220   -9.9530 C.ar  1181  G851181    -0.0042
     34  C55      -15.7430   -2.4760   -8.1200 C.ar  1181  G851181    -0.0042
     35  C57       -9.9290    0.8700  -10.5710 C.3   1181  G851181     0.0970
     36  C59       -9.3930    0.9720  -12.0020 C.3   1181  G851181     0.0383
     37  C61       -9.2790   -0.3720  -12.7410 C.3   1181  G851181     0.1100
     38  C63      -10.0070    2.2800   -9.9300 C.3   1181  G851181     0.0333
     39  C65       -8.6600   -0.1720  -14.0930 C.1   1181  G851181     0.1250
     40  O66       -8.8670    0.8290  -14.7670 O.2   1181  G851181    -0.2271
     41  N69       -7.9540   -1.1790  -14.3860 N.2   1181  G851181    -0.2063
     42  C71       -7.7520   -2.1890  -13.3500 C.3   1181  G851181     0.1387
     43  C73       -8.3460   -1.4290  -12.1510 C.3   1181  G851181     0.0438
     44  C82      -10.3460    2.1590   -8.4400 C.3   1181  G851181     0.1113
     45  C84       -9.3170    1.3340   -7.6850 C.2   1181  G851181     0.3170
     46  O86       -9.7580    0.3400   -6.7370 O.3   1181  G851181    -0.4485
     47  O88       -8.1260    1.4850   -7.8450 O.2   1181  G851181    -0.2501
@<TRIPOS>BOND
     1    10     1   ar
     2    10     8   ar
     3     1     2   ar
     4     8     6   ar
     5     2     4   ar
     6     6     4   ar
     7     4    13    1
     8    13    14    1
     9    14    15    1
    10    40    39    2
    11    41    39    2
    12    41    42    1
    13    39    37    1
    14    15    17   am
    15    15    16    2
    16    17    18    1
    17    42    43    1
    18    29    21    1
    19    24    22    2
    20    37    43    1
    21    37    36    1
    22    18    19    1
    23    18    22    1
    24    19    20    1
    25    36    35    1
    26    21    20    1
    27    21    28    1
    28    21    12    1
    29    22    23   am
    30    23    25    1
    31    31    35    1
    32    31    26   am
    33    35    38    1
    34    25    26    1
    35    25    27    1
    36    26    30    2
    37     7    33   ar
    38     7     9   ar
    39    33    32   ar
    40    38    44    1
    41     9    11   ar
    42    32    27    1
    43    32    34   ar
    44    44    45    1
    45    11    34   ar
    46    47    45    2
    47    45    46    1
    48    46     3    1
    49     3     5    1
