@<TRIPOS>MOLECULE
3zze_6XP_A_1.pdb
 25 27 0 0 0
SMALL
GASTEIGER

@<TRIPOS>ATOM
      1  C50       19.7130    7.1210    8.2550 C.3   2345  6XP2345     0.0144
      2  C2        16.9290    8.1040    7.8770 C.ar  2345  6XP2345    -0.0005
      3  C6        17.5310    8.4050    5.4870 C.ar  2345  6XP2345    -0.0005
      4  C3        15.5250    8.1100    7.5120 C.ar  2345  6XP2345     0.0417
      5  C5        16.1480    8.4120    5.1220 C.ar  2345  6XP2345     0.0417
      6  C19       19.9560    9.5880    7.8300 C.2   2345  6XP2345     0.2663
      7  C24       21.1430   14.8090    1.3270 C.3   2345  6XP2345     0.0337
      8  C20       19.4560    8.2530    7.2430 C.3   2345  6XP2345     0.1022
      9  N13       20.9090   13.6360    4.1290 N.2   2345  6XP2345    -0.3319
     10  N17       20.1210   10.4080    5.5880 N.2   2345  6XP2345    -0.1431
     11  N18       20.3730   10.5830    6.9720 N.am  2345  6XP2345    -0.0783
     12  O16       20.8300   13.1160    6.3960 O.2   2345  6XP2345    -0.2077
     13  O21       19.9710    9.7730    9.0510 O.2   2345  6XP2345    -0.2711
     14  O22       13.8350    8.2710    5.7940 O.3   2345  6XP2345    -0.2866
     15 CL2        19.6810    8.9150    2.5140 Cl    2345  6XP2345    -0.0821
     16  C1        17.9610    8.2510    6.8590 C.ar  2345  6XP2345    -0.0136
     17  C4        15.1550    8.2650    6.1330 C.ar  2345  6XP2345     0.1957
     18  C8        20.5250   12.4290    0.6130 C.ar  2345  6XP2345    -0.0008
     19  C7        20.1740   11.0110    0.9300 C.ar  2345  6XP2345     0.0113
     20  C11       20.3470   11.4960    3.3590 C.ar  2345  6XP2345     0.0722
     21  C9        20.7860   13.3760    1.6000 C.ar  2345  6XP2345     0.0088
     22  C15       20.3610   11.4340    4.7020 C.2   2345  6XP2345     0.1976
     23  C10       20.0880   10.5640    2.2350 C.ar  2345  6XP2345     0.0624
     24  C12       20.7030   12.9230    3.0700 C.ar  2345  6XP2345     0.1435
     25  C14       20.7230   12.8080    5.2020 C.1   2345  6XP2345     0.2246
@<TRIPOS>BOND
     1    18    19   ar
     2    18    21   ar
     3    19    23   ar
     4     7    21    1
     5    21    24   ar
     6    23    15    1
     7    23    20   ar
     8    24    20   ar
     9    24     9    2
    10    20    22    2
    11     9    25    2
    12    22    25    1
    13    22    10    1
    14     5     3   ar
    15     5    17   ar
    16    25    12    2
    17     3    16   ar
    18    10    11    2
    19    14    17    1
    20    17     4   ar
    21    16     8    1
    22    16     2   ar
    23    11     6    1
    24     8     6    1
    25     8     1    1
    26     4     2   ar
    27     6    13    2
