@<TRIPOS>MOLECULE
3zzf_NLG_A_1.pdb
 13 12 0 0 0
SMALL
GASTEIGER

@<TRIPOS>ATOM
      1  CA         6.3750   32.3070    2.4190 C.3   1360  NLG1360     0.1983
      2  C          7.5560   31.7840    1.5760 C.2   1360  NLG1360     0.3842
      3  OXT        8.6130   32.4600    1.6000 O.co2 1360  NLG1360    -0.2437
      4  O          7.3940   30.7200    0.9280 O.co2 1360  NLG1360    -0.2437
      5  CB         6.3780   31.6520    3.8030 C.3   1360  NLG1360     0.0451
      6  CG         7.7310   31.7390    4.5120 C.3   1360  NLG1360     0.1164
      7  CD         7.9290   33.0690    5.2440 C.2   1360  NLG1360     0.3649
      8  OE1        9.0660   33.2520    5.7170 O.co2 1360  NLG1360    -0.2457
      9  OE2        6.9720   33.8800    5.2850 O.co2 1360  NLG1360    -0.2457
     10  C7         4.4860   32.6870    0.8540 C.2   1360  NLG1360     0.2423
     11  C8         3.2690   32.2260    0.3460 C.3   1360  NLG1360     0.0964
     12  O7         4.9360   33.7430    0.4210 O.2   1360  NLG1360    -0.2733
     13  N2         5.0950   31.9550    1.7810 N.am  1360  NLG1360    -0.1956
@<TRIPOS>BOND
     1    11    10    1
     2    12    10    2
     3    10    13   am
     4     4     2   ar
     5     2     3   ar
     6     2     1    1
     7    13     1    1
     8     1     5    1
     9     5     6    1
    10     6     7    1
    11     7     9   ar
    12     7     8   ar
