@<TRIPOS>MOLECULE
3zzh_NLG_A_1.pdb
 13 12 0 0 0
SMALL
GASTEIGER

@<TRIPOS>ATOM
      1  CA         5.7260    7.4160  -25.9980 C.3   1361  NLG1361     0.1983
      2  C          7.1020    7.9740  -26.4040 C.2   1361  NLG1361     0.3842
      3  OXT        7.5410    8.9760  -25.7990 O.co2 1361  NLG1361    -0.2437
      4  O          7.6790    7.3940  -27.3480 O.co2 1361  NLG1361    -0.2437
      5  CB         4.6300    8.1190  -26.8430 C.3   1361  NLG1361     0.0451
      6  CG         4.8800    8.0090  -28.3580 C.3   1361  NLG1361     0.1164
      7  CD         4.4730    6.6490  -28.9430 C.2   1361  NLG1361     0.3649
      8  OE1        4.8000    6.4510  -30.1290 O.co2 1361  NLG1361    -0.2457
      9  OE2        3.8590    5.8430  -28.2140 O.co2 1361  NLG1361    -0.2457
     10  C7         5.9780    6.8830  -23.5870 C.2   1361  NLG1361     0.2423
     11  C8         5.6710    7.2170  -22.2630 C.3   1361  NLG1361     0.0964
     12  O7         6.7060    5.9100  -23.7800 O.2   1361  NLG1361    -0.2733
     13  N2         5.4740    7.6380  -24.5660 N.am  1361  NLG1361    -0.1956
@<TRIPOS>BOND
     1     8     7   ar
     2     7     6    1
     3     7     9   ar
     4     6     5    1
     5     4     2   ar
     6     5     1    1
     7     2     1    1
     8     2     3   ar
     9     1    13    1
    10    13    10   am
    11    12    10    2
    12    10    11    1
