@<TRIPOS>MOLECULE
3zzh_ARG_C_1.pdb
 12 11 0 0 0
SMALL
GASTEIGER

@<TRIPOS>ATOM
      1  N        -29.5550   47.8070  -67.8570 N.3   1362  ARG1362    -0.1208
      2  CA       -30.8490   48.3810  -68.3280 C.3   1362  ARG1362     0.1944
      3  C        -31.5870   47.3650  -69.1780 C.2   1362  ARG1362     0.3819
      4  O        -32.7750   47.5220  -69.4520 O.co2 1362  ARG1362    -0.2441
      5  CB       -30.6190   49.6610  -69.1430 C.3   1362  ARG1362     0.0343
      6  CG       -29.6950   49.4870  -70.3420 C.3   1362  ARG1362     0.0490
      7  CD       -29.5850   50.7620  -71.1760 C.3   1362  ARG1362     0.2205
      8  NE       -28.8030   50.5440  -72.3930 N.pl3 1362  ARG1362    -0.0865
      9  CZ       -28.4480   51.5010  -73.2510 C.cat 1362  ARG1362     0.5346
     10  NH1      -28.8050   52.7670  -73.0470 N.pl3 1362  ARG1362     0.1354
     11  NH2      -27.7270   51.1880  -74.3240 N.pl3 1362  ARG1362     0.1354
     12  OXT      -30.9960   46.3790  -69.6170 O.co2 1362  ARG1362    -0.2441
@<TRIPOS>BOND
     1    11     9    1
     2     9    10    1
     3     9     8    2
     4     8     7    1
     5     7     6    1
     6     6     5    1
     7    12     3   ar
     8     4     3   ar
     9     3     2    1
    10     5     2    1
    11     2     1    1
