@<TRIPOS>MOLECULE
3zzj_PLP_A_1.pdb
 15 15 0 0 0
SMALL
GASTEIGER

@<TRIPOS>ATOM
      1  N1        37.4290   51.3650   34.4870 N.2   1246  PLP1246    -0.2458
      2  C2        36.3750   51.5690   35.3650 C.2   1246  PLP1246     0.0942
      3  C2A       36.1540   50.5880   36.4770 C.3   1246  PLP1246     0.0552
      4  C3        35.5260   52.6740   35.2200 C.2   1246  PLP1246     0.1899
      5  O3        34.5970   52.8390   36.0110 O.2   1246  PLP1246    -0.2898
      6  C4        35.7400   53.5940   34.1840 C.3   1246  PLP1246     0.0852
      7  C4A       34.8250   54.7900   34.0170 C.3   1246  PLP1246     0.0127
      8  C5        36.8090   53.3790   33.3040 C.2   1246  PLP1246     0.0118
      9  C6        37.6530   52.2700   33.4590 C.2   1246  PLP1246     0.0929
     10  C5A       37.0780   54.3270   32.1770 C.3   1246  PLP1246     0.1779
     11  O4P       37.4380   53.7490   30.9070 O.3   1246  PLP1246    -0.2656
     12  P         38.0530   54.6810   29.7810 P.3   1246  PLP1246     0.5329
     13  O1P       36.9590   55.6360   29.5280 O.3   1246  PLP1246    -0.1145
     14  O2P       38.3620   53.7510   28.6760 O.2   1246  PLP1246    -0.2224
     15  O3P       39.2410   55.2650   30.4170 O.3   1246  PLP1246    -0.1145
@<TRIPOS>BOND
     1    14    12    2
     2    13    12    1
     3    12    15    1
     4    12    11    1
     5    11    10    1
     6    10     8    1
     7     8     9    2
     8     8     6    1
     9     9     1    1
    10     7     6    1
    11     6     4    1
    12     1     2    2
    13     4     2    1
    14     4     5    2
    15     2     3    1
