@<TRIPOS>MOLECULE
3zzk_PMP_A_1.pdb
 16 16 0 0 0
SMALL
GASTEIGER

@<TRIPOS>ATOM
      1  N1        37.4840   50.6640   34.2810 N.ar  1397  PMP1397    -0.2452
      2  C2        36.4250   51.0380   35.0380 C.ar  1397  PMP1397     0.0978
      3  C2A       36.1290   50.2960   36.3090 C.3   1397  PMP1397     0.0555
      4  C3        35.5680   52.1720   34.6080 C.ar  1397  PMP1397     0.2063
      5  O3        34.5090   52.5700   35.3660 O.3   1397  PMP1397    -0.2856
      6  C4        35.9340   52.8580   33.3380 C.ar  1397  PMP1397     0.0369
      7  C4A       35.0890   54.0200   32.8630 C.3   1397  PMP1397     0.1386
      8  N4A       33.7980   53.5050   32.4580 N.3   1397  PMP1397    -0.1261
      9  C5        37.1330   52.3360   32.5990 C.ar  1397  PMP1397     0.0275
     10  C6        37.8330   51.2570   33.1340 C.ar  1397  PMP1397     0.0965
     11  C5A       37.6760   52.8700   31.2860 C.3   1397  PMP1397     0.1816
     12  O4P       37.1930   54.1560   30.8920 O.3   1397  PMP1397    -0.2653
     13  P         37.8470   54.8200   29.6040 P.3   1397  PMP1397     0.5329
     14  O1P       38.0990   53.7410   28.5720 O.2   1397  PMP1397    -0.2224
     15  O2P       39.1190   55.4150   30.1010 O.3   1397  PMP1397    -0.1145
     16  O3P       36.8840   55.8650   29.1370 O.3   1397  PMP1397    -0.1145
@<TRIPOS>BOND
     1    14    13    2
     2    16    13    1
     3    13    15    1
     4    13    12    1
     5    12    11    1
     6    11     9    1
     7     8     7    1
     8     9    10   ar
     9     9     6   ar
    10     7     6    1
    11    10     1   ar
    12     6     4   ar
    13     1     2   ar
    14     4     2   ar
    15     4     5    1
    16     2     3    1
