@<TRIPOS>MOLECULE
3zzl_TRP_A_1.pdb
 15 16 0 0 0
SMALL
GASTEIGER

@<TRIPOS>ATOM
      1  N         29.8130   13.5640   27.9370 N.3    81  TRP81      -0.1205
      2  CA        29.9750   12.6180   26.7930 C.3    81  TRP81       0.1987
      3  C         31.0950   11.6320   27.1110 C.2    81  TRP81       0.3822
      4  O         32.1640   12.0820   27.5760 O.co2  81  TRP81      -0.2440
      5  CB        30.2510   13.3410   25.4790 C.3    81  TRP81       0.0585
      6  CG        30.3560   12.4130   24.3150 C.2    81  TRP81       0.0001
      7  CD1       31.4990   11.8500   23.8330 C.2    81  TRP81       0.0946
      8  CD2       29.2830   11.8940   23.5090 C.2    81  TRP81       0.0113
      9  NE1       31.2120   11.0210   22.7950 N.2    81  TRP81      -0.2442
     10  CE2       29.8590   11.0240   22.5750 C.2    81  TRP81       0.0804
     11  CE3       27.8890   12.0830   23.4940 C.2    81  TRP81      -0.0202
     12  CZ2       29.0970   10.3610   21.5900 C.2    81  TRP81       0.0148
     13  CZ3       27.1300   11.4140   22.5300 C.3    81  TRP81       0.0521
     14  CH2       27.7410   10.5640   21.5910 C.2    81  TRP81      -0.0199
     15  OXT       30.9360   10.4070   26.9060 O.co2  81  TRP81      -0.2440
@<TRIPOS>BOND
     1    12    14    2
     2    12    10    1
     3    14    13    1
     4    13    11    1
     5    10     9    2
     6    10     8    1
     7     9     7    1
     8    11     8    2
     9     8     6    1
    10     7     6    2
    11     6     5    1
    12     5     2    1
    13     2     3    1
    14     2     1    1
    15    15     3   ar
    16     3     4   ar
