@<TRIPOS>MOLECULE
3zzm_JLN_A_1.pdb
 24 25 0 0 0
SMALL
GASTEIGER

@<TRIPOS>ATOM
      1  P         74.2050  124.8470   -5.5240 P.3   1526  JLN1526     0.5327
      2  O3P       73.8550  126.1580   -4.9580 O.3   1526  JLN1526    -0.1145
      3  O1P       74.2270  124.8880   -6.9740 O.2   1526  JLN1526    -0.2224
      4  O5'       72.9230  123.9570   -5.2150 O.3   1526  JLN1526    -0.2675
      5  O2P       75.3420  124.1980   -4.8650 O.3   1526  JLN1526    -0.1145
      6  C5'       72.7830  122.5450   -5.1780 C.3   1526  JLN1526     0.1859
      7  C4'       72.0600  122.1110   -3.9340 C.3   1526  JLN1526     0.1798
      8  O4'       70.7760  122.8570   -3.8750 O.3   1526  JLN1526    -0.3353
      9  C1'       69.6610  121.8190   -3.9190 C.3   1526  JLN1526     0.2125
     10  N1        68.4370  122.5610   -4.2500 N.3   1526  JLN1526    -0.2058
     11  C5        67.4340  122.9400   -3.4280 C.3   1526  JLN1526     0.2052
     12  N5        67.4640  122.6610   -2.0860 N.am  1526  JLN1526    -0.1763
     13  C7        66.8940  123.4030   -1.2140 C.2   1526  JLN1526     0.3217
     14  O7        66.3010  122.8550   -0.3510 O.2   1526  JLN1526    -0.2633
     15  C6        65.1620  124.3460   -4.0700 C.2   1526  JLN1526     0.4037
     16  O6B       64.5950  124.9280   -5.1200 O.co2 1526  JLN1526    -0.2391
     17  C4        66.5380  123.6280   -4.3060 C.2   1526  JLN1526     0.1701
     18  N3        67.0490  123.6030   -5.5540 N.2   1526  JLN1526    -0.2469
     19  C2        68.1360  122.9900   -5.5870 C.3   1526  JLN1526     0.2042
     20  C2'       70.1710  120.7580   -4.8670 C.3   1526  JLN1526     0.2272
     21  O2'       69.6180  119.6760   -4.4930 O.3   1526  JLN1526    -0.2161
     22  C3'       71.6990  120.6600   -4.4010 C.3   1526  JLN1526     0.2155
     23  O6A       64.6520  124.3200   -2.8730 O.co2 1526  JLN1526    -0.2391
     24  O3'       71.9150  119.9700   -3.2620 O.3   1526  JLN1526    -0.2176
@<TRIPOS>BOND
     1     3     1    2
     2    19    18    1
     3    19    10    1
     4    18    17    2
     5     1     4    1
     6     1     2    1
     7     1     5    1
     8     4     6    1
     9     6     7    1
    10    16    15   ar
    11    20    21    1
    12    20    22    1
    13    20     9    1
    14    22     7    1
    15    22    24    1
    16    17    15    1
    17    17    11    1
    18    10     9    1
    19    10    11    1
    20    15    23   ar
    21     7     8    1
    22     9     8    1
    23    11    12    1
    24    12    13   am
    25    13    14    2
