@<TRIPOS>MOLECULE
3zzn_ADP_A_1.pdb
 27 29 0 0 0
SMALL
GASTEIGER

@<TRIPOS>ATOM
      1  PB        22.4860  -15.9760   65.8400 P.3   1332  ADP1332     0.5373
      2  O1B       23.5870  -15.1440   65.2480 O.2   1332  ADP1332    -0.2221
      3  O2B       21.1130  -15.4100   65.6380 O.3   1332  ADP1332    -0.1143
      4  O3B       22.5840  -17.4450   65.5650 O.3   1332  ADP1332    -0.1143
      5  PA        24.1430  -16.0770   68.1240 P.3   1332  ADP1332     0.2231
      6  O1A       23.8940  -16.2610   69.5900 O.3   1332  ADP1332    -0.4370
      7  O2A       24.9130  -17.1090   67.3550 O.2   1332  ADP1332    -0.5169
      8  O3A       22.7180  -15.8630   67.4240 O.3   1332  ADP1332    -0.2261
      9  O5'       24.8590  -14.6620   67.9370 O.3   1332  ADP1332    -0.3111
     10  C5'       24.3110  -13.5020   68.5480 C.3   1332  ADP1332     0.1813
     11  C4'       25.4090  -12.4650   68.7010 C.3   1332  ADP1332     0.1821
     12  O4'       24.8550  -11.1980   69.0360 O.3   1332  ADP1332    -0.3135
     13  C3'       26.3720  -12.8150   69.8210 C.3   1332  ADP1332     0.2184
     14  O3'       27.6260  -13.1980   69.2640 O.3   1332  ADP1332    -0.2174
     15  C2'       26.5400  -11.5430   70.6210 C.3   1332  ADP1332     0.2570
     16  O2'       27.9250  -11.2230   70.7510 O.3   1332  ADP1332    -0.2130
     17  C1'       25.8370  -10.4930   69.7830 C.3   1332  ADP1332     0.3186
     18  N9        25.2460   -9.4210   70.6140 N.pl3 1332  ADP1332    -0.1439
     19  C8        24.4640   -9.5690   71.6920 C.3   1332  ADP1332     0.3377
     20  N7        24.1110   -8.3660   72.2020 N.2   1332  ADP1332    -0.2095
     21  C5        24.6790   -7.4230   71.4390 C.2   1332  ADP1332     0.2526
     22  C6        24.7170   -5.9470   71.4160 C.2   1332  ADP1332     0.4393
     23  N6        24.0580   -5.2160   72.3440 N.pl3 1332  ADP1332     0.2180
     24  N1        25.4340   -5.3580   70.4380 N.2   1332  ADP1332     0.0021
     25  C2        26.0960   -6.0710   69.5120 C.3   1332  ADP1332     0.5254
     26  N3        26.1040   -7.4090   69.4740 N.2   1332  ADP1332    -0.0055
     27  C4        25.4270   -8.1250   70.3940 C.2   1332  ADP1332     0.3518
@<TRIPOS>BOND
     1     2     1    2
     2     4     1    1
     3     3     1    1
     4     1     8    1
     5     7     5    2
     6     8     5    1
     7     9     5    1
     8     9    10    1
     9     5     6    1
    10    10    11    1
    11    11    12    1
    12    11    13    1
    13    12    17    1
    14    14    13    1
    15    26    25    1
    16    26    27    2
    17    25    24    1
    18    17    18    1
    19    17    15    1
    20    13    15    1
    21    27    18    1
    22    27    21    1
    23    24    22    2
    24    18    19    1
    25    15    16    1
    26    22    21    1
    27    22    23    1
    28    21    20    2
    29    19    20    1
