@<TRIPOS>MOLECULE
3zzq_TRP_A_1.pdb
 15 16 0 0 0
SMALL
GASTEIGER

@<TRIPOS>ATOM
      1  N         -2.1640  -28.6810  -65.9900 N.3    81  TRP81      -0.1205
      2  CA        -2.9100  -27.9530  -64.9400 C.3    81  TRP81       0.1984
      3  C         -3.1070  -26.5100  -65.3760 C.2    81  TRP81       0.3822
      4  O         -2.1820  -25.9170  -65.9500 O.co2  81  TRP81      -0.2440
      5  CB        -2.1630  -28.0450  -63.6030 C.3    81  TRP81       0.0549
      6  CG        -2.8910  -27.4020  -62.4640 C.2    81  TRP81      -0.0138
      7  CD1       -2.7720  -26.0990  -62.0340 C.2    81  TRP81       0.0907
      8  CD2       -3.8470  -28.0200  -61.5950 C.3    81  TRP81       0.0819
      9  NE1       -3.6010  -25.8810  -60.9670 N.2    81  TRP81      -0.2482
     10  CE2       -4.2760  -27.0400  -60.6780 C.2    81  TRP81       0.0665
     11  CE3       -4.3930  -29.3080  -61.5120 C.2    81  TRP81      -0.0164
     12  CZ2       -5.2250  -27.3070  -59.6930 C.2    81  TRP81       0.0153
     13  CZ3       -5.3260  -29.5710  -60.5290 C.2    81  TRP81      -0.0038
     14  CH2       -5.7330  -28.5790  -59.6340 C.2    81  TRP81       0.0009
     15  OXT       -4.2010  -25.9320  -65.1830 O.co2  81  TRP81      -0.2440
@<TRIPOS>BOND
     1     1     2    1
     2     4     3   ar
     3     3    15   ar
     4     3     2    1
     5     2     5    1
     6     5     6    1
     7     6     7    2
     8     6     8    1
     9     7     9    1
    10     8    11    1
    11     8    10    1
    12    11    13    2
    13     9    10    2
    14    10    12    1
    15    13    14    1
    16    12    14    2
