@<TRIPOS>MOLECULE
3zzs_TRP_A_1.pdb
 15 16 0 0 0
SMALL
GASTEIGER

@<TRIPOS>ATOM
      1  N         23.5950  -16.1910  -11.1890 N.3   1072  TRP1072    -0.1205
      2  CA        22.6290  -16.5160  -10.0990 C.3   1072  TRP1072     0.1984
      3  C         21.2450  -15.9780  -10.4290 C.2   1072  TRP1072     0.3822
      4  O         21.1360  -14.8520  -10.9470 O.co2 1072  TRP1072    -0.2440
      5  CB        23.1370  -15.9400   -8.7760 C.3   1072  TRP1072     0.0549
      6  CG        22.2780  -16.2560   -7.6120 C.2   1072  TRP1072    -0.0138
      7  CD1       21.2780  -15.4850   -7.0980 C.2   1072  TRP1072     0.0907
      8  CD2       22.3170  -17.4470   -6.8130 C.3   1072  TRP1072     0.0819
      9  NE1       20.6930  -16.1140   -6.0330 N.2   1072  TRP1072    -0.2482
     10  CE2       21.3100  -17.3210   -5.8290 C.2   1072  TRP1072     0.0665
     11  CE3       23.1060  -18.6020   -6.8310 C.2   1072  TRP1072    -0.0164
     12  CZ2       21.0740  -18.3050   -4.8710 C.2   1072  TRP1072     0.0153
     13  CZ3       22.8790  -19.5750   -5.8660 C.2   1072  TRP1072    -0.0038
     14  CH2       21.8670  -19.4190   -4.9050 C.2   1072  TRP1072     0.0009
     15  OXT       20.2510  -16.6890  -10.1950 O.co2 1072  TRP1072    -0.2440
@<TRIPOS>BOND
     1     1     2    1
     2     4     3   ar
     3     3    15   ar
     4     3     2    1
     5     2     5    1
     6     5     6    1
     7     6     7    2
     8     6     8    1
     9     7     9    1
    10    11     8    1
    11    11    13    2
    12     8    10    1
    13     9    10    2
    14    13    14    1
    15    10    12    1
    16    14    12    2
