@<TRIPOS>MOLECULE
3zzv_FUC_A_1.pdb
 10 10 0 0 0
SMALL
GASTEIGER

@<TRIPOS>ATOM
      1  C1        -8.2760   -1.6540  -33.3210 C.3   391  FUC391      0.1776
      2  C2        -9.7810   -1.5240  -33.3230 C.3   391  FUC391      0.2141
      3  C3       -10.4040   -2.2610  -32.1020 C.3   391  FUC391      0.2172
      4  C4        -9.7640   -1.8350  -30.7990 C.3   391  FUC391      0.2116
      5  C5        -8.2740   -1.9950  -30.9780 C.3   391  FUC391      0.1483
      6  C6        -7.5210   -1.5650  -29.7390 C.3   391  FUC391      0.0349
      7  O2       -10.2690   -2.0480  -34.5440 O.3   391  FUC391     -0.2176
      8  O3       -11.8340   -2.2130  -32.0600 O.3   391  FUC391     -0.2175
      9  O4        -9.9650   -0.4490  -30.4930 O.3   391  FUC391     -0.2177
     10  O5        -7.8130   -1.1940  -32.0810 O.3   391  FUC391     -0.3508
@<TRIPOS>BOND
     1     7     2    1
     2     2     1    1
     3     2     3    1
     4     1    10    1
     5     3     8    1
     6     3     4    1
     7    10     5    1
     8     5     4    1
     9     5     6    1
    10     4     9    1
