@<TRIPOS>MOLECULE
3zzv_GAL_B_1.pdb
 11 11 0 0 0
SMALL
GASTEIGER

@<TRIPOS>ATOM
      1  C1       -12.1040   -2.1820    0.3150 C.3   390  GAL390      0.1777
      2  C2       -13.2590   -1.2340    0.1560 C.3   390  GAL390      0.2141
      3  C3       -13.6580   -0.5620    1.4680 C.3   390  GAL390      0.2173
      4  C4       -13.6540   -1.5420    2.6390 C.3   390  GAL390      0.2142
      5  C5       -12.2520   -2.1990    2.7060 C.3   390  GAL390      0.1810
      6  C6       -12.0720   -3.2050    3.8440 C.3   390  GAL390      0.2141
      7  O2       -12.8680   -0.2170   -0.7770 O.3   390  GAL390     -0.2176
      8  O3       -14.8920    0.1010    1.3050 O.3   390  GAL390     -0.2175
      9  O4       -14.6990   -2.4910    2.4770 O.3   390  GAL390     -0.2176
     10  O5       -11.9130   -2.8970    1.5200 O.3   390  GAL390     -0.3481
     11  O6       -10.8940   -3.9650    3.6340 O.3   390  GAL390     -0.2176
@<TRIPOS>BOND
     1     7     2    1
     2     2     1    1
     3     2     3    1
     4     1    10    1
     5     8     3    1
     6     3     4    1
     7    10     5    1
     8     9     4    1
     9     4     5    1
    10     5     6    1
    11    11     6    1
