@<TRIPOS>MOLECULE
3zzz_III_C_1.pdb
 43 42 0 0 0
SMALL
GASTEIGER

@<TRIPOS>ATOM
      1  N          9.7830   12.8400   20.9480 N.3   682  SER682     -0.1202
      2  CA         9.9400   11.8740   22.0730 C.3   682  SER682      0.2020
      3  C          8.8240   12.0210   23.1020 C.2   682  SER682      0.2619
      4  O          9.0230   11.7540   24.2860 O.2   682  SER682     -0.2717
      5  CB        11.2990   12.0710   22.7530 C.3   682  SER682      0.2103
      6  OG        11.4580   13.4030   23.2110 O.3   682  SER682     -0.2182
      7  N          7.6510   12.4500   22.6440 N.am  683  GLU683     -0.1965
      8  CA         6.5000   12.6160   23.5240 C.3   683  GLU683      0.1728
      9  C          6.0740   11.2380   24.0190 C.2   683  GLU683      0.2617
     10  O          6.4070   10.2270   23.4020 O.2   683  GLU683     -0.2715
     11  CB         5.3440   13.2770   22.7700 C.3   683  GLU683      0.0334
     12  N          5.3360   11.2000   25.1240 N.am  684  GLY684     -0.1940
     13  CA         4.9030    9.9250   25.6710 C.3   684  GLY684      0.2014
     14  C          3.4370    9.5890   25.4860 C.2   684  GLY684      0.2639
     15  O          2.6240   10.4430   25.1300 O.2   684  GLY684     -0.2714
     16  N          3.0990    8.3270   25.7330 N.am  685  LEU685     -0.1963
     17  CA         1.7260    7.8530   25.6090 C.3   685  LEU685      0.1728
     18  C          0.9110    8.3060   26.8150 C.2   685  LEU685      0.2616
     19  O         -0.2860    8.5780   26.7030 O.2   685  LEU685     -0.2715
     20  CB         1.7010    6.3230   25.5350 C.3   685  LEU685      0.0311
     21  CG         2.4070    5.6310   24.3690 C.3   685  LEU685      0.0022
     22  CD1        2.5870    4.1510   24.6940 C.3   685  LEU685      0.0001
     23  CD2        1.6050    5.8150   23.0870 C.3   685  LEU685      0.0001
     24  N          1.5690    8.3790   27.9680 N.am  686  LEU686     -0.1963
     25  CA         0.9210    8.7810   29.2120 C.3   686  LEU686      0.1728
     26  C          1.6440    9.9770   29.8270 C.2   686  LEU686      0.2617
     27  O          2.7920   10.2550   29.4890 O.2   686  LEU686     -0.2715
     28  CB         0.9360    7.6180   30.2070 C.3   686  LEU686      0.0311
     29  CG         0.4290    6.2600   29.7160 C.3   686  LEU686      0.0022
     30  CD1        0.7100    5.2030   30.7700 C.3   686  LEU686      0.0001
     31  CD2       -1.0630    6.3420   29.4100 C.3   686  LEU686      0.0001
     32  N          0.9720   10.6750   30.7390 N.am  687  GLY687     -0.1940
     33  CA         1.5870   11.8260   31.3770 C.3   687  GLY687      0.2014
     34  C          2.1510   11.5160   32.7530 C.2   687  GLY687      0.2638
     35  O          1.8260   10.4870   33.3460 O.2   687  GLY687     -0.2714
     36  N          3.0040   12.4040   33.2570 N.am  688  LEU688     -0.1977
     37  CA         3.6080   12.2400   34.5770 C.3   688  LEU688      0.1596
     38  C          3.2000   13.3770   35.5080 C.2   688  LEU688      0.2287
     39  O          2.0150   13.5800   35.7720 O.2   688  LEU688     -0.2864
     40  CB         5.1350   12.1990   34.4700 C.3   688  LEU688      0.0297
     41  CG         5.7690   10.8810   34.0260 C.3   688  LEU688      0.0022
     42  CD1        7.2730   11.0620   33.8770 C.3   688  LEU688      0.0001
     43  CD2        5.4610    9.7950   35.0490 C.3   688  LEU688      0.0001
@<TRIPOS>BOND
     1     1     2    1
     2     2     5    1
     3     2     3    1
     4     7     3   am
     5     7     8    1
     6     5     6    1
     7    11     8    1
     8    23    21    1
     9     3     4    2
    10    10     9    2
    11     8     9    1
    12     9    12   am
    13    21    22    1
    14    21    20    1
    15    12    13    1
    16    15    14    2
    17    14    13    1
    18    14    16   am
    19    20    17    1
    20    17    16    1
    21    17    18    1
    22    19    18    2
    23    18    24   am
    24    24    25    1
    25    25    26    1
    26    25    28    1
    27    31    29    1
    28    27    26    2
    29    29    28    1
    30    29    30    1
    31    26    32   am
    32    32    33    1
    33    33    34    1
    34    34    36   am
    35    34    35    2
    36    36    37    1
    37    42    41    1
    38    41    40    1
    39    41    43    1
    40    40    37    1
    41    37    38    1
    42    38    39    2
