@<TRIPOS>MOLECULE
421p_GNP_A_1.pdb
 32 34 0 0 0
SMALL
GASTEIGER

@<TRIPOS>ATOM
      1  PG         5.1720   32.1840   22.0970 P.3   167  GNP167      0.4884
      2  O1G        4.7810   32.6500   23.4230 O.3   167  GNP167     -0.1240
      3  O2G        4.2720   32.6400   21.0500 O.2   167  GNP167     -0.2331
      4  O3G        4.7000   30.6480   22.1270 O.3   167  GNP167     -0.1240
      5  N3B        6.7810   32.2700   21.7360 N.3   167  GNP167     -0.0163
      6  PB         7.2980   32.0940   20.1550 P.3   167  GNP167      0.4669
      7  O1B        7.6050   30.7160   19.7660 O.3   167  GNP167     -0.1253
      8  O2B        6.5380   32.7790   19.1030 O.2   167  GNP167     -0.2351
      9  O3A        8.7840   32.7610   20.1000 O.3   167  GNP167     -0.2360
     10  PA         9.2620   34.2920   19.6820 P.3   167  GNP167      0.2220
     11  O1A        9.5220   34.4250   18.2490 O.2   167  GNP167     -0.5170
     12  O2A        8.4450   35.2750   20.4020 O.3   167  GNP167     -0.4370
     13  O5'       10.7400   34.2860   20.2840 O.3   167  GNP167     -0.3111
     14  C5'       11.0800   34.1070   21.6520 C.3   167  GNP167      0.1813
     15  C4'       12.5430   34.4680   21.8560 C.3   167  GNP167      0.1799
     16  O4'       13.3790   33.6230   21.0420 O.3   167  GNP167     -0.3326
     17  C3'       12.8190   35.9330   21.4200 C.3   167  GNP167      0.2158
     18  O3'       13.7140   36.5750   22.3600 O.3   167  GNP167     -0.2175
     19  C2'       13.3330   35.7180   19.9750 C.3   167  GNP167      0.2310
     20  O2'       14.1510   36.7310   19.3450 O.3   167  GNP167     -0.2158
     21  C1'       14.1670   34.4690   20.2000 C.3   167  GNP167      0.2293
     22  N9        14.4920   33.8420   18.8900 N.pl3 167  GNP167     -0.2354
     23  C8        13.6420   33.4040   17.9180 C.3   167  GNP167      0.2246
     24  N7        14.2010   32.8780   16.8860 N.2   167  GNP167     -0.2322
     25  C5        15.5470   32.8780   17.2350 C.2   167  GNP167      0.2182
     26  C6        16.6620   32.4040   16.5020 C.1   167  GNP167      0.2372
     27  O6        16.6630   32.0130   15.3280 O.2   167  GNP167     -0.2069
     28  N1        17.8300   32.4810   17.2710 N.2   167  GNP167     -0.2485
     29  C2        17.9450   33.1570   18.4820 C.1   167  GNP167      0.2531
     30  N2        19.1690   33.3710   18.9700 N.pl3 167  GNP167     -0.0226
     31  N3        16.9020   33.6560   19.1370 N.2   167  GNP167     -0.3074
     32  C4        15.7400   33.4810   18.4560 C.2   167  GNP167      0.2300
@<TRIPOS>BOND
     1    27    26    2
     2    26    25    1
     3    26    28    2
     4    24    25    2
     5    24    23    1
     6    25    32    1
     7    28    29    2
     8    23    22    1
     9    11    10    2
    10    32    22    1
    11    32    31    2
    12    29    30    1
    13    29    31    2
    14    22    21    1
    15     8     6    2
    16    20    19    1
    17    10     9    1
    18    10    13    1
    19    10    12    1
    20     7     6    1
    21    19    21    1
    22    19    17    1
    23     9     6    1
    24     6     5    1
    25    21    16    1
    26    13    14    1
    27    16    15    1
    28     3     1    2
    29    17    15    1
    30    17    18    1
    31    14    15    1
    32     5     1    1
    33     1     4    1
    34     1     2    1
