@<TRIPOS>MOLECULE
43ca_NPO_A_1.pdb
 10 10 0 0 0
SMALL
GASTEIGER

@<TRIPOS>ATOM
      1  C1        10.3470   40.7700   18.6450 C.ar  921  NPO921      0.1431
      2  C2         8.9430   40.7370   18.5770 C.ar  921  NPO921      0.0274
      3  C3         8.2270   41.6380   17.7900 C.ar  921  NPO921      0.0437
      4  C4         8.9250   42.5990   17.0520 C.ar  921  NPO921      0.1958
      5  C5        10.3090   42.6620   17.1180 C.ar  921  NPO921      0.0437
      6  C6        11.0030   41.7560   17.8960 C.ar  921  NPO921      0.0274
      7  OH         8.2610   43.4740   16.2110 O.3   921  NPO921     -0.2866
      8  N1        11.0740   39.9300   19.3640 N.pl3 921  NPO921      0.0577
      9  O2        12.2810   39.9710   19.2610 O.2   921  NPO921     -0.1261
     10  O3        10.5580   39.1330   20.1140 O.2   921  NPO921     -0.1261
@<TRIPOS>BOND
     1     7     4    1
     2     4     5   ar
     3     4     3   ar
     4     5     6   ar
     5     3     2   ar
     6     6     1   ar
     7     2     1   ar
     8     1     8    1
     9     9     8    2
    10     8    10    2
