@<TRIPOS>MOLECULE
451c_HEM_A_1.pdb
 43 50 0 0 0
SMALL
GASTEIGER

@<TRIPOS>ATOM
      1 FE          9.3970  -12.9810   18.2300 Fe      0  HEM0        0.0000
      2  CHA       11.7050  -15.2390   17.1330 C.2     0  HEM0        0.0000
      3  CHB        7.6010  -13.4540   15.3520 C.2     0  HEM0        0.0000
      4  CHC        6.8840  -11.0320   19.4660 C.2     0  HEM0        0.0000
      5  CHD       11.2760  -12.3210   20.9600 C.2     0  HEM0        0.0000
      6  NA         9.6100  -14.1480   16.5510 N.ar    0  HEM0        0.0000
      7  C1A       10.6340  -14.9910   16.2990 C.ar    0  HEM0        0.0000
      8  C2A       10.4510  -15.5470   15.0500 C.ar    0  HEM0        0.0000
      9  C3A        9.2970  -14.9930   14.5160 C.ar    0  HEM0        0.0000
     10  C4A        8.7790  -14.1570   15.4750 C.ar    0  HEM0        0.0000
     11  CMA        8.6790  -15.2580   13.1580 C.3     0  HEM0        0.0000
     12  CAA       11.3290  -16.5910   14.4240 C.3     0  HEM0        0.0000
     13  CBA       10.9030  -17.9370   14.9620 C.3     0  HEM0        0.0000
     14  CGA       11.7600  -19.0390   14.3690 C.2     0  HEM0        0.0000
     15  O1A       12.5090  -18.7810   13.4310 O.co2   0  HEM0        0.0000
     16  O2A       11.2650  -20.2290   14.4460 O.co2   0  HEM0        0.0000
     17  NB         7.5810  -12.3320   17.5210 N.2     0  HEM0        0.0000
     18  C1B        7.0480  -12.6190   16.3000 C.2     0  HEM0        0.0000
     19  C2B        5.8160  -11.9790   16.1800 C.2     0  HEM0        0.0000
     20  C3B        5.5580  -11.3500   17.4030 C.2     0  HEM0        0.0000
     21  C4B        6.6950  -11.5460   18.1990 C.2     0  HEM0        0.0000
     22  CMB        4.9120  -12.0260   14.9670 C.3     0  HEM0        0.0000
     23  CAB        4.2990  -10.6210   17.8290 C.3     0  HEM0        0.0000
     24  CBB        3.0910  -11.5410   17.9810 C.3     0  HEM0        0.0000
     25  NC         9.1240  -11.8980   19.9170 N.ar    0  HEM0        0.0000
     26  C1C        8.0160  -11.1900   20.2510 C.ar    0  HEM0        0.0000
     27  C2C        8.2430  -10.5590   21.4680 C.ar    0  HEM0        0.0000
     28  C3C        9.5700  -10.8050   21.8080 C.ar    0  HEM0        0.0000
     29  C4C       10.0440  -11.7180   20.8970 C.ar    0  HEM0        0.0000
     30  CMC        7.2660   -9.6490   22.1900 C.3     0  HEM0        0.0000
     31  CAC       10.3910  -10.1660   22.9200 C.3     0  HEM0        0.0000
     32  CBC        9.8500  -10.4740   24.3120 C.3     0  HEM0        0.0000
     33  ND        11.1200  -13.6760   18.9280 N.2     0  HEM0        0.0000
     34  C1D       11.7540  -13.2500   20.0690 C.2     0  HEM0        0.0000
     35  C2D       12.9590  -13.9300   20.2120 C.2     0  HEM0        0.0000
     36  C3D       13.0400  -14.8330   19.1600 C.2     0  HEM0        0.0000
     37  C4D       11.9290  -14.6160   18.3470 C.2     0  HEM0        0.0000
     38  CMD       13.9660  -13.7480   21.3300 C.3     0  HEM0        0.0000
     39  CAD       14.1270  -15.8510   18.9150 C.3     0  HEM0        0.0000
     40  CBD       13.7270  -17.2510   19.3520 C.3     0  HEM0        0.0000
     41  CGD       14.8250  -18.2450   18.9780 C.2     0  HEM0        0.0000
     42  O1D       14.5050  -19.4180   18.7670 O.co2   0  HEM0        0.0000
     43  O2D       16.0950  -17.9700   19.1990 O.co2   0  HEM0        0.0000
@<TRIPOS>BOND
     1    11     9    1
     2    15    14   ar
     3    14    16   ar
     4    14    13    1
     5    12    13    1
     6    12     8    1
     7     9     8   ar
     8     9    10   ar
     9    22    19    1
    10     8     7   ar
    11     3    10    2
    12     3    18    1
    13    10     6   ar
    14    19    18    1
    15    19    20    2
    16     7     6   ar
    17     7     2    2
    18    18    17    2
    19     6     1    1
    20     2    37    1
    21    20    23    1
    22    20    21    1
    23    17    21    1
    24    17     1    1
    25    23    24    1
    26    21     4    2
    27     1    33    1
    28     1    25    1
    29    37    33    2
    30    37    36    1
    31    42    41   ar
    32    39    36    1
    33    39    40    1
    34    33    34    1
    35    41    43   ar
    36    41    40    1
    37    36    35    2
    38     4    26    1
    39    25    26   ar
    40    25    29   ar
    41    34    35    1
    42    34     5    2
    43    35    38    1
    44    26    27   ar
    45    29     5    1
    46    29    28   ar
    47    27    28   ar
    48    27    30    1
    49    28    31    1
    50    31    32    1
