@<TRIPOS>MOLECULE
456c_CBP_A_1.pdb
 48 50 0 0 0
SMALL
GASTEIGER

@<TRIPOS>ATOM
      1  O1        -2.5660   24.3950   54.5570 O.3     1  CBP1       -0.2952
      2  N2        -2.9440   25.2310   55.6160 N.am    1  CBP1       -0.1974
      3  C3        -2.8230   26.5310   55.3820 C.2     1  CBP1        0.2375
      4  O4        -2.5970   26.9030   54.2270 O.2     1  CBP1       -0.2737
      5  C5        -2.9130   27.4700   56.6050 C.3     1  CBP1        0.0515
      6  C6        -3.8810   28.7010   56.5780 C.3     1  CBP1        0.1053
      7  C7        -3.7240   29.5820   55.3110 C.3     1  CBP1       -0.0034
      8  C8        -2.4250   30.3770   55.3210 C.3     1  CBP1        0.0497
      9  O9        -2.4130   31.2060   56.4750 O.3     1  CBP1       -0.3796
     10  C10       -2.3980   30.5270   57.7130 C.3     1  CBP1        0.0497
     11  C11       -3.6280   29.6000   57.8350 C.3     1  CBP1       -0.0034
     12  S12       -5.6130   28.1620   56.7250 S.O2    1  CBP1        0.0031
     13  O13       -5.6520   27.1610   57.7450 O.2     1  CBP1       -0.1688
     14  O14       -6.4490   29.3070   56.9080 O.2     1  CBP1       -0.1688
     15  C15       -6.1830   27.4460   55.1960 C.ar    1  CBP1        0.0890
     16  C16       -6.3180   26.0780   55.0490 C.ar    1  CBP1       -0.0334
     17  C17       -6.8490   25.5710   53.8770 C.ar    1  CBP1       -0.0175
     18  C18       -7.2370   26.4150   52.8450 C.ar    1  CBP1        0.1285
     19  C19       -7.0270   27.7940   52.9740 C.ar    1  CBP1       -0.0175
     20  C20       -6.5050   28.3000   54.1530 C.ar    1  CBP1       -0.0334
     21  O21       -7.8700   25.7800   51.7780 O.3     1  CBP1       -0.4560
     22  C22       -8.2050   26.4530   50.6170 C.ar    1  CBP1        0.1285
     23  C23       -9.5010   26.2820   50.1420 C.ar    1  CBP1       -0.0180
     24  C24       -9.8810   26.8440   48.9250 C.ar    1  CBP1       -0.0399
     25  C25       -8.9300   27.5900   48.2270 C.ar    1  CBP1        0.0412
     26  C26       -7.6420   27.7990   48.7010 C.ar    1  CBP1       -0.0399
     27  C27       -7.2760   27.2160   49.9030 C.ar    1  CBP1       -0.0180
     28 CL28       -9.3320   28.2410   46.6920 Cl      1  CBP1       -0.0835
     29 HO1I       -2.4210   23.4990   54.8730 H       1  CBP1        0.2414
     30 HN21       -3.3260   24.8770   56.4780 H       1  CBP1        0.1822
     31 HC51       -3.1120   26.8690   57.4780 H       1  CBP1        0.0381
     32 HC52       -1.9020   27.8200   56.7450 H       1  CBP1        0.0381
     33 HC71       -4.5240   30.3080   55.2950 H       1  CBP1        0.0309
     34 HC72       -3.8170   29.0180   54.3970 H       1  CBP1        0.0309
     35 HC81       -1.5500   29.7470   55.2870 H       1  CBP1        0.0560
     36 HC82       -2.3660   31.0080   54.4430 H       1  CBP1        0.0560
     37 H101       -2.4020   31.2680   58.5030 H       1  CBP1        0.0560
     38 H102       -1.4680   29.9900   57.8240 H       1  CBP1        0.0560
     39 H111       -3.5730   29.0060   58.7380 H       1  CBP1        0.0309
     40 H112       -4.4760   30.2500   57.9920 H       1  CBP1        0.0309
     41 H161       -6.0340   25.4010   55.8430 H       1  CBP1        0.0638
     42 H171       -6.9880   24.5080   53.7540 H       1  CBP1        0.0655
     43 H191       -7.2950   28.5090   52.2130 H       1  CBP1        0.0655
     44 H201       -6.3910   29.3680   54.2670 H       1  CBP1        0.0638
     45 H231      -10.2070   25.6870   50.6980 H       1  CBP1        0.0655
     46 H241      -10.8780   26.6830   48.5360 H       1  CBP1        0.0633
     47 H261       -6.9170   28.3850   48.1520 H       1  CBP1        0.0633
     48 H271       -6.2660   27.3580   50.2500 H       1  CBP1        0.0655
@<TRIPOS>BOND
     1    28    25    1
     2    47    26    1
     3    25    26   ar
     4    25    24   ar
     5    46    24    1
     6    26    27   ar
     7    24    23   ar
     8    27    48    1
     9    27    22   ar
    10    23    22   ar
    11    23    45    1
    12    22    21    1
    13    21    18    1
    14    43    19    1
    15    18    19   ar
    16    18    17   ar
    17    19    20   ar
    18    42    17    1
    19    17    16   ar
    20    20    44    1
    21    20    15   ar
    22     4     3    2
    23    34     7    1
    24    36     8    1
    25     1    29    1
    26     1     2    1
    27    16    15   ar
    28    16    41    1
    29    15    12    1
    30    35     8    1
    31    33     7    1
    32     7     8    1
    33     7     6    1
    34     8     9    1
    35     3     2   am
    36     3     5    1
    37     2    30    1
    38     9    10    1
    39     6     5    1
    40     6    12    1
    41     6    11    1
    42     5    32    1
    43     5    31    1
    44    12    14    2
    45    12    13    2
    46    10    38    1
    47    10    11    1
    48    10    37    1
    49    11    40    1
    50    11    39    1
