@<TRIPOS>MOLECULE
4a00_PP3_A_1.pdb
 21 21 0 0 0
SMALL
GASTEIGER

@<TRIPOS>ATOM
      1  N1        37.5780   50.8520   34.6370 N.ar  1397  PP31397    -0.2452
      2  C2        36.6610   51.2480   35.5360 C.ar  1397  PP31397     0.0978
      3  C2A       36.6190   50.5900   36.8750 C.3   1397  PP31397     0.0555
      4  C3        35.7450   52.2810   35.2100 C.ar  1397  PP31397     0.2062
      5  O3        34.8010   52.6900   36.1300 O.3   1397  PP31397    -0.2856
      6  C4        35.7760   52.9040   33.9440 C.ar  1397  PP31397     0.0353
      7  C4A       34.7640   53.9910   33.6740 C.3   1397  PP31397     0.1186
      8  C5        36.7500   52.4950   33.0090 C.ar  1397  PP31397     0.0275
      9  C6        37.6300   51.4850   33.3500 C.ar  1397  PP31397     0.0965
     10  C5A       36.8720   53.0680   31.6160 C.3   1397  PP31397     0.1816
     11  O4P       37.6600   54.1700   31.4000 O.3   1397  PP31397    -0.2653
     12  P         38.0310   54.6550   30.0050 P.3   1397  PP31397     0.5329
     13  O1P       36.9620   55.6330   29.5030 O.3   1397  PP31397    -0.1145
     14  O2P       38.3240   53.5610   28.9800 O.2   1397  PP31397    -0.2224
     15  O3P       39.3080   55.3570   30.2270 O.3   1397  PP31397    -0.1145
     16  N         33.4210   53.8530   34.2150 N.3   1397  PP31397    -0.2034
     17  CA        32.2430   54.3890   33.5580 C.3   1397  PP31397     0.1761
     18  C         31.0910   53.4220   33.5150 C.2   1397  PP31397     0.3803
     19  O         30.3250   53.3520   34.4570 O.co2 1397  PP31397    -0.2441
     20  CB        32.4390   55.1310   32.2660 C.3   1397  PP31397     0.0310
     21  OXT       30.7150   52.7890   32.3510 O.co2 1397  PP31397    -0.2441
@<TRIPOS>BOND
     1    14    12    2
     2    13    12    1
     3    12    15    1
     4    12    11    1
     5    11    10    1
     6    10     8    1
     7    20    17    1
     8    21    18   ar
     9     8     9   ar
    10     8     6   ar
    11     9     1   ar
    12    18    17    1
    13    18    19   ar
    14    17    16    1
    15     7     6    1
    16     7    16    1
    17     6     4   ar
    18     1     2   ar
    19     4     2   ar
    20     4     5    1
    21     2     3    1
