@<TRIPOS>MOLECULE
4a01_DMU_A_1.pdb
 33 34 0 0 0
SMALL
GASTEIGER

@<TRIPOS>ATOM
      1  C1         4.4820   40.5990   43.4930 C.3   1774  DMU1774     0.2404
      2  C2         4.3740   39.3130   44.3460 C.3   1774  DMU1774     0.2167
      3  C3         3.2640   39.3660   45.3840 C.3   1774  DMU1774     0.1804
      4  C4         1.9680   39.7990   44.7090 C.3   1774  DMU1774     0.1803
      5  O5         2.1660   40.8160   43.7480 O.3   1774  DMU1774    -0.3257
      6  C6         3.1650   40.9090   42.7700 C.3   1774  DMU1774     0.2695
      7  O7         3.1160   38.0760   45.9500 O.3   1774  DMU1774    -0.3257
      8  O16        3.2340   42.0780   41.9490 O.3   1774  DMU1774    -0.3286
      9  C18        2.1960   42.3250   41.0170 C.3   1774  DMU1774     0.1449
     10  C19        2.6640   42.1230   39.5930 C.3   1774  DMU1774     0.0322
     11  C22        1.4270   42.0020   38.6980 C.3   1774  DMU1774     0.0026
     12  C25        1.8530   42.4660   37.2890 C.3   1774  DMU1774     0.0001
     13  C28        1.6700   41.3780   36.2190 C.3   1774  DMU1774     0.0000
     14  C31        2.6790   41.6260   35.0940 C.3   1774  DMU1774     0.0000
     15  C34        1.9270   42.0560   33.8290 C.3   1774  DMU1774     0.0000
     16  C37        2.7720   43.0950   33.0910 C.3   1774  DMU1774     0.0000
     17  C40        1.8730   43.9860   32.2810 C.3   1774  DMU1774     0.0000
     18  C43        2.5120   45.3260   32.2910 C.3   1774  DMU1774     0.0000
     19  O49        5.5970   40.6640   42.6140 O.3   1774  DMU1774    -0.2149
     20  O55        5.5620   38.9410   44.9780 O.3   1774  DMU1774    -0.2175
     21  C57        0.9150   40.1260   45.7270 C.3   1774  DMU1774     0.2141
     22  O61       -0.3380   39.9290   45.2050 O.3   1774  DMU1774    -0.2176
     23  C5         4.2510   36.9830   47.8450 C.3   1774  DMU1774     0.2406
     24  C7         4.2330   36.6750   49.3480 C.3   1774  DMU1774     0.2198
     25  C8         3.0200   37.1130   50.1460 C.3   1774  DMU1774     0.2144
     26  C9         1.8060   37.6990   49.3720 C.3   1774  DMU1774     0.1835
     27  O1         1.9340   37.6590   47.9240 O.3   1774  DMU1774    -0.3256
     28  C10        3.2010   37.9840   47.3670 C.3   1774  DMU1774     0.2695
     29  O2         2.6770   36.1390   51.0950 O.3   1774  DMU1774    -0.2176
     30  O3         5.5160   37.3070   47.3680 O.3   1774  DMU1774    -0.2149
     31  O4         5.3200   37.1190   50.0930 O.3   1774  DMU1774    -0.2174
     32  C11        0.4640   37.3010   50.0170 C.3   1774  DMU1774     0.2142
     33  O6        -0.4030   36.6490   49.1380 O.3   1774  DMU1774    -0.2176
@<TRIPOS>BOND
     1    17    18    1
     2    17    16    1
     3    16    15    1
     4    15    14    1
     5    14    13    1
     6    13    12    1
     7    12    11    1
     8    11    10    1
     9    10     9    1
    10     9     8    1
    11     8     6    1
    12    19     1    1
    13     6     1    1
    14     6     5    1
    15     1     2    1
    16     5     4    1
    17     2    20    1
    18     2     3    1
    19     4     3    1
    20     4    21    1
    21    22    21    1
    22     3     7    1
    23     7    28    1
    24    28    23    1
    25    28    27    1
    26    30    23    1
    27    23    24    1
    28    27    26    1
    29    33    32    1
    30    24    31    1
    31    24    25    1
    32    26    32    1
    33    26    25    1
    34    25    29    1
