@<TRIPOS>MOLECULE
4a03_F98_A_1.pdb
 12 11 0 0 0
SMALL
GASTEIGER

@<TRIPOS>ATOM
      1  C1        27.7950    8.5910   25.1720 C.2   501  F98501      0.0679
      2  N1        27.8190    7.9740   26.3520 N.am  501  F98501     -0.2845
      3  O1        28.8080    8.7890   24.5130 O.2   501  F98501     -0.5413
      4  C2        26.6660    7.7860   27.2230 C.3   501  F98501      0.0981
      5  O2        29.0400    7.6030   26.8120 O.3   501  F98501     -0.4197
      6  C3        26.7610    9.0070   28.1580 C.3   501  F98501      0.0297
      7  C4        25.7230    8.9530   29.2520 C.3   501  F98501      0.0607
      8  C11       26.4480    9.0320   24.6220 C.3   501  F98501      0.0561
      9  PA1       26.3660    9.5880   30.8150 P.3   501  F98501      0.1172
     10  OP1       27.6760    8.7200   31.1210 O.3   501  F98501     -0.3571
     11  OP2       26.7850   11.0830   30.5610 O.2   501  F98501     -0.4601
     12  OP3       25.2790    9.4080   31.8240 O.3   501  F98501     -0.3571
@<TRIPOS>BOND
     1     3     1    2
     2     8     1    1
     3     1     2   am
     4     2     5    1
     5     2     4    1
     6     4     6    1
     7     6     7    1
     8     7     9    1
     9    11     9    2
    10     9    10    1
    11     9    12    1
