@<TRIPOS>MOLECULE
4a03_NDP_A_1.pdb
 48 52 0 0 0
SMALL
GASTEIGER

@<TRIPOS>ATOM
      1  PA        25.9190   -3.4740   22.6940 P.3   601  NDP601      0.2189
      2  O1A       24.6790   -2.8280   22.1500 O.2   601  NDP601     -0.5170
      3  O2A       25.8580   -4.3880   23.8820 O.3   601  NDP601     -0.4371
      4  O5B       26.6090   -4.2790   21.4800 O.3   601  NDP601     -0.3112
      5  C5B       27.7650   -5.0770   21.7110 C.3   601  NDP601      0.1813
      6  C4B       28.1950   -5.6700   20.3710 C.3   601  NDP601      0.1820
      7  O4B       29.3380   -6.4900   20.6330 O.3   601  NDP601     -0.3136
      8  C3B       27.1360   -6.5860   19.7590 C.3   601  NDP601      0.2157
      9  O3B       27.2670   -6.5730   18.3270 O.3   601  NDP601     -0.2175
     10  C2B       27.5050   -7.9610   20.2890 C.3   601  NDP601      0.2314
     11  O2B       27.0670   -9.0410   19.4630 O.3   601  NDP601     -0.2630
     12  C1B       29.0190   -7.8360   20.2660 C.3   601  NDP601      0.3158
     13  N9A       29.6980   -8.7770   21.1740 N.pl3 601  NDP601     -0.1439
     14  C8A       29.4090   -9.0550   22.4650 C.3   601  NDP601      0.3377
     15  N7A       30.2860   -9.9710   22.9600 N.2   601  NDP601     -0.2095
     16  C5A       31.1550  -10.2620   21.9640 C.2   601  NDP601      0.2526
     17  C6A       32.3330  -11.1350   21.7970 C.2   601  NDP601      0.4393
     18  N6A       32.7740  -11.9220   22.8110 N.pl3 601  NDP601      0.2180
     19  N1A       32.9480  -11.1290   20.5940 N.2   601  NDP601      0.0021
     20  C2A       32.5330  -10.3760   19.5610 C.3   601  NDP601      0.5254
     21  N3A       31.4650   -9.5590   19.6390 N.2   601  NDP601     -0.0055
     22  C4A       30.7630   -9.4660   20.7980 C.2   601  NDP601      0.3518
     23  O3        27.0060   -2.3330   23.0100 O.3   601  NDP601     -0.2703
     24  PN        26.9580   -0.7880   22.5640 P.3   601  NDP601      0.2189
     25  O1N       26.0650   -0.0400   23.5270 O.3   601  NDP601     -0.4371
     26  O2N       26.7500   -0.6940   21.0660 O.2   601  NDP601     -0.5170
     27  O5D       28.4530   -0.3490   22.9190 O.3   601  NDP601     -0.3112
     28  C5D       29.5500   -0.7000   22.0830 C.3   601  NDP601      0.1813
     29  C4D       30.7470    0.0960   22.5730 C.3   601  NDP601      0.1799
     30  O4D       30.5040    1.4940   22.3600 O.3   601  NDP601     -0.3327
     31  C3D       30.9330   -0.1080   24.0680 C.3   601  NDP601      0.2158
     32  O3D       32.3330   -0.1400   24.3300 O.3   601  NDP601     -0.2175
     33  C2D       30.2860    1.1420   24.6500 C.3   601  NDP601      0.2309
     34  O2D       30.8100    1.5070   25.9270 O.3   601  NDP601     -0.2158
     35  C1D       30.5850    2.1960   23.6000 C.3   601  NDP601      0.2263
     36  N1N       29.6510    3.3170   23.6000 N.pl3 601  NDP601     -0.2787
     37  C2N       28.3440    3.1060   23.3670 C.3   601  NDP601      0.1244
     38  C3N       27.4510    4.1610   23.2610 C.2   601  NDP601      0.0544
     39  C7N       26.0430    3.9230   22.7930 C.2   601  NDP601      0.2818
     40  O7N       25.3900    4.8960   22.4770 O.2   601  NDP601     -0.2670
     41  N7N       25.5070    2.6930   22.7340 N.am  601  NDP601     -0.0839
     42  C4N       27.9090    5.5870   23.5380 C.2   601  NDP601      0.0033
     43  C5N       29.3680    5.6920   23.5570 C.2   601  NDP601      0.0157
     44  C6N       30.1690    4.5550   23.7100 C.2   601  NDP601      0.0633
     45  P2B       25.7770   -9.9710   19.7610 P.3   601  NDP601      0.5328
     46  O1X       26.3230  -11.2570   20.3340 O.3   601  NDP601     -0.1145
     47  O2X       24.8950   -9.2170   20.7100 O.3   601  NDP601     -0.1145
     48  O3X       25.1690  -10.1900   18.3960 O.2   601  NDP601     -0.2224
@<TRIPOS>BOND
     1     9     8    1
     2    48    45    2
     3    11    45    1
     4    11    10    1
     5    20    21    1
     6    20    19    1
     7    21    22    2
     8     8    10    1
     9     8     6    1
    10    45    46    1
    11    45    47    1
    12    12    10    1
    13    12     7    1
    14    12    13    1
    15     6     7    1
    16     6     5    1
    17    19    17    2
    18    22    13    1
    19    22    16    1
    20    26    24    2
    21    13    14    1
    22     4     5    1
    23     4     1    1
    24    17    16    1
    25    17    18    1
    26    16    15    2
    27    28    29    1
    28    28    27    1
    29     2     1    2
    30    30    29    1
    31    30    35    1
    32    14    15    1
    33    40    39    2
    34    24    27    1
    35    24    23    1
    36    24    25    1
    37    29    31    1
    38     1    23    1
    39     1     3    1
    40    41    39   am
    41    39    38    1
    42    38    37    1
    43    38    42    2
    44    37    36    1
    45    42    43    1
    46    43    44    2
    47    36    35    1
    48    36    44    1
    49    35    33    1
    50    31    32    1
    51    31    33    1
    52    33    34    1
