@<TRIPOS>MOLECULE
4a05_CBI_A_1.pdb
 23 24 0 0 0
SMALL
GASTEIGER

@<TRIPOS>ATOM
      1  C1        16.3220   -3.5220    9.8010 C.3   502  CBI502      0.2695
      2  C2        15.5300   -4.4310   10.7300 C.3   502  CBI502      0.2406
      3  C3        16.3290   -5.6890   11.0440 C.3   502  CBI502      0.2198
      4  C4        16.7140   -6.4220    9.7690 C.3   502  CBI502      0.2144
      5  C5        17.3170   -5.5250    8.6880 C.3   502  CBI502      0.1835
      6  C6        16.9540   -6.2210    7.3820 C.3   502  CBI502      0.2142
      7  O2        15.2700   -3.6900   11.9170 O.3   502  CBI502     -0.2149
      8  O3        15.5120   -6.5910   11.7940 O.3   502  CBI502     -0.2174
      9  O4        17.6460   -7.4700   10.0630 O.3   502  CBI502     -0.2176
     10  O5        16.7490   -4.2060    8.6190 O.3   502  CBI502     -0.3256
     11  O6        18.0090   -6.1350    6.4530 O.3   502  CBI502     -0.2176
     12  C1'       16.5920    1.4360    8.0710 C.3   502  CBI502      0.3023
     13  C2'       17.0170    0.2460    7.2170 C.3   502  CBI502      0.2433
     14  C3'       16.1630   -0.9760    7.5680 C.3   502  CBI502      0.2168
     15  C4'       16.2610   -1.2530    9.0650 C.3   502  CBI502      0.1804
     16  C5'       15.8510   -0.0090    9.8500 C.3   502  CBI502      0.1804
     17  C6'       16.0300   -0.1990   11.3500 C.3   502  CBI502      0.2141
     18  O1'       17.4850    2.5210    7.8410 O.3   502  CBI502     -0.1869
     19  O2'       16.8870    0.5650    5.8330 O.3   502  CBI502     -0.2148
     20  O3'       16.6580   -2.1060    6.8480 O.3   502  CBI502     -0.2175
     21  O4'       15.4920   -2.4120    9.4240 O.3   502  CBI502     -0.3257
     22  O5'       16.6830    1.0960    9.4600 O.3   502  CBI502     -0.3237
     23  O6'       17.4340   -0.3600   11.6090 O.3   502  CBI502     -0.2176
@<TRIPOS>BOND
     1    19    13    1
     2    11     6    1
     3    20    14    1
     4    13    14    1
     5    13    12    1
     6     6     5    1
     7    14    15    1
     8    18    12    1
     9    12    22    1
    10    10     5    1
    11    10     1    1
    12     5     4    1
    13    15    21    1
    14    15    16    1
    15    21     1    1
    16    22    16    1
    17     4     9    1
    18     4     3    1
    19     1     2    1
    20    16    17    1
    21     2     3    1
    22     2     7    1
    23     3     8    1
    24    17    23    1
