@<TRIPOS>MOLECULE
4a05_CTT_A_1.pdb
 45 48 0 0 0
SMALL
GASTEIGER

@<TRIPOS>ATOM
      1  O1B       17.4520   28.5200    4.4260 O.3   503  CTT503     -0.1869
      2  C1B       17.1860   27.1700    4.0480 C.3   503  CTT503      0.3023
      3  C2B       18.2260   26.2490    4.6660 C.3   503  CTT503      0.2433
      4  O2B       19.5270   26.6150    4.2000 O.3   503  CTT503     -0.2148
      5  C3B       17.9370   24.8150    4.2350 C.3   503  CTT503      0.2168
      6  O3B       18.8400   23.9560    4.9310 O.3   503  CTT503     -0.2175
      7  O5B       15.9270   26.7840    4.5850 O.3   503  CTT503     -0.3237
      8  C5B       15.5040   25.5240    4.0600 C.3   503  CTT503      0.1804
      9  C6B       14.0860   25.2620    4.5510 C.3   503  CTT503      0.2141
     10  O6B       13.1910   26.0990    3.8180 O.3   503  CTT503     -0.2176
     11  C4B       16.4750   24.4180    4.4790 C.3   503  CTT503      0.1804
     12  O4B       16.1660   23.2520    3.7080 O.3   503  CTT503     -0.3257
     13  C1C       15.9190   22.1150    4.5260 C.3   503  CTT503      0.2695
     14  C2C       15.2040   21.0310    3.7190 C.3   503  CTT503      0.2404
     15  O2C       13.9300   21.4930    3.2730 O.3   503  CTT503     -0.2149
     16  C3C       15.0190   19.7580    4.5380 C.3   503  CTT503      0.2167
     17  O3C       14.5600   18.7020    3.6840 O.3   503  CTT503     -0.2175
     18  O5C       17.1670   21.6140    5.0080 O.3   503  CTT503     -0.3257
     19  C5C       16.9320   20.5630    5.9500 C.3   503  CTT503      0.1803
     20  C6C       18.2210   20.2850    6.7290 C.3   503  CTT503      0.2141
     21  O6C       19.2770   20.0070    5.8000 O.3   503  CTT503     -0.2176
     22  C4C       16.3430   19.3610    5.1890 C.3   503  CTT503      0.1804
     23  O4C       16.0920   18.2640    6.0590 O.3   503  CTT503     -0.3257
     24  C1D       16.7920   17.0700    5.7230 C.3   503  CTT503      0.2695
     25  C2D       16.7180   16.1770    6.9650 C.3   503  CTT503      0.2404
     26  O2D       17.5330   16.7400    8.0020 O.3   503  CTT503     -0.2149
     27  C3D       17.1800   14.7500    6.6920 C.3   503  CTT503      0.2167
     28  O3D       16.8500   13.9260    7.8350 O.3   503  CTT503     -0.2175
     29  O5D       16.1330   16.4470    4.6100 O.3   503  CTT503     -0.3257
     30  C5D       16.7100   15.1920    4.2340 C.3   503  CTT503      0.1803
     31  C6D       16.0260   14.6910    2.9600 C.3   503  CTT503      0.2141
     32  O6D       16.4030   15.5210    1.8450 O.3   503  CTT503     -0.2176
     33  C4D       16.5770   14.1880    5.3910 C.3   503  CTT503      0.1804
     34  O4D       17.2850   13.0080    5.0100 O.3   503  CTT503     -0.3257
     35  C1E       16.5850   11.8080    5.2480 C.3   503  CTT503      0.2695
     36  C2E       17.2060   10.6750    4.4140 C.3   503  CTT503      0.2406
     37  O2E       16.9650   10.8960    3.0190 O.3   503  CTT503     -0.2149
     38  C3E       16.6140    9.3420    4.8660 C.3   503  CTT503      0.2198
     39  O3E       17.2430    8.2190    4.2180 O.3   503  CTT503     -0.2174
     40  C4E       16.7990    9.1920    6.3710 C.3   503  CTT503      0.2144
     41  O4E       16.2100    7.9520    6.7870 O.3   503  CTT503     -0.2176
     42  O5E       16.7510   11.5770    6.6450 O.3   503  CTT503     -0.3256
     43  C5E       16.1600   10.3630    7.1210 C.3   503  CTT503      0.1835
     44  C6E       16.4010   10.2790    8.6220 C.3   503  CTT503      0.2142
     45  O6E       15.8710   11.4460    9.2610 O.3   503  CTT503     -0.2176
@<TRIPOS>BOND
     1    32    31    1
     2    31    30    1
     3    37    36    1
     4    15    14    1
     5    17    16    1
     6    12    11    1
     7    12    13    1
     8    14    13    1
     9    14    16    1
    10    10     9    1
    11     2     1    1
    12     2     7    1
    13     2     3    1
    14     8    11    1
    15     8     9    1
    16     8     7    1
    17     4     3    1
    18    39    38    1
    19    30    29    1
    20    30    33    1
    21     5    11    1
    22     5     3    1
    23     5     6    1
    24    36    38    1
    25    36    35    1
    26    13    18    1
    27    16    22    1
    28    29    24    1
    29    38    40    1
    30    18    19    1
    31    34    35    1
    32    34    33    1
    33    22    19    1
    34    22    23    1
    35    35    42    1
    36    33    27    1
    37    24    23    1
    38    24    25    1
    39    21    20    1
    40    19    20    1
    41    40    41    1
    42    40    43    1
    43    42    43    1
    44    27    25    1
    45    27    28    1
    46    25    26    1
    47    43    44    1
    48    44    45    1
