@<TRIPOS>MOLECULE
4a06_A06_A_1.pdb
 19 21 0 0 0
SMALL
GASTEIGER

@<TRIPOS>ATOM
      1  C1        13.8400   -6.3890  -14.5350 C.ar  600  A06600     -0.0210
      2  C6        13.0740   -7.0340  -13.5690 C.ar  600  A06600     -0.0034
      3  C5        13.3230   -8.3690  -13.2680 C.ar  600  A06600      0.0111
      4  C4        14.3390   -9.0490  -13.9370 C.ar  600  A06600      0.0577
      5  C3        15.1020   -8.3960  -14.9010 C.ar  600  A06600      0.0111
      6  C2        14.8540   -7.0650  -15.1990 C.ar  600  A06600     -0.0034
      7  C8        16.3280   -4.1000  -11.8480 C.ar  600  A06600      0.1738
      8  C9        16.4510   -3.8600  -10.4870 C.ar  600  A06600      0.0366
      9  C10       17.6700   -4.1100   -9.8640 C.ar  600  A06600      0.0142
     10  C11       18.7610   -4.5950  -10.5810 C.ar  600  A06600      0.0604
     11  C12       18.6850   -4.8440  -11.9460 C.ar  600  A06600      0.0471
     12  C13       17.4900   -4.6080  -12.6060 C.ar  600  A06600      0.1746
     13  N14       17.0770   -4.7390  -13.8830 N.2   600  A06600     -0.3410
     14  C15       15.7790   -4.3490  -13.9520 C.1   600  A06600      0.1138
     15  C14       13.5960   -4.9720  -14.8690 C.3   600  A06600      0.0444
     16  C16       14.9440   -4.3510  -15.2100 C.3   600  A06600      0.1295
     17 CL1        20.3040   -4.9050   -9.7300 Cl    600  A06600     -0.0822
     18  N9        15.3330   -3.9760  -12.7330 N.2   600  A06600     -0.3410
     19 CL2        14.6760  -10.7760  -13.5680 Cl    600  A06600     -0.0822
@<TRIPOS>BOND
     1    16    15    1
     2    16    14    1
     3     6     5   ar
     4     6     1   ar
     5     5     4   ar
     6    15     1    1
     7     1     2   ar
     8    14    13    2
     9    14    18    2
    10     4    19    1
    11     4     3   ar
    12    13    12    2
    13     2     3   ar
    14    18     7    2
    15    12    11   ar
    16    12     7   ar
    17    11    10   ar
    18     7     8   ar
    19    10     9   ar
    20    10    17    1
    21     8     9   ar
