@<TRIPOS>MOLECULE
4a06_ATP_A_1.pdb
 31 33 0 0 0
SMALL
GASTEIGER

@<TRIPOS>ATOM
      1  PG        27.4120  -18.1340  -13.9500 P.3   500  ATP500      0.5373
      2  O1G       27.2370  -17.8380  -15.4230 O.2   500  ATP500     -0.2221
      3  O2G       28.8380  -18.0600  -13.4590 O.3   500  ATP500     -0.1143
      4  O3G       26.4180  -17.4410  -13.0430 O.3   500  ATP500     -0.1143
      5  PB        25.7750  -20.3760  -14.5090 P.3   500  ATP500      0.2277
      6  O1B       26.0840  -21.8450  -14.6850 O.3   500  ATP500     -0.4368
      7  O2B       25.3390  -19.5410  -15.6940 O.2   500  ATP500     -0.5168
      8  O3B       27.0690  -19.7040  -13.8200 O.3   500  ATP500     -0.2258
      9  PA        23.1060  -20.4030  -13.5240 P.3   500  ATP500      0.2189
     10  O1A       22.7820  -20.1050  -14.9730 O.2   500  ATP500     -0.5170
     11  O2A       22.4050  -19.6370  -12.4260 O.3   500  ATP500     -0.4371
     12  O3A       24.6960  -20.2190  -13.3170 O.3   500  ATP500     -0.2700
     13  O5'       22.8670  -21.9670  -13.2230 O.3   500  ATP500     -0.3112
     14  C5'       23.9320  -22.8900  -13.0060 C.3   500  ATP500      0.1813
     15  C4'       23.3570  -24.3000  -13.0970 C.3   500  ATP500      0.1821
     16  O4'       21.9310  -24.2450  -12.9810 O.3   500  ATP500     -0.3135
     17  C3'       23.6500  -24.9740  -14.4320 C.3   500  ATP500      0.2184
     18  O3'       24.7810  -25.8500  -14.3410 O.3   500  ATP500     -0.2174
     19  C2'       22.3930  -25.7530  -14.7700 C.3   500  ATP500      0.2570
     20  O2'       22.6030  -27.1500  -14.5260 O.3   500  ATP500     -0.2130
     21  C1'       21.3130  -25.2130  -13.8370 C.3   500  ATP500      0.3186
     22  N9        20.2020  -24.6020  -14.6270 N.pl3 500  ATP500     -0.1439
     23  C8        20.1730  -23.3600  -15.1720 C.3   500  ATP500      0.3377
     24  N7        19.0060  -23.1290  -15.8380 N.2   500  ATP500     -0.2095
     25  C5        18.2650  -24.2540  -15.7230 C.2   500  ATP500      0.2526
     26  C6        16.9220  -24.7050  -16.1800 C.2   500  ATP500      0.4393
     27  N6        16.1430  -23.8740  -16.9150 N.pl3 500  ATP500      0.2180
     28  N1        16.5160  -25.9610  -15.8460 N.2   500  ATP500      0.0021
     29  C2        17.3030  -26.7860  -15.1210 C.3   500  ATP500      0.5254
     30  N3        18.5280  -26.4480  -14.6700 N.2   500  ATP500     -0.0055
     31  C4        19.0530  -25.2190  -14.9310 C.2   500  ATP500      0.3518
@<TRIPOS>BOND
     1    27    26    1
     2    26    28    2
     3    26    25    1
     4    28    29    1
     5    24    25    2
     6    24    23    1
     7    25    31    1
     8     7     5    2
     9     2     1    2
    10    23    22    1
    11    29    30    1
    12    10     9    2
    13    31    30    2
    14    31    22    1
    15    19    20    1
    16    19    17    1
    17    19    21    1
    18     6     5    1
    19    22    21    1
    20     5     8    1
    21     5    12    1
    22    17    18    1
    23    17    15    1
    24     1     8    1
    25     1     3    1
    26     1     4    1
    27    21    16    1
    28     9    12    1
    29     9    13    1
    30     9    11    1
    31    13    14    1
    32    15    14    1
    33    15    16    1
