@<TRIPOS>MOLECULE
4a07_ATP_A_1.pdb
 35 37 0 0 0
SMALL
GASTEIGER

@<TRIPOS>ATOM
      1  PG       -23.7640   25.3750   -9.3890 P.3   500  ATP500      0.5373
      2  O1G      -24.1750   24.9580   -7.9950 O.3   500  ATP500     -0.1143
      3  O2G      -24.8640   25.2600  -10.4210 O.2   500  ATP500     -0.2221
      4  O3G      -22.9600   26.6500   -9.4490 O.3   500  ATP500     -0.1143
      5  PB       -21.4690   23.7510   -9.0150 P.3   500  ATP500      0.2277
      6  O1B      -21.5410   22.2420   -9.0810 O.2   500  ATP500     -0.5168
      7  O2B      -21.4470   24.4830   -7.6910 O.3   500  ATP500     -0.4368
      8  O3B      -22.7160   24.2640   -9.8910 O.3   500  ATP500     -0.2258
      9  PA       -18.6870   24.0660   -9.5540 P.3   500  ATP500      0.2189
     10  O1A      -18.4580   24.4830   -8.1150 O.3   500  ATP500     -0.4371
     11  O2A      -17.8670   24.6900  -10.6570 O.2   500  ATP500     -0.5170
     12  O3A      -20.2440   24.2690   -9.9310 O.3   500  ATP500     -0.2700
     13  O5'      -18.4880   22.4770   -9.6730 O.3   500  ATP500     -0.3112
     14  C5'      -19.0050   21.7590  -10.7870 C.3   500  ATP500      0.1813
     15  C4'      -18.6740   20.2860  -10.6000 C.3   500  ATP500      0.1799
     16  O4'      -17.2630   20.0530  -10.6690 O.3   500  ATP500     -0.3324
     17  C3'      -19.1230   19.8010   -9.2330 C.3   500  ATP500      0.2158
     18  O3'      -20.4130   19.1930   -9.3170 O.3   500  ATP500     -0.2175
     19  C2'      -18.0720   18.7950   -8.8130 C.3   500  ATP500      0.2313
     20  O2'      -18.5680   17.4680   -9.0240 O.3   500  ATP500     -0.2158
     21  C1'      -16.8770   19.0530   -9.7220 C.3   500  ATP500      0.2331
     22  N9       -15.7780   19.5840   -8.8930 N.pl3 500  ATP500     -0.2163
     23  C8       -15.7710   20.8120   -8.3350 C.2   500  ATP500      0.1454
     24  N7       -14.6320   21.0120   -7.6270 N.2   500  ATP500     -0.3871
     25  C5       -13.8980   19.8890   -7.7290 C.2   500  ATP500      0.2211
     26  C6       -12.5890   19.4430   -7.2170 C.2   500  ATP500      0.2227
     27  N6       -11.8650   20.2870   -6.4480 N.pl3 500  ATP500     -0.3300
     28  N1       -12.1630   18.1990   -7.5420 N.2   500  ATP500     -0.3296
     29  C2       -12.9040   17.3740   -8.3080 C.1   500  ATP500      0.0930
     30  N3       -14.1090   17.7250   -8.8090 N.2   500  ATP500     -0.3287
     31  C4       -14.6510   18.9440   -8.5590 C.2   500  ATP500      0.2357
     32  H8       -16.5640   21.5410   -8.4430 H     500  ATP500      0.1149
     33 HN61      -10.9670   19.9970   -6.0880 H     500  ATP500      0.1448
     34 HN62      -12.2230   21.2060   -6.2320 H     500  ATP500      0.1448
     35  H2       -12.5140   16.3900   -8.5370 H     500  ATP500      0.1751
@<TRIPOS>BOND
     1    14    15    1
     2    14    13    1
     3    16    15    1
     4    16    21    1
     5    11     9    2
     6    15    17    1
     7     3     1    2
     8    12     9    1
     9    12     5    1
    10     8     1    1
    11     8     5    1
    12    21    22    1
    13    21    19    1
    14    13     9    1
    15     9    10    1
    16     4     1    1
    17     1     2    1
    18    18    17    1
    19    17    19    1
    20     6     5    2
    21    20    19    1
    22     5     7    1
    23    22    31    1
    24    22    23    1
    25    30    31    2
    26    30    29    2
    27    31    25    1
    28    35    29    1
    29    32    23    1
    30    23    24    2
    31    29    28    2
    32    25    24    2
    33    25    26    1
    34    28    26    2
    35    26    27    1
    36    27    34    1
    37    27    33    1
