@<TRIPOS>MOLECULE
4a07_AZ7_A_1.pdb
 24 26 0 0 0
SMALL
GASTEIGER

@<TRIPOS>ATOM
      1 CL6       -14.8340   40.3470  -14.9250 Cl    600  AZ7600     -0.0821
      2  C5       -14.0750   40.0760  -13.3220 C.ar  600  AZ7600      0.0613
      3  C6       -14.8510   39.4990  -12.3180 C.ar  600  AZ7600      0.0256
      4  C1       -14.3240   39.2600  -11.0540 C.ar  600  AZ7600      0.0915
      5 CL5       -15.3320   38.5200   -9.7700 Cl    600  AZ7600     -0.0794
      6  C4       -12.7400   40.4380  -13.1180 C.ar  600  AZ7600      0.0471
      7  C3       -12.1310   40.2340  -11.8840 C.ar  600  AZ7600      0.1754
      8  N9       -10.9100   40.4620  -11.3800 N.2   600  AZ7600     -0.3410
      9  C8       -10.8700   40.0400  -10.0960 C.1   600  AZ7600      0.1138
     10  N7       -12.0840   39.5540   -9.7290 N.2   600  AZ7600     -0.3402
     11  C2       -12.9110   39.6310  -10.7900 C.ar  600  AZ7600      0.1842
     12  C10       -9.6720   40.1640   -9.1790 C.3   600  AZ7600      0.1297
     13  C11       -8.7960   38.9360   -8.8930 C.3   600  AZ7600      0.0506
     14  C19       -7.4480   39.0430   -9.6050 C.3   600  AZ7600      0.1195
     15  C20       -6.4800   38.1020   -8.9190 C.2   600  AZ7600      0.3652
     16  O22       -5.9230   37.2090   -9.5970 O.co2 600  AZ7600     -0.2456
     17  O21       -6.2790   38.2470   -7.6920 O.co2 600  AZ7600     -0.2456
     18  C12       -9.3750   37.5910   -9.1530 C.ar  600  AZ7600     -0.0208
     19  C17       -8.7660   36.7590  -10.0910 C.ar  600  AZ7600     -0.0034
     20  C16       -9.2630   35.4840  -10.3380 C.ar  600  AZ7600      0.0111
     21  C15      -10.3620   35.0290   -9.6160 C.ar  600  AZ7600      0.0577
     22 CL9       -11.0120   33.3790   -9.9180 Cl    600  AZ7600     -0.0822
     23  C14      -10.9570   35.8520   -8.6610 C.ar  600  AZ7600      0.0111
     24  C13      -10.4600   37.1280   -8.4190 C.ar  600  AZ7600     -0.0034
@<TRIPOS>BOND
     1     1     2    1
     2     2     6   ar
     3     2     3   ar
     4     6     7   ar
     5     3     4   ar
     6     7     8    2
     7     7    11   ar
     8     8     9    2
     9     4    11   ar
    10     4     5    1
    11    11    10    2
    12    20    19   ar
    13    20    21   ar
    14     9    10    2
    15     9    12    1
    16    19    18   ar
    17    22    21    1
    18    21    23   ar
    19    14    15    1
    20    14    13    1
    21    16    15   ar
    22    12    13    1
    23    18    13    1
    24    18    24   ar
    25    15    17   ar
    26    23    24   ar
