@<TRIPOS>MOLECULE
4a0f_PLP_A_1.pdb
 15 15 0 0 0
SMALL
GASTEIGER

@<TRIPOS>ATOM
      1  N1        64.7120   28.8080   39.7500 N.2   1644  PLP1644    -0.2458
      2  C2        65.4330   29.9790   39.8270 C.2   1644  PLP1644     0.0942
      3  C2A       65.5870   30.6560   41.1500 C.3   1644  PLP1644     0.0552
      4  C3        66.0350   30.5180   38.6900 C.2   1644  PLP1644     0.1899
      5  O3        66.6890   31.5620   38.7730 O.2   1644  PLP1644    -0.2898
      6  C4        65.8930   29.8720   37.4610 C.3   1644  PLP1644     0.0852
      7  C4A       66.5300   30.4270   36.2100 C.3   1644  PLP1644     0.0127
      8  C5        65.1480   28.6870   37.3930 C.2   1644  PLP1644     0.0118
      9  C6        64.5610   28.1610   38.5420 C.2   1644  PLP1644     0.0929
     10  C5A       64.9660   27.9720   36.0830 C.3   1644  PLP1644     0.1779
     11  O4P       66.0380   27.9120   35.1170 O.3   1644  PLP1644    -0.2656
     12  P         65.7900   27.6810   33.5410 P.3   1644  PLP1644     0.5329
     13  O1P       65.6800   29.0390   32.9780 O.2   1644  PLP1644    -0.2224
     14  O2P       64.5150   26.9410   33.4170 O.3   1644  PLP1644    -0.1145
     15  O3P       67.0180   26.9190   33.1980 O.3   1644  PLP1644    -0.1145
@<TRIPOS>BOND
     1    13    12    2
     2    15    12    1
     3    14    12    1
     4    12    11    1
     5    11    10    1
     6    10     8    1
     7     7     6    1
     8     8     6    1
     9     8     9    2
    10     6     4    1
    11     9     1    1
    12     4     5    2
    13     4     2    1
    14     1     2    2
    15     2     3    1
