@<TRIPOS>MOLECULE
4a0g_PLP_A_1.pdb
 15 15 0 0 0
SMALL
GASTEIGER

@<TRIPOS>ATOM
      1  N1       -23.9670   -6.2930   -0.7890 N.2   1644  PLP1644    -0.2458
      2  C2       -25.1660   -5.6730   -1.1000 C.2   1644  PLP1644     0.0942
      3  C2A      -25.8800   -4.9170   -0.0150 C.3   1644  PLP1644     0.0552
      4  C3       -25.6790   -5.7480   -2.4060 C.2   1644  PLP1644     0.1899
      5  O3       -26.7500   -5.2050   -2.6860 O.2   1644  PLP1644    -0.2898
      6  C4       -24.9630   -6.4400   -3.3880 C.3   1644  PLP1644     0.0852
      7  C4A      -25.4920   -6.4910   -4.7850 C.3   1644  PLP1644     0.0127
      8  C5       -23.7630   -7.0780   -3.0580 C.2   1644  PLP1644     0.0118
      9  C6       -23.2670   -7.0050   -1.7480 C.2   1644  PLP1644     0.0929
     10  C5A      -22.9960   -7.8320   -4.0990 C.3   1644  PLP1644     0.1779
     11  O4P      -22.5320   -7.1170   -5.2560 O.3   1644  PLP1644    -0.2656
     12  P        -22.3780   -7.9160   -6.6520 P.3   1644  PLP1644     0.5329
     13  O1P      -23.7520   -8.0580   -7.1730 O.3   1644  PLP1644    -0.1145
     14  O2P      -21.7620   -9.2090   -6.2690 O.3   1644  PLP1644    -0.1145
     15  O3P      -21.5180   -7.0160   -7.4920 O.2   1644  PLP1644    -0.2224
@<TRIPOS>BOND
     1    15    12    2
     2    13    12    1
     3    12    14    1
     4    12    11    1
     5    11    10    1
     6     7     6    1
     7    10     8    1
     8     6     8    1
     9     6     4    1
    10     8     9    2
    11     5     4    2
    12     4     2    1
    13     9     1    1
    14     2     1    2
    15     2     3    1
