@<TRIPOS>MOLECULE
4a0h_KAP_A_1.pdb
 13 12 0 0 0
SMALL
GASTEIGER

@<TRIPOS>ATOM
      1  CA        40.2080  -33.9570   14.8710 C.2   1808  KAP1808     0.0816
      2  C         39.4040  -35.0940   14.3330 C.2   1808  KAP1808     0.3876
      3  OI1       38.5370  -35.6380   15.0810 O.co2 1808  KAP1808    -0.2406
      4  OI2       39.5990  -35.4990   13.1500 O.co2 1808  KAP1808    -0.2406
      5  CB        39.8430  -32.5660   14.3870 C.2   1808  KAP1808    -0.0193
      6  CG        40.7790  -31.4420   14.7610 C.3   1808  KAP1808     0.0267
      7  CD        40.8500  -31.0350   16.2030 C.3   1808  KAP1808     0.0125
      8  CE        39.6710  -30.2820   16.7500 C.3   1808  KAP1808     0.0664
      9  CZ        39.6440  -28.7640   16.5640 C.2   1808  KAP1808     0.1679
     10  CH        38.5330  -28.1010   15.7970 C.3   1808  KAP1808     0.1489
     11  CS        37.6650  -29.1050   15.1260 C.3   1808  KAP1808     0.0285
     12  O         40.5450  -28.0940   17.0340 O.2   1808  KAP1808    -0.2946
     13  N         39.0970  -27.1590   14.8250 N.3   1808  KAP1808    -0.1250
@<TRIPOS>BOND
     1     4     2   ar
     2     2     1    1
     3     2     3   ar
     4     5     6    1
     5     5     1    2
     6     6     7    1
     7    13    10    1
     8    11    10    1
     9    10     9    1
    10     7     8    1
    11     9     8    1
    12     9    12    2
