@<TRIPOS>MOLECULE
4a0h_PLP_A_1.pdb
 15 15 0 0 0
SMALL
GASTEIGER

@<TRIPOS>ATOM
      1  N1        43.7900  -24.9430   19.9020 N.2   1644  PLP1644    -0.2458
      2  C2        43.3160  -26.0610   20.5490 C.2   1644  PLP1644     0.0942
      3  C2A       44.1700  -26.7190   21.5880 C.3   1644  PLP1644     0.0552
      4  C3        42.0620  -26.5740   20.2380 C.2   1644  PLP1644     0.1899
      5  O3        41.6720  -27.5910   20.8180 O.2   1644  PLP1644    -0.2898
      6  C4        41.2770  -25.9480   19.2630 C.3   1644  PLP1644     0.0852
      7  C4A       39.9230  -26.5250   18.9590 C.3   1644  PLP1644     0.0127
      8  C5        41.7580  -24.8020   18.6170 C.2   1644  PLP1644     0.0118
      9  C6        43.0160  -24.3190   18.9480 C.2   1644  PLP1644     0.0929
     10  C5A       41.0070  -24.0670   17.5360 C.3   1644  PLP1644     0.1779
     11  O4P       39.6720  -23.5640   17.6890 O.3   1644  PLP1644    -0.2656
     12  P         38.6770  -23.5750   16.4350 P.3   1644  PLP1644     0.5329
     13  O1P       38.4720  -25.0190   16.2250 O.3   1644  PLP1644    -0.1145
     14  O2P       39.3450  -22.8850   15.3150 O.2   1644  PLP1644    -0.2224
     15  O3P       37.5270  -22.7910   16.9450 O.3   1644  PLP1644    -0.1145
@<TRIPOS>BOND
     1    14    12    2
     2    13    12    1
     3    12    15    1
     4    12    11    1
     5    10    11    1
     6    10     8    1
     7     8     9    2
     8     8     6    1
     9     9     1    1
    10     7     6    1
    11     6     4    1
    12     1     2    2
    13     4     2    1
    14     4     5    2
    15     2     3    1
