@<TRIPOS>MOLECULE
4a0i_III_C_1.pdb
 34 33 0 0 0
SMALL
GASTEIGER

@<TRIPOS>ATOM
      1  N         -5.9550  -44.6790   29.0910 N.3     1  ALA1       -0.1231
      2  CA        -4.7910  -44.1760   29.8090 C.3     1  ALA1        0.1694
      3  C         -5.1910  -43.1950   30.9070 C.2     1  ALA1        0.2592
      4  O         -6.0590  -42.3390   30.7190 O.2     1  ALA1       -0.2718
      5  CB        -3.8110  -43.5260   28.8450 C.3     1  ALA1        0.0304
      6  N         -4.5410  -43.3300   32.0560 N.am    2  LYS2       -0.1966
      7  CA        -4.8330  -42.5120   33.2210 C.3     2  LYS2        0.1728
      8  C         -4.1540  -41.1500   33.1030 C.2     2  LYS2        0.2616
      9  O         -3.2180  -40.9710   32.3250 O.2     2  LYS2       -0.2715
     10  CB        -4.3660  -43.2510   34.4800 C.3     2  LYS2        0.0311
     11  CG        -4.4960  -42.4930   35.7900 C.3     2  LYS2        0.0038
     12  CD        -4.0260  -43.3570   36.9580 C.3     2  LYS2        0.0206
     13  CE        -2.6330  -43.9240   36.7030 C.3     2  LYS2        0.1093
     14  NZ        -2.1460  -44.7820   37.8240 N.3     2  LYS2       -0.1314
     15  N         -4.6430  -40.1870   33.8740 N.am    3  GLU3       -0.1963
     16  CA        -4.0440  -38.8620   33.9280 C.3     3  GLU3        0.1733
     17  C         -3.1470  -38.7680   35.1590 C.2     3  GLU3        0.2616
     18  O         -3.4310  -39.3880   36.1840 O.2     3  GLU3       -0.2715
     19  CB        -5.1400  -37.8110   33.9780 C.3     3  GLU3        0.0429
     20  CG        -4.6680  -36.4210   33.6820 C.3     3  GLU3        0.1163
     21  CD        -5.8220  -35.4910   33.3870 C.2     3  GLU3        0.3649
     22  OE1       -6.9760  -35.9720   33.3880 O.co2   3  GLU3       -0.2457
     23  OE2       -5.5770  -34.2860   33.1500 O.co2   3  GLU3       -0.2457
     24  N         -2.0650  -38.0010   35.0620 N.am    4  ARG4       -0.1977
     25  CA        -1.0370  -38.0070   36.1030 C.3     4  ARG4        0.1597
     26  C         -1.5760  -37.6780   37.4970 C.2     4  ARG4        0.2287
     27  O         -1.4530  -38.4790   38.4300 O.2     4  ARG4       -0.2864
     28  CB         0.1170  -37.0680   35.7350 C.3     4  ARG4        0.0334
     29  CG         1.2730  -37.1130   36.7310 C.3     4  ARG4        0.0492
     30  CD         2.5160  -36.3760   36.2250 C.3     4  ARG4        0.2205
     31  NE         3.5940  -36.4010   37.2160 N.pl3   4  ARG4       -0.0865
     32  CZ         4.7620  -35.7730   37.0870 C.cat   4  ARG4        0.5346
     33  NH1        5.0270  -35.0620   36.0000 N.pl3   4  ARG4        0.1354
     34  NH2        5.6720  -35.8590   38.0500 N.pl3   4  ARG4        0.1354
@<TRIPOS>BOND
     1     5     2    1
     2     1     2    1
     3     2     3    1
     4     4     3    2
     5     3     6   am
     6     6     7    1
     7     9     8    2
     8     8     7    1
     9     8    15   am
    10    23    21   ar
    11     7    10    1
    12    21    22   ar
    13    21    20    1
    14    20    19    1
    15    15    16    1
    16    16    19    1
    17    16    17    1
    18    10    11    1
    19    24    17   am
    20    24    25    1
    21    17    18    2
    22    28    25    1
    23    28    29    1
    24    11    12    1
    25    33    32    1
    26    25    26    1
    27    30    29    1
    28    30    31    1
    29    13    12    1
    30    13    14    1
    31    32    31    2
    32    32    34    1
    33    26    27    2
