@<TRIPOS>MOLECULE
4a0j_III_C_1.pdb
 46 45 0 0 0
SMALL
GASTEIGER

@<TRIPOS>ATOM
      1  N         -3.5910  -44.7810   30.1140 N.3     1  ALA1       -0.1231
      2  CA        -2.7210  -44.6460   31.2800 C.3     1  ALA1        0.1694
      3  C         -3.2820  -43.6650   32.3130 C.2     1  ALA1        0.2592
      4  O         -4.3730  -43.1280   32.1360 O.2     1  ALA1       -0.2718
      5  CB        -1.3410  -44.2260   30.8480 C.3     1  ALA1        0.0304
      6  N         -2.5330  -43.4380   33.3890 N.am    2  ARG2       -0.1966
      7  CA        -2.9520  -42.5070   34.4370 C.3     2  ARG2        0.1729
      8  C         -2.2790  -41.1510   34.2820 C.2     2  ARG2        0.2617
      9  O         -1.2060  -41.0500   33.6920 O.2     2  ARG2       -0.2715
     10  CB        -2.5890  -43.0400   35.8270 C.3     2  ARG2        0.0348
     11  CG        -3.2010  -44.3660   36.2070 C.3     2  ARG2        0.0492
     12  CD        -2.8320  -44.7120   37.6410 C.3     2  ARG2        0.2205
     13  NE        -1.4340  -44.3940   37.9340 N.pl3   2  ARG2       -0.0865
     14  CZ        -0.4140  -45.2240   37.7280 C.cat   2  ARG2        0.5346
     15  NH1       -0.6250  -46.4310   37.2220 N.pl3   2  ARG2        0.1354
     16  NH2        0.8210  -44.8490   38.0280 N.pl3   2  ARG2        0.1354
     17  N         -2.9050  -40.1170   34.8360 N.am    3  THR3       -0.1938
     18  CA        -2.2300  -38.8410   35.0410 C.3     3  THR3        0.2002
     19  CB        -3.2430  -37.7390   35.3970 C.3     3  THR3        0.1551
     20  CG2       -2.5270  -36.4910   35.9280 C.3     3  THR3        0.0350
     21  OG1       -4.0310  -37.3860   34.2540 O.3     3  THR3       -0.2705
     22  P         -5.4840  -36.9470   34.7930 P.3     3  THR3        0.5326
     23  O1P       -6.5420  -37.4520   33.8880 O.2     3  THR3       -0.2224
     24  O2P       -5.6740  -37.5460   36.2760 O.3     3  THR3       -0.1145
     25  O3P       -5.5970  -35.3420   34.8530 O.3     3  THR3       -0.1145
     26  C         -1.2170  -39.0320   36.1690 C.2     3  THR3        0.2641
     27  O         -1.5330  -39.6260   37.2010 O.2     3  THR3       -0.2714
     28  N          0.0020  -38.5440   35.9670 N.am    4  LYS4       -0.1963
     29  CA         1.0700  -38.7110   36.9520 C.3     4  LYS4        0.1728
     30  C          0.6620  -38.2360   38.3480 C.2     4  LYS4        0.2616
     31  O         -0.1270  -37.2970   38.4940 O.2     4  LYS4       -0.2715
     32  CB         2.3440  -37.9840   36.5020 C.3     4  LYS4        0.0311
     33  CG         3.4860  -38.0700   37.5060 C.3     4  LYS4        0.0038
     34  CD         4.5650  -37.0150   37.2660 C.3     4  LYS4        0.0206
     35  CE         5.5740  -37.0360   38.4120 C.3     4  LYS4        0.1093
     36  NZ         6.5380  -35.9060   38.3630 N.3     4  LYS4       -0.1314
     37  N          1.2060  -38.8920   39.3680 N.am    5  GLN5       -0.1963
     38  CA         0.9370  -38.5170   40.7500 C.3     5  GLN5        0.1728
     39  C          2.2400  -38.1750   41.4760 C.2     5  GLN5        0.2616
     40  O          3.2660  -38.8230   41.2650 O.2     5  GLN5       -0.2715
     41  CB         0.1950  -39.6470   41.4660 C.3     5  GLN5        0.0334
     42  N          2.1930  -37.1470   42.3210 N.am    6  THR6       -0.1977
     43  CA         3.3590  -36.7030   43.0910 C.3     6  THR6        0.1597
     44  C          4.4630  -36.0980   42.2160 C.2     6  THR6        0.2287
     45  O          5.0150  -35.0360   42.5310 O.2     6  THR6       -0.2864
     46  CB         3.9470  -37.8430   43.9590 C.3     6  THR6        0.0319
@<TRIPOS>BOND
     1     1     2    1
     2     5     2    1
     3     2     3    1
     4     4     3    2
     5     3     6   am
     6     6     7    1
     7     9     8    2
     8    23    22    2
     9    21    22    1
    10    21    19    1
    11     8     7    1
    12     8    17   am
    13     7    10    1
    14    22    25    1
    15    22    24    1
    16    17    18    1
    17    18    19    1
    18    18    26    1
    19    19    20    1
    20    10    11    1
    21    28    26   am
    22    28    29    1
    23    26    27    2
    24    11    12    1
    25    32    29    1
    26    32    33    1
    27    29    30    1
    28    15    14    1
    29    34    33    1
    30    34    35    1
    31    12    13    1
    32    14    13    2
    33    14    16    1
    34    30    31    2
    35    30    37   am
    36    36    35    1
    37    37    38    1
    38    38    41    1
    39    38    39    1
    40    40    39    2
    41    39    42   am
    42    44    45    2
    43    44    43    1
    44    42    43    1
    45    43    46    1
