@<TRIPOS>MOLECULE
4a0m_NAD_A_1.pdb
 44 48 0 0 0
SMALL
GASTEIGER

@<TRIPOS>ATOM
      1  PA        26.5470   11.5010   41.2230 P.3   1498  NAD1498     0.2189
      2  O1A       26.7440   12.9530   41.0860 O.3   1498  NAD1498    -0.4371
      3  O2A       26.9740   10.7710   40.0500 O.2   1498  NAD1498    -0.5170
      4  O5B       25.0370   11.1840   41.4430 O.3   1498  NAD1498    -0.3112
      5  C5B       24.4190   11.4620   42.6820 C.3   1498  NAD1498     0.1813
      6  C4B       22.9330   11.2270   42.5590 C.3   1498  NAD1498     0.1821
      7  O4B       22.3650   12.0610   41.5610 O.3   1498  NAD1498    -0.3135
      8  C3B       22.6130    9.8440   42.1050 C.3   1498  NAD1498     0.2184
      9  O3B       21.4610    9.4250   42.7820 O.3   1498  NAD1498    -0.2174
     10  C2B       22.2590   10.0060   40.6720 C.3   1498  NAD1498     0.2570
     11  O2B       21.3880    8.9410   40.4660 O.3   1498  NAD1498    -0.2130
     12  C1B       21.6310   11.3780   40.5870 C.3   1498  NAD1498     0.3186
     13  N9A       21.7920   12.0990   39.2960 N.pl3 1498  NAD1498    -0.1439
     14  C8A       22.5880   11.7570   38.3100 C.3   1498  NAD1498     0.3377
     15  N7A       22.4810   12.5920   37.2980 N.2   1498  NAD1498    -0.2095
     16  C5A       21.6060   13.4960   37.6520 C.2   1498  NAD1498     0.2526
     17  C6A       21.1190   14.5900   37.0010 C.2   1498  NAD1498     0.4393
     18  N6A       21.5550   14.8850   35.7710 N.pl3 1498  NAD1498     0.2180
     19  N1A       20.2270   15.3380   37.6210 N.2   1498  NAD1498     0.0021
     20  C2A       19.8230   15.0190   38.8260 C.3   1498  NAD1498     0.5254
     21  N3A       20.2720   13.9740   39.4600 N.2   1498  NAD1498    -0.0055
     22  C4A       21.1740   13.1890   38.9050 C.2   1498  NAD1498     0.3518
     23  O3        27.2310   11.0230   42.6000 O.3   1498  NAD1498    -0.2703
     24  PN        27.4500    9.6210   43.3420 P.3   1498  NAD1498     0.2189
     25  O1N       28.2390    8.7950   42.4000 O.2   1498  NAD1498    -0.5170
     26  O2N       26.2300    9.0370   43.9740 O.3   1498  NAD1498    -0.4371
     27  O5D       28.3600    9.9510   44.5790 O.3   1498  NAD1498    -0.3112
     28  C5D       29.6730   10.4010   44.4070 C.3   1498  NAD1498     0.1813
     29  C4D       29.9150   11.7770   45.0110 C.3   1498  NAD1498     0.1799
     30  O4D       29.2340   11.9620   46.2410 O.3   1498  NAD1498    -0.3327
     31  C3D       31.3690   11.9510   45.3480 C.3   1498  NAD1498     0.2158
     32  O3D       31.9250   12.9080   44.4760 O.3   1498  NAD1498    -0.2175
     33  C2D       31.3690   12.3670   46.8230 C.3   1498  NAD1498     0.2309
     34  O2D       32.3670   13.3180   47.1490 O.3   1498  NAD1498    -0.2158
     35  C1D       29.9710   12.8710   47.0390 C.3   1498  NAD1498     0.2263
     36  N1N       29.4550   12.8290   48.4010 N.pl3 1498  NAD1498    -0.2787
     37  C2N       29.3530   13.9490   49.1150 C.3   1498  NAD1498     0.1244
     38  C3N       28.8170   13.9470   50.4040 C.2   1498  NAD1498     0.0544
     39  C7N       28.7340   15.2170   51.2040 C.2   1498  NAD1498     0.2818
     40  O7N       27.9700   15.3290   52.2440 O.2   1498  NAD1498    -0.2670
     41  N7N       29.4710   16.2430   50.8730 N.am  1498  NAD1498    -0.0839
     42  C4N       28.3950   12.7570   50.9640 C.2   1498  NAD1498     0.0033
     43  C5N       28.5140   11.6190   50.1930 C.2   1498  NAD1498     0.0157
     44  C6N       29.0360   11.6860   48.9090 C.2   1498  NAD1498     0.0633
@<TRIPOS>BOND
     1    18    17    1
     2    17    19    2
     3    17    16    1
     4    15    16    2
     5    15    14    1
     6    19    20    1
     7    16    22    1
     8    14    13    1
     9    20    21    1
    10    22    13    1
    11    22    21    2
    12    13    12    1
    13     3     1    2
    14    11    10    1
    15    12    10    1
    16    12     7    1
    17    10     8    1
    18     2     1    1
    19     1     4    1
    20     1    23    1
    21     4     5    1
    22     7     6    1
    23     8     6    1
    24     8     9    1
    25    25    24    2
    26     6     5    1
    27    23    24    1
    28    24    26    1
    29    24    27    1
    30    28    27    1
    31    28    29    1
    32    32    31    1
    33    29    31    1
    34    29    30    1
    35    31    33    1
    36    30    35    1
    37    33    35    1
    38    33    34    1
    39    35    36    1
    40    36    44    1
    41    36    37    1
    42    44    43    2
    43    37    38    1
    44    43    42    1
    45    38    42    2
    46    38    39    1
    47    41    39   am
    48    39    40    2
