@<TRIPOS>MOLECULE
4a0n_III_C_1.pdb
 30 29 0 0 0
SMALL
GASTEIGER

@<TRIPOS>ATOM
      1  N         22.5140   23.7160  -25.0660 N.3     1  ALA1       -0.1231
      2  CA        21.7830   22.4550  -25.1470 C.3     1  ALA1        0.1694
      3  C         20.7810   22.4520  -26.3000 C.2     1  ALA1        0.2592
      4  O         20.3610   23.5090  -26.7700 O.2     1  ALA1       -0.2718
      5  CB        21.0830   22.1650  -23.8280 C.3     1  ALA1        0.0304
      6  N         20.4090   21.2580  -26.7540 N.am    2  ARG2       -0.1966
      7  CA        19.4570   21.1060  -27.8530 C.3     2  ARG2        0.1728
      8  C         18.3640   20.1120  -27.4830 C.2     2  ARG2        0.2617
      9  O         18.4670   19.4140  -26.4740 O.2     2  ARG2       -0.2715
     10  CB        20.1680   20.6480  -29.1340 C.3     2  ARG2        0.0334
     11  N         17.3210   20.0500  -28.3050 N.am    3  THR3       -0.1938
     12  CA        16.2330   19.1060  -28.0780 C.3     3  THR3        0.2002
     13  CB        14.9890   19.5130  -28.8690 C.3     3  THR3        0.1551
     14  CG2       13.9410   18.4020  -28.8110 C.3     3  THR3        0.0350
     15  OG1       14.4490   20.6930  -28.2750 O.3     3  THR3       -0.2705
     16  P         13.9190   21.6740  -29.4360 P.3     3  THR3        0.5326
     17  O1P       14.0220   23.0810  -28.9800 O.3     3  THR3       -0.1145
     18  O2P       14.7890   21.4750  -30.7780 O.2     3  THR3       -0.2224
     19  O3P       12.3740   21.3380  -29.7300 O.3     3  THR3       -0.1145
     20  C         16.6640   17.6800  -28.4170 C.2     3  THR3        0.2641
     21  O         17.2800   17.4360  -29.4590 O.2     3  THR3       -0.2714
     22  N         16.3470   16.7470  -27.5240 N.am    4  LYS4       -0.1977
     23  CA        16.7350   15.3500  -27.6870 C.3     4  LYS4        0.1596
     24  C         16.0460   14.6980  -28.8830 C.2     4  LYS4        0.2287
     25  O         15.0080   15.1670  -29.3490 O.2     4  LYS4       -0.2864
     26  CB        16.4230   14.5660  -26.4130 C.3     4  LYS4        0.0298
     27  CG        15.4770   13.4000  -26.6100 C.3     4  LYS4        0.0038
     28  CD        16.2090   12.0790  -26.4720 C.3     4  LYS4        0.0206
     29  CE        15.2720   10.9000  -26.6820 C.3     4  LYS4        0.1093
     30  NZ        16.0120    9.6060  -26.7370 N.3     4  LYS4       -0.1314
@<TRIPOS>BOND
     1    18    16    2
     2    19    16    1
     3    21    20    2
     4    16    17    1
     5    16    15    1
     6    25    24    2
     7    10     7    1
     8    24    23    1
     9    13    14    1
    10    13    15    1
    11    13    12    1
    12    20    12    1
    13    20    22   am
    14    11    12    1
    15    11     8   am
    16     7     8    1
    17     7     6    1
    18    23    22    1
    19    23    26    1
    20     8     9    2
    21     4     3    2
    22     6     3   am
    23    30    29    1
    24    29    28    1
    25    27    28    1
    26    27    26    1
    27     3     2    1
    28     2     1    1
    29     2     5    1
