@<TRIPOS>MOLECULE
4a0r_DTB_A_1.pdb
 15 15 0 0 0
SMALL
GASTEIGER

@<TRIPOS>ATOM
      1  CN        -3.2250  -12.2620   31.3420 C.1   1811  DTB1811     0.2386
      2  O         -3.2430  -13.4880   31.3410 O.2   1811  DTB1811    -0.2023
      3  N2        -2.4090  -11.4750   32.0330 N.2   1811  DTB1811    -0.1869
      4  CR        -2.3780  -10.1280   31.4660 C.3   1811  DTB1811     0.1393
      5  CS        -3.7610  -10.0920   30.8170 C.3   1811  DTB1811     0.1394
      6  N1        -4.0320  -11.5090   30.6250 N.2   1811  DTB1811    -0.1869
      7  CT        -4.7970   -9.5030   31.7660 C.3   1811  DTB1811     0.0293
      8  CE        -2.2000   -9.0660   32.5580 C.3   1811  DTB1811     0.0272
      9  CD        -0.7290   -8.7290   32.8670 C.3   1811  DTB1811     0.0021
     10  CG        -0.0590   -7.6790   31.9700 C.3   1811  DTB1811     0.0006
     11  CB         0.2660   -6.3440   32.6620 C.3   1811  DTB1811     0.0118
     12  CA         1.7650   -6.0360   32.7800 C.3   1811  DTB1811     0.1141
     13  C          2.1600   -4.5670   32.5660 C.2   1811  DTB1811     0.3649
     14  OI1        1.7590   -3.6500   33.3290 O.co2 1811  DTB1811    -0.2457
     15  OI2        2.9270   -4.3010   31.6230 O.co2 1811  DTB1811    -0.2457
@<TRIPOS>BOND
     1     6     5    1
     2     6     1    2
     3     5     4    1
     4     5     7    1
     5     2     1    2
     6     1     3    2
     7     4     3    1
     8     4     8    1
     9    15    13   ar
    10    10    11    1
    11    10     9    1
    12     8     9    1
    13    13    12    1
    14    13    14   ar
    15    11    12    1
