@<TRIPOS>MOLECULE
4a0r_PLP_A_1.pdb
 15 15 0 0 0
SMALL
GASTEIGER

@<TRIPOS>ATOM
      1  N1        47.3130   -7.9420   17.1550 N.2   1644  PLP1644    -0.2458
      2  C2        46.8240   -8.9890   17.9140 C.2   1644  PLP1644     0.0942
      3  C2A       47.6600   -9.5530   19.0230 C.3   1644  PLP1644     0.0552
      4  C3        45.5630   -9.5240   17.6420 C.2   1644  PLP1644     0.1899
      5  O3        45.1380  -10.4610   18.3210 O.2   1644  PLP1644    -0.2898
      6  C4        44.7890   -9.0020   16.6030 C.3   1644  PLP1644     0.0852
      7  C4A       43.4330   -9.5960   16.3300 C.3   1644  PLP1644     0.0127
      8  C5        45.2880   -7.9350   15.8400 C.2   1644  PLP1644     0.0118
      9  C6        46.5430   -7.4150   16.1230 C.2   1644  PLP1644     0.0929
     10  C5A       44.5100   -7.3360   14.7170 C.3   1644  PLP1644     0.1779
     11  O4P       43.1570   -6.8790   14.9420 O.3   1644  PLP1644    -0.2656
     12  P         42.0790   -6.7830   13.7650 P.3   1644  PLP1644     0.5329
     13  O1P       41.6790   -8.1830   13.5880 O.3   1644  PLP1644    -0.1145
     14  O2P       42.7620   -6.2200   12.5750 O.2   1644  PLP1644    -0.2224
     15  O3P       41.0870   -5.8630   14.3960 O.3   1644  PLP1644    -0.1145
@<TRIPOS>BOND
     1    14    12    2
     2    13    12    1
     3    12    15    1
     4    12    11    1
     5    10    11    1
     6    10     8    1
     7     8     9    2
     8     8     6    1
     9     9     1    1
    10     7     6    1
    11     6     4    1
    12     1     2    2
    13     4     2    1
    14     4     5    2
    15     2     3    1
