@<TRIPOS>MOLECULE
4a0s_NAP_A_1.pdb
 48 52 0 0 0
SMALL
GASTEIGER

@<TRIPOS>ATOM
      1  PA        18.9860   28.1310   24.8590 P.3   1447  NAP1447     0.2189
      2  O1A       18.8910   27.9030   23.3040 O.2   1447  NAP1447    -0.5170
      3  O2A       19.6900   29.3740   25.3150 O.3   1447  NAP1447    -0.4371
      4  O5B       17.5340   28.1700   25.3660 O.3   1447  NAP1447    -0.3112
      5  C5B       17.3470   28.2250   26.7660 C.3   1447  NAP1447     0.1813
      6  C4B       15.9920   28.8740   26.9970 C.3   1447  NAP1447     0.1820
      7  O4B       15.8040   28.8740   28.4190 O.3   1447  NAP1447    -0.3136
      8  C3B       15.9330   30.3430   26.5260 C.3   1447  NAP1447     0.2157
      9  O3B       15.0210   30.3650   25.4470 O.3   1447  NAP1447    -0.2175
     10  C2B       15.2590   31.0820   27.6720 C.3   1447  NAP1447     0.2314
     11  O2B       13.8370   31.0630   27.5600 O.3   1447  NAP1447    -0.2630
     12  C1B       15.6220   30.2890   28.8760 C.3   1447  NAP1447     0.3158
     13  N9A       16.9390   30.7700   29.3640 N.pl3 1447  NAP1447    -0.1439
     14  C8A       17.9780   31.2600   28.6680 C.3   1447  NAP1447     0.3377
     15  N7A       18.9970   31.5430   29.4900 N.2   1447  NAP1447    -0.2095
     16  C5A       18.5810   31.2230   30.7070 C.2   1447  NAP1447     0.2526
     17  C6A       19.1750   31.3180   31.9410 C.2   1447  NAP1447     0.4393
     18  N6A       20.4230   31.7730   32.0420 N.pl3 1447  NAP1447     0.2180
     19  N1A       18.4890   30.9120   32.9980 N.2   1447  NAP1447     0.0021
     20  C2A       17.2580   30.4210   32.8850 C.3   1447  NAP1447     0.5254
     21  N3A       16.6410   30.3370   31.7270 N.2   1447  NAP1447    -0.0055
     22  C4A       17.2940   30.7310   30.6300 C.2   1447  NAP1447     0.3518
     23  O3        19.6760   26.8720   25.5680 O.3   1447  NAP1447    -0.2703
     24  PN        19.2370   25.3500   25.2950 P.3   1447  NAP1447     0.2189
     25  O1N       20.2300   24.9190   24.1590 O.2   1447  NAP1447    -0.5170
     26  O2N       17.7590   25.1630   25.0680 O.3   1447  NAP1447    -0.4371
     27  O5D       19.7480   24.7370   26.6770 O.3   1447  NAP1447    -0.3112
     28  C5D       18.9660   25.0800   27.8170 C.3   1447  NAP1447     0.1813
     29  C4D       19.6140   24.3660   28.9690 C.3   1447  NAP1447     0.1799
     30  O4D       19.5960   22.9360   28.6280 O.3   1447  NAP1447    -0.3327
     31  C3D       21.0900   24.7230   29.1500 C.3   1447  NAP1447     0.2158
     32  O3D       21.2440   24.7640   30.5840 O.3   1447  NAP1447    -0.2175
     33  C2D       21.8350   23.5520   28.5460 C.3   1447  NAP1447     0.2309
     34  O2D       23.1300   23.3660   29.1640 O.3   1447  NAP1447    -0.2158
     35  C1D       20.9120   22.4410   29.0070 C.3   1447  NAP1447     0.2263
     36  N1N       21.0250   21.3850   28.0290 N.pl3 1447  NAP1447    -0.2787
     37  C2N       21.2360   20.1110   28.5110 C.3   1447  NAP1447     0.1244
     38  C3N       21.3300   19.1250   27.5700 C.2   1447  NAP1447     0.0544
     39  C7N       21.5710   17.7610   28.0890 C.2   1447  NAP1447     0.2818
     40  O7N       21.5710   17.5120   29.2990 O.2   1447  NAP1447    -0.2670
     41  N7N       21.8210   16.9020   27.1380 N.am  1447  NAP1447    -0.0839
     42  C4N       21.2190   19.3760   26.1990 C.2   1447  NAP1447     0.0033
     43  C5N       20.9930   20.6480   25.7030 C.2   1447  NAP1447     0.0157
     44  C6N       20.8880   21.6660   26.6370 C.2   1447  NAP1447     0.0633
     45  P2B       13.0660   32.1450   28.4680 P.3   1447  NAP1447     0.5328
     46  O1X       11.6480   32.0620   27.6700 O.2   1447  NAP1447    -0.2224
     47  O2X       12.8940   31.6100   29.9780 O.3   1447  NAP1447    -0.1145
     48  O3X       13.9030   33.3830   28.2540 O.3   1447  NAP1447    -0.1145
@<TRIPOS>BOND
     1     2     1    2
     2    25    24    2
     3     1     3    1
     4     1     4    1
     5     1    23    1
     6    26    24    1
     7    24    23    1
     8    24    27    1
     9     4     5    1
    10     9     8    1
    11    43    42    1
    12    43    44    2
    13    42    38    2
    14     8     6    1
    15     8    10    1
    16    44    36    1
    17    27    28    1
    18     5     6    1
    19     6     7    1
    20    41    39   am
    21    11    10    1
    22    11    45    1
    23    38    39    1
    24    38    37    1
    25    46    45    2
    26    10    12    1
    27    28    29    1
    28    36    37    1
    29    36    35    1
    30    39    40    2
    31    48    45    1
    32     7    12    1
    33    45    47    1
    34    33    35    1
    35    33    31    1
    36    33    34    1
    37    30    29    1
    38    30    35    1
    39    14    13    1
    40    14    15    1
    41    12    13    1
    42    29    31    1
    43    31    32    1
    44    13    22    1
    45    15    16    2
    46    22    16    1
    47    22    21    2
    48    16    17    1
    49    21    20    1
    50    17    18    1
    51    17    19    2
    52    20    19    1
