@<TRIPOS>MOLECULE
4a0z_MLC_B_1.pdb
 44 44 0 0 0
SMALL
GASTEIGER

@<TRIPOS>ATOM
      1  C1'       -7.9570  -12.0420   32.6210 C.3   201  MLC201      0.1776
      2  C2'       -6.8110  -12.7890   31.9520 C.3   201  MLC201      0.2113
      3  O2'       -6.0260  -11.9090   31.1180 O.3   201  MLC201     -0.2177
      4  C3'       -7.5140  -13.8720   31.1470 C.3   201  MLC201      0.1884
      5  O3'       -6.8150  -14.2130   29.9660 O.3   201  MLC201     -0.2674
      6  C4'       -8.8170  -13.2020   30.7970 C.3   201  MLC201      0.1754
      7  O4'       -9.1650  -12.5500   32.0200 O.3   201  MLC201     -0.3483
      8  C5'       -9.9030  -14.1440   30.3080 C.3   201  MLC201      0.1811
      9  O5'      -11.0940  -13.3700   30.2060 O.3   201  MLC201     -0.3112
     10  P1       -12.1490  -13.7160   29.0580 P.3   201  MLC201      0.2189
     11  O11      -13.2400  -12.6720   29.0530 O.2   201  MLC201     -0.5170
     12  O12      -12.4360  -15.2070   29.0900 O.3   201  MLC201     -0.4371
     13  O6       -11.2050  -13.4410   27.7990 O.3   201  MLC201     -0.2703
     14  P2       -11.3810  -13.9090   26.2740 P.3   201  MLC201      0.2188
     15  O21      -12.5150  -13.1830   25.5820 O.2   201  MLC201     -0.5170
     16  O22      -11.0280  -15.3740   26.1070 O.3   201  MLC201     -0.4371
     17  O7       -10.0630  -13.1140   25.7710 O.3   201  MLC201     -0.3138
     18  CPB      -10.0630  -11.6870   25.6300 C.3   201  MLC201      0.1519
     19  CPA       -8.5870  -11.2310   25.6930 C.3   201  MLC201      0.0645
     20  CP7       -7.7570  -12.0810   24.7240 C.3   201  MLC201      0.2312
     21  CP9       -8.5770   -9.7230   25.4530 C.3   201  MLC201      0.0056
     22  CP8       -8.0480  -11.4480   27.0990 C.3   201  MLC201      0.0056
     23  OP3       -8.3010  -11.9700   23.3940 O.3   201  MLC201     -0.2131
     24  CP6       -6.2900  -11.6750   24.6190 C.2   201  MLC201      0.2719
     25  OP2       -5.4780  -11.9780   25.4690 O.2   201  MLC201     -0.2706
     26  NP2       -5.9250  -10.9780   23.5420 N.am  201  MLC201     -0.2028
     27  CP5       -4.5290  -10.5440   23.3900 C.3   201  MLC201      0.1248
     28  CP4       -4.4040   -9.1410   23.9910 C.3   201  MLC201      0.1102
     29  CP3       -2.9860   -8.6260   23.7920 C.2   201  MLC201      0.2432
     30  OP1       -2.0400   -9.4120   23.8650 O.2   201  MLC201     -0.2733
     31  NP1       -2.8760   -7.3060   23.5630 N.am  201  MLC201     -0.2044
     32  CP2       -1.6260   -6.7270   23.0760 C.3   201  MLC201      0.1272
     33  CP1       -0.6210   -6.4940   24.2160 C.3   201  MLC201      0.0883
     34  S         -1.0920   -5.2540   25.3730 S.3   201  MLC201     -0.0748
     35  P3        -6.6910  -15.7450   29.4850 P.3   201  MLC201      0.5327
     36  O31       -5.2650  -15.8150   28.9640 O.3   201  MLC201     -0.1145
     37  O32       -6.9270  -16.5780   30.7250 O.3   201  MLC201     -0.1145
     38  O33       -7.7750  -15.8800   28.4360 O.2   201  MLC201     -0.2224
     39  CM1       -0.8990   -3.7870   24.5960 C.2   201  MLC201      0.2102
     40  CM2       -0.6780   -2.5770   25.4540 C.3   201  MLC201      0.1895
     41  CM3        0.7580   -2.0500   25.2980 C.2   201  MLC201      0.3732
     42  OM2       -0.8930   -3.6720   23.3570 O.2   201  MLC201     -0.2839
     43  OM3        1.6150   -2.7050   24.6620 O.co2 201  MLC201     -0.2451
     44  OM4        1.0330   -0.9400   25.7830 O.co2 201  MLC201     -0.2451
@<TRIPOS>BOND
     1    32    31    1
     2    32    33    1
     3    42    39    2
     4    27    26    1
     5    27    28    1
     6    23    20    1
     7    26    24   am
     8    31    29   am
     9    29    30    2
    10    29    28    1
    11    33    34    1
    12    39    34    1
    13    39    40    1
    14    24    20    1
    15    24    25    2
    16    43    41   ar
    17    20    19    1
    18    41    40    1
    19    41    44   ar
    20    21    19    1
    21    15    14    2
    22    18    19    1
    23    18    17    1
    24    19    22    1
    25    17    14    1
    26    16    14    1
    27    14    13    1
    28    13    10    1
    29    38    35    2
    30    36    35    1
    31    11    10    2
    32    10    12    1
    33    10     9    1
    34    35     5    1
    35    35    37    1
    36     5     4    1
    37     9     8    1
    38     8     6    1
    39     6     4    1
    40     6     7    1
    41     3     2    1
    42     4     2    1
    43     2     1    1
    44     7     1    1
