@<TRIPOS>MOLECULE
4a14_ADP_A_1.pdb
 27 29 0 0 0
SMALL
GASTEIGER

@<TRIPOS>ATOM
      1  PB       -14.1070    1.3220   -6.9290 P.3   1345  ADP1345     0.5373
      2  O1B      -14.0550    2.5360   -7.8310 O.2   1345  ADP1345    -0.2221
      3  O2B      -12.7290    0.7830   -6.6520 O.3   1345  ADP1345    -0.1143
      4  O3B      -15.0700    0.2220   -7.4150 O.3   1345  ADP1345    -0.1143
      5  PA       -15.7440    1.1530   -4.5450 P.3   1345  ADP1345     0.2231
      6  O1A      -17.1900    1.2020   -4.9620 O.2   1345  ADP1345    -0.5169
      7  O2A      -15.1060   -0.1600   -4.1540 O.3   1345  ADP1345    -0.4370
      8  O3A      -14.7280    1.7930   -5.5570 O.3   1345  ADP1345    -0.2261
      9  O5'      -15.7380    2.1710   -3.2770 O.3   1345  ADP1345    -0.3111
     10  C5'      -14.5410    2.2890   -2.5040 C.3   1345  ADP1345     0.1813
     11  C4'      -15.0310    2.4960   -1.0730 C.3   1345  ADP1345     0.1821
     12  O4'      -15.7100    3.7450   -0.9340 O.3   1345  ADP1345    -0.3135
     13  C3'      -16.0430    1.4400   -0.6790 C.3   1345  ADP1345     0.2184
     14  O3'      -15.7670    1.0670    0.6860 O.3   1345  ADP1345    -0.2174
     15  C2'      -17.3780    2.1440   -0.7660 C.3   1345  ADP1345     0.2570
     16  O2'      -18.3790    1.6310    0.1140 O.3   1345  ADP1345    -0.2130
     17  C1'      -17.0380    3.5940   -0.4740 C.3   1345  ADP1345     0.3186
     18  N9       -17.8560    4.5390   -1.2470 N.pl3 1345  ADP1345    -0.1439
     19  C8       -17.7590    4.7120   -2.5890 C.3   1345  ADP1345     0.3377
     20  N7       -18.6340    5.6520   -3.0020 N.2   1345  ADP1345    -0.2095
     21  C5       -19.2950    6.1210   -1.9180 C.2   1345  ADP1345     0.2526
     22  C6       -20.3390    7.1370   -1.6560 C.2   1345  ADP1345     0.4393
     23  N6       -20.8820    7.8840   -2.6440 N.pl3 1345  ADP1345     0.2180
     24  N1       -20.7590    7.2850   -0.3770 N.2   1345  ADP1345     0.0021
     25  C2       -20.2200    6.5560    0.6150 C.3   1345  ADP1345     0.5254
     26  N3       -19.2610    5.6270    0.4610 N.2   1345  ADP1345    -0.0055
     27  C4       -18.7760    5.3620   -0.7700 C.2   1345  ADP1345     0.3518
@<TRIPOS>BOND
     1     2     1    2
     2     4     1    1
     3     1     3    1
     4     1     8    1
     5     8     5    1
     6     6     5    2
     7     5     7    1
     8     5     9    1
     9     9    10    1
    10    20    19    1
    11    20    21    2
    12    23    22    1
    13    19    18    1
    14    10    11    1
    15    21    22    1
    16    21    27    1
    17    22    24    2
    18    18    27    1
    19    18    17    1
    20    11    12    1
    21    11    13    1
    22    12    17    1
    23    27    26    2
    24    15    13    1
    25    15    17    1
    26    15    16    1
    27    13    14    1
    28    24    25    1
    29    26    25    1
