@<TRIPOS>MOLECULE
4a16_H34_A_1.pdb
 30 34 0 0 0
SMALL
GASTEIGER

@<TRIPOS>ATOM
      1  CAN        9.9540  -25.1650   92.7710 C.3   1545  H341545     0.0225
      2  CBC        8.9140  -25.7680   93.6680 C.3   1545  H341545     0.0161
      3  CAP        7.9590  -26.6780   92.7630 C.3   1545  H341545     0.0058
      4  CAY        8.2410  -24.6940   94.2720 C.3   1545  H341545     0.0877
      5  CAV        8.8500  -24.0130   95.3490 C.2   1545  H341545     0.0751
      6  NAA       10.0410  -24.4210   95.8160 N.pl3 1545  H341545    -0.1322
      7  CBA        8.2060  -22.9470   95.9810 C.ar  1545  H341545     0.0426
      8  CAF        8.7760  -22.2840   97.0860 C.ar  1545  H341545     0.0044
      9  CAE        8.0960  -21.1870   97.6650 C.ar  1545  H341545     0.0116
     10  CAU        6.8370  -20.8130   97.1280 C.ar  1545  H341545     0.0602
     11 CL1         5.9460  -19.4960   97.7470 Cl    1545  H341545    -0.0822
     12  CAG        6.2570  -21.4880   96.0300 C.ar  1545  H341545     0.0434
     13  CAZ        6.9380  -22.5680   95.4520 C.ar  1545  H341545     0.1324
     14  NAS        6.3620  -23.2200   94.4230 N.2   1545  H341545    -0.4101
     15  CAX        6.9550  -24.2780   93.8220 C.2   1545  H341545     0.0920
     16  CAO        6.2810  -24.9060   92.7070 C.3   1545  H341545     0.0591
     17  CBB        7.2470  -25.7510   91.8260 C.3   1545  H341545     0.0281
     18  CAD        8.1560  -24.9480   91.0650 C.2   1545  H341545    -0.0345
     19  CAT        9.4440  -24.6320   91.5210 C.2   1545  H341545    -0.0485
     20  CAL       10.3090  -23.7750   90.7170 C.3   1545  H341545     0.0217
     21  CAJ       10.9170  -22.5510   91.5570 C.3   1545  H341545     0.0058
     22  CAK       11.7330  -21.5960   90.7100 C.3   1545  H341545     0.0196
     23  CAM       12.2980  -20.4650   91.6050 C.3   1545  H341545     0.0959
     24  NBD       13.2600  -19.6590   90.7980 N.3   1545  H341545    -0.1633
     25  CAH       14.5910  -19.7580   90.8050 C.3   1545  H341545     0.1407
     26  NAR       12.9430  -18.7640   89.8960 N.pl3 1545  H341545    -0.0631
     27  NAQ       14.0410  -18.2780   89.3220 N.2   1545  H341545    -0.1514
     28  CAW       15.0490  -18.9070   89.8940 C.2   1545  H341545     0.1079
     29  CAI       16.4920  -18.6410   89.5470 C.3   1545  H341545     0.2262
     30  OAB       16.5460  -17.2730   89.1730 O.3   1545  H341545    -0.2137
@<TRIPOS>BOND
     1    30    29    1
     2    27    28    2
     3    27    26    1
     4    29    28    1
     5    28    25    1
     6    26    24    1
     7    22    21    1
     8    22    23    1
     9    20    19    1
    10    20    21    1
    11    24    25    1
    12    24    23    1
    13    18    19    2
    14    18    17    1
    15    19     1    1
    16    17    16    1
    17    17     3    1
    18    16    15    1
    19     3     2    1
    20     1     2    1
    21     2     4    1
    22    15     4    1
    23    15    14    2
    24     4     5    1
    25    14    13    2
    26     5     6    1
    27     5     7    2
    28    13     7   ar
    29    13    12   ar
    30     7     8   ar
    31    12    10   ar
    32     8     9   ar
    33    10     9   ar
    34    10    11    1
