@<TRIPOS>MOLECULE
4a1o_JLN_A_1.pdb
 24 25 0 0 0
SMALL
GASTEIGER

@<TRIPOS>ATOM
      1  P         73.3480  124.8570   -5.1180 P.3   1528  JLN1528     0.5327
      2  O3P       73.3390  126.3300   -4.8640 O.3   1528  JLN1528    -0.1145
      3  O1P       73.5630  124.6930   -6.5130 O.2   1528  JLN1528    -0.2224
      4  O5'       71.9320  124.0850   -5.1180 O.3   1528  JLN1528    -0.2675
      5  O2P       74.0640  124.2770   -3.8910 O.3   1528  JLN1528    -0.1145
      6  C5'       71.8830  122.6370   -5.0500 C.3   1528  JLN1528     0.1859
      7  C4'       71.2430  122.1530   -3.7710 C.3   1528  JLN1528     0.1798
      8  O4'       69.9310  122.8150   -3.7430 O.3   1528  JLN1528    -0.3353
      9  C1'       68.8500  121.7870   -4.0840 C.3   1528  JLN1528     0.2125
     10  N1        67.5820  122.5340   -4.5360 N.3   1528  JLN1528    -0.2058
     11  C5        66.5670  122.9110   -3.6770 C.3   1528  JLN1528     0.2052
     12  N5        66.6620  122.6690   -2.3560 N.am  1528  JLN1528    -0.1763
     13  C7        66.0520  123.2970   -1.4390 C.2   1528  JLN1528     0.3217
     14  O7        65.4470  122.5820   -0.6090 O.2   1528  JLN1528    -0.2633
     15  C6        64.2470  124.2880   -4.2160 C.2   1528  JLN1528     0.4037
     16  O6B       63.5440  124.9090   -5.1840 O.co2 1528  JLN1528    -0.2391
     17  C4        65.6440  123.5830   -4.5540 C.2   1528  JLN1528     0.1701
     18  N3        66.1360  123.5430   -5.8020 N.2   1528  JLN1528    -0.2469
     19  C2        67.2210  122.9420   -5.8870 C.3   1528  JLN1528     0.2042
     20  C2'       69.4700  120.6330   -4.8260 C.3   1528  JLN1528     0.2272
     21  O2'       68.7520  119.7370   -4.2810 O.3   1528  JLN1528    -0.2161
     22  C3'       70.9400  120.6270   -4.1360 C.3   1528  JLN1528     0.2155
     23  O6A       63.8450  124.2190   -2.9690 O.co2 1528  JLN1528    -0.2391
     24  O3'       70.9420  120.1310   -2.8820 O.3   1528  JLN1528    -0.2176
@<TRIPOS>BOND
     1     3     1    2
     2    19    18    1
     3    19    10    1
     4    18    17    2
     5    16    15   ar
     6     4     1    1
     7     4     6    1
     8     1     2    1
     9     1     5    1
    10     6     7    1
    11    20    21    1
    12    20    22    1
    13    20     9    1
    14    17    15    1
    15    17    11    1
    16    10     9    1
    17    10    11    1
    18    15    23   ar
    19    22     7    1
    20    22    24    1
    21     9     8    1
    22     7     8    1
    23    11    12    1
    24    12    13   am
    25    13    14    2
