@<TRIPOS>MOLECULE
4a1o_AMZ_A_1.pdb
 22 23 0 0 0
SMALL
GASTEIGER

@<TRIPOS>ATOM
      1  O5        70.7440   66.6390   12.7670 O.2   1525  AMZ1525    -0.2653
      2  C6        71.0600   66.8210   11.4540 C.2   1525  AMZ1525     0.3002
      3  N2        70.7650   65.9570   10.3960 N.am  1525  AMZ1525    -0.0826
      4  C3A       71.7990   68.0450   10.9530 C.2   1525  AMZ1525     0.1445
      5  C7A       72.2840   69.0820   11.7690 C.3   1525  AMZ1525     0.1990
      6  N3        72.1240   69.1490   13.1880 N.3   1525  AMZ1525    -0.1080
      7  N1        72.1550   68.4080    9.6700 N.2   1525  AMZ1525    -0.2490
      8  C5        72.8070   69.6200    9.7230 C.3   1525  AMZ1525     0.2039
      9  N         72.9010   70.0240   11.0550 N.3   1525  AMZ1525    -0.2080
     10  C1        73.4800   71.2370   11.5440 C.3   1525  AMZ1525     0.2123
     11  C2        74.6740   71.7370   10.6370 C.3   1525  AMZ1525     0.2272
     12  C3        74.7820   73.2540   10.7900 C.3   1525  AMZ1525     0.2155
     13  O2        75.2250   73.2220   12.1850 O.3   1525  AMZ1525    -0.2176
     14  O1        75.8720   70.8910   10.9050 O.3   1525  AMZ1525    -0.2161
     15  O         72.4980   72.3000   11.1770 O.3   1525  AMZ1525    -0.3353
     16  C         73.1870   73.5690   10.9390 C.3   1525  AMZ1525     0.1798
     17  C4        72.4490   74.1590    9.7930 C.3   1525  AMZ1525     0.1859
     18  O3        72.7730   73.3840    8.5420 O.3   1525  AMZ1525    -0.2675
     19  P         72.4350   74.0610    7.1620 P.3   1525  AMZ1525     0.5327
     20  OP1       71.1520   74.9550    7.3130 O.3   1525  AMZ1525    -0.1145
     21  O4        73.5600   75.0110    7.0390 O.3   1525  AMZ1525    -0.1145
     22  OP2       72.3170   72.9290    6.2140 O.2   1525  AMZ1525    -0.2224
@<TRIPOS>BOND
     1    22    19    2
     2    21    19    1
     3    19    20    1
     4    19    18    1
     5    18    17    1
     6     7     8    1
     7     7     4    2
     8     8     9    1
     9    17    16    1
    10     3     2   am
    11    11    12    1
    12    11    14    1
    13    11    10    1
    14    12    16    1
    15    12    13    1
    16    16    15    1
    17     4     2    1
    18     4     5    1
    19     9    10    1
    20     9     5    1
    21    15    10    1
    22     2     1    2
    23     5     6    1
