@<TRIPOS>MOLECULE
4a1z_ADP_A_1.pdb
 27 29 0 0 0
SMALL
GASTEIGER

@<TRIPOS>ATOM
      1  PB        14.4310    4.8150   32.6820 P.3   2601  ADP2601     0.5373
      2  O1B       14.8680    4.6590   34.1250 O.3   2601  ADP2601    -0.1143
      3  O2B       13.4900    5.9620   32.4960 O.3   2601  ADP2601    -0.1143
      4  O3B       14.0180    3.5200   32.0090 O.2   2601  ADP2601    -0.2221
      5  PA        17.2510    5.0980   32.6310 P.3   2601  ADP2601     0.2231
      6  O1A       17.5020    3.6470   32.9450 O.2   2601  ADP2601    -0.5169
      7  O2A       17.2670    6.1440   33.7230 O.3   2601  ADP2601    -0.4370
      8  O3A       15.7960    5.2730   31.9400 O.3   2601  ADP2601    -0.2261
      9  O5'       18.3140    5.5170   31.5050 O.3   2601  ADP2601    -0.3111
     10  C5'       18.6650    4.6450   30.4390 C.3   2601  ADP2601     0.1813
     11  C4'       20.0700    4.9900   29.9650 C.3   2601  ADP2601     0.1821
     12  O4'       20.1570    6.3030   29.3910 O.3   2601  ADP2601    -0.3135
     13  C3'       21.0410    4.9760   31.1130 C.3   2601  ADP2601     0.2184
     14  O3'       22.2390    4.4720   30.5250 O.3   2601  ADP2601    -0.2174
     15  C2'       21.2140    6.4490   31.4430 C.3   2601  ADP2601     0.2570
     16  O2'       22.4720    6.7250   32.0840 O.3   2601  ADP2601    -0.2130
     17  C1'       21.0880    7.1180   30.0830 C.3   2601  ADP2601     0.3186
     18  N9        20.4670    8.4230   30.2430 N.pl3 2601  ADP2601    -0.1439
     19  C8        19.1590    8.6160   30.4640 C.3   2601  ADP2601     0.3377
     20  N7        18.8780    9.9440   30.5610 N.2   2601  ADP2601    -0.2095
     21  C5        20.0290   10.6120   30.4120 C.2   2601  ADP2601     0.2526
     22  C6        20.4180   12.0350   30.4290 C.2   2601  ADP2601     0.4393
     23  N6        19.4850   12.9970   30.6340 N.pl3 2601  ADP2601     0.2180
     24  N1        21.7180   12.3240   30.2320 N.2   2601  ADP2601     0.0021
     25  C2        22.6200   11.3350   30.0440 C.3   2601  ADP2601     0.5254
     26  N3        22.3530   10.0070   30.0280 N.2   2601  ADP2601    -0.0055
     27  C4        21.0820    9.5950   30.2050 C.2   2601  ADP2601     0.3518
@<TRIPOS>BOND
     1    12    11    1
     2    12    17    1
     3    11    10    1
     4    11    13    1
     5    26    25    1
     6    26    27    2
     7    25    24    1
     8    17    18    1
     9    17    15    1
    10    27    18    1
    11    27    21    1
    12    24    22    2
    13    18    19    1
    14    21    22    1
    15    21    20    2
    16    22    23    1
    17    10     9    1
    18    19    20    1
    19    14    13    1
    20    13    15    1
    21    15    16    1
    22     9     5    1
    23     8     5    1
    24     8     1    1
    25     4     1    2
    26     3     1    1
    27     5     6    2
    28     5     7    1
    29     1     2    1
