@<TRIPOS>MOLECULE
4a22_TD4_A_1.pdb
 30 29 0 0 0
SMALL
GASTEIGER

@<TRIPOS>ATOM
      1  O01      -11.3080  -63.9170  -32.1300 O.3   1344  TD41344    -0.2924
      2  N02      -11.9600  -62.7060  -31.8610 N.am  1344  TD41344    -0.1819
      3  C03      -13.2710  -62.4910  -32.4400 C.3   1344  TD41344     0.0418
      4  C04      -14.4290  -63.2990  -31.8600 C.3   1344  TD41344    -0.0327
      5  C05      -15.3360  -64.0260  -32.8470 C.3   1344  TD41344    -0.0274
      6  C06      -16.4950  -64.8280  -32.2680 C.3   1344  TD41344     0.0593
      7  O07      -17.3150  -65.4980  -33.1790 O.3   1344  TD41344    -0.2836
      8  P08      -18.8030  -64.9030  -33.5440 P.3   1344  TD41344     0.5319
      9  O09      -19.9250  -66.1170  -33.6040 O.3   1344  TD41344    -0.1145
     10  O10      -19.2330  -63.7570  -32.4360 O.3   1344  TD41344    -0.1145
     11  O11      -18.7510  -64.2400  -34.8460 O.2   1344  TD41344    -0.2224
     12  C12      -11.5270  -61.9290  -30.7130 C.2   1344  TD41344     0.2644
     13  O13      -10.5940  -62.2880  -30.0610 O.2   1344  TD41344    -0.2710
     14  C14      -12.2290  -60.6180  -30.3790 C.3   1344  TD41344     0.1373
     15  O15      -12.4400  -60.3380  -29.0290 O.3   1344  TD41344    -0.2741
     16  P16      -13.3300  -59.0090  -28.6070 P.3   1344  TD41344     0.5323
     17  O17      -13.2500  -58.8570  -26.9910 O.3   1344  TD41344    -0.1145
     18  O18      -14.8860  -59.1960  -29.1010 O.3   1344  TD41344    -0.1145
     19  O19      -12.7610  -57.7960  -29.1850 O.2   1344  TD41344    -0.2224
     20 HO01      -10.8510  -63.8450  -32.8880 H     1344  TD41344     0.2417
     21  H03      -13.5020  -61.5510  -32.3670 H     1344  TD41344     0.0489
     22 H03A      -13.2040  -62.7080  -33.3810 H     1344  TD41344     0.0489
     23  H04      -14.9870  -62.6890  -31.3210 H     1344  TD41344     0.0282
     24 H04A      -14.0510  -63.9640  -31.2650 H     1344  TD41344     0.0282
     25  H05      -14.7820  -64.6400  -33.3360 H     1344  TD41344     0.0288
     26 H05A      -15.6970  -63.3760  -33.4770 H     1344  TD41344     0.0288
     27  H06      -16.1080  -65.5090  -31.6830 H     1344  TD41344     0.0565
     28 H06A      -17.0440  -64.2400  -31.7210 H     1344  TD41344     0.0565
     29  H14      -11.7230  -59.8900  -30.7700 H     1344  TD41344     0.0663
     30 H14A      -13.1040  -60.6420  -30.8080 H     1344  TD41344     0.0663
@<TRIPOS>BOND
     1    11     8    2
     2     9     8    1
     3     8     7    1
     4     8    10    1
     5    26     5    1
     6    22     3    1
     7    25     5    1
     8     7     6    1
     9    20     1    1
    10     5     6    1
    11     5     4    1
    12     3    21    1
    13     3     2    1
    14     3     4    1
    15     6    28    1
    16     6    27    1
    17     1     2    1
    18     2    12   am
    19     4    23    1
    20     4    24    1
    21    30    14    1
    22    29    14    1
    23    12    14    1
    24    12    13    2
    25    14    15    1
    26    19    16    2
    27    18    16    1
    28    15    16    1
    29    16    17    1
