@<TRIPOS>MOLECULE
4a23_C56_A_1.pdb
 18 18 0 0 0
SMALL
GASTEIGER

@<TRIPOS>ATOM
      1  O16       29.9990   21.3310   10.5810 O.2   1542  C561542    -0.2683
      2  C15       30.7600   22.2710   10.7700 C.2   1542  C561542     0.2678
      3  C2        31.8940   22.4740    9.7840 C.ar  1542  C561542     0.0907
      4  C3        32.9430   23.3900    9.9280 C.ar  1542  C561542     0.1444
      5  O13       33.0660   24.2280   11.0080 O.3   1542  C561542    -0.4712
      6  C14       34.3360   24.8490   11.2090 C.3   1542  C561542     0.2525
      7  C4        33.9350   23.4990    8.9600 C.ar  1542  C561542     0.0532
      8  C5        33.9180   22.6940    7.8400 C.ar  1542  C561542     0.0737
      9  N10       34.9470   22.8820    6.8950 N.pl3 1542  C561542    -0.3027
     10  C12       36.1440   23.6680    7.1720 C.3   1542  C561542     0.1123
     11  C11       34.9270   22.3110    5.5600 C.3   1542  C561542     0.1123
     12  C6        32.8670   21.7900    7.6960 C.ar  1542  C561542     0.1564
     13  N7        32.7390   20.9330    6.6100 N.pl3 1542  C561542     0.0589
     14  O9        33.4540   19.7460    6.6660 O.2   1542  C561542    -0.1261
     15  O8        31.9840   21.2190    5.6980 O.2   1542  C561542    -0.1261
     16  C1        31.8760   21.6810    8.6540 C.ar  1542  C561542     0.0330
     17  N17       30.5640   23.0840   11.8150 N.am  1542  C561542    -0.1997
     18  C18       29.4630   22.8650   12.7470 C.3   1542  C561542     0.1388
@<TRIPOS>BOND
     1    11     9    1
     2    15    13    2
     3    13    14    2
     4    13    12    1
     5     9    10    1
     6     9     8    1
     7    12     8   ar
     8    12    16   ar
     9     8     7   ar
    10    16     3   ar
    11     7     4   ar
    12     3     4   ar
    13     3     2    1
    14     4     5    1
    15     1     2    2
    16     2    17   am
    17     5     6    1
    18    17    18    1
