@<TRIPOS>MOLECULE
4a28_ADP_A_1.pdb
 27 29 0 0 0
SMALL
GASTEIGER

@<TRIPOS>ATOM
      1  PB       -15.0070   14.6390  -32.5490 P.3   1365  ADP1365     0.5373
      2  O1B      -15.0570   14.8340  -34.0190 O.2   1365  ADP1365    -0.2221
      3  O2B      -14.1230   15.6850  -31.8970 O.3   1365  ADP1365    -0.1143
      4  O3B      -14.7740   13.2060  -32.1450 O.3   1365  ADP1365    -0.1143
      5  PA       -17.9240   14.9010  -32.5480 P.3   1365  ADP1365     0.2231
      6  O1A      -18.3450   13.4880  -32.8360 O.3   1365  ADP1365    -0.4370
      7  O2A      -18.0060   15.9920  -33.5590 O.2   1365  ADP1365    -0.5169
      8  O3A      -16.4450   14.9840  -31.9250 O.3   1365  ADP1365    -0.2261
      9  O5'      -18.7670   15.3950  -31.2890 O.3   1365  ADP1365    -0.3111
     10  C5'      -19.1690   14.4840  -30.2560 C.3   1365  ADP1365     0.1813
     11  C4'      -20.5600   14.8790  -29.7640 C.3   1365  ADP1365     0.1821
     12  O4'      -20.5780   16.2450  -29.2980 O.3   1365  ADP1365    -0.3135
     13  C3'      -21.5900   14.8000  -30.8820 C.3   1365  ADP1365     0.2184
     14  O3'      -22.7460   14.1640  -30.3290 O.3   1365  ADP1365    -0.2174
     15  C2'      -21.8950   16.2460  -31.2620 C.3   1365  ADP1365     0.2570
     16  O2'      -23.2730   16.4470  -31.5680 O.3   1365  ADP1365    -0.2130
     17  C1'      -21.5860   16.9900  -29.9770 C.3   1365  ADP1365     0.3186
     18  N9       -21.0390   18.3420  -30.1530 N.pl3 1365  ADP1365    -0.1439
     19  C8       -19.7470   18.6380  -30.3410 C.3   1365  ADP1365     0.3377
     20  N7       -19.5970   19.9760  -30.4130 N.2   1365  ADP1365    -0.2095
     21  C5       -20.8150   20.5480  -30.2610 C.2   1365  ADP1365     0.2526
     22  C6       -21.3750   21.9280  -30.2580 C.2   1365  ADP1365     0.4393
     23  N6       -20.5880   23.0260  -30.4060 N.pl3 1365  ADP1365     0.2180
     24  N1       -22.7040   22.0510  -30.0890 N.2   1365  ADP1365     0.0021
     25  C2       -23.5100   20.9840  -29.9370 C.3   1365  ADP1365     0.5254
     26  N3       -23.0810   19.7250  -29.9480 N.2   1365  ADP1365    -0.0055
     27  C4       -21.7650   19.4550  -30.0950 C.2   1365  ADP1365     0.3518
@<TRIPOS>BOND
     1     2     1    2
     2     7     5    2
     3     6     5    1
     4     1     4    1
     5     1     8    1
     6     1     3    1
     7     5     8    1
     8     5     9    1
     9    16    15    1
    10     9    10    1
    11    15    13    1
    12    15    17    1
    13    13    14    1
    14    13    11    1
    15    20    19    1
    16    20    21    2
    17    23    22    1
    18    19    18    1
    19    21    22    1
    20    21    27    1
    21    22    24    2
    22    10    11    1
    23    18    27    1
    24    18    17    1
    25    27    26    2
    26    24    25    1
    27    17    12    1
    28    26    25    1
    29    11    12    1
