@<TRIPOS>MOLECULE
4a29_3NK_A_1.pdb
 31 32 0 0 0
SMALL
GASTEIGER

@<TRIPOS>ATOM
      1  C14      -18.8620   12.8620   -9.6790 C.3   299  3NK299     -0.0581
      2  C13      -18.4880   13.7680   -8.5230 C.3   299  3NK299     -0.0125
      3  C12      -19.3990   13.7220   -7.3500 C.3   299  3NK299      0.0169
      4  C11      -18.9650   14.5420   -6.1400 C.2   299  3NK299      0.1637
      5  O11      -17.8920   15.1600   -6.0550 O.2   299  3NK299     -0.2920
      6  C2       -19.9070   14.4830   -4.9860 C.ar  299  3NK299      0.0180
      7  C1       -19.4150   14.4740   -3.7170 C.ar  299  3NK299     -0.0435
      8  C9       -20.2840   14.3960   -2.6170 C.ar  299  3NK299     -0.0170
      9  C8       -19.7840   14.3750   -1.3120 C.ar  299  3NK299     -0.0506
     10  C7       -20.6020   14.3060   -0.2370 C.ar  299  3NK299     -0.0194
     11  C6       -21.9930   14.2380   -0.4150 C.ar  299  3NK299      0.1207
     12  O6       -22.7650   14.1710    0.7110 O.3   299  3NK299     -0.4951
     13  C15      -24.1520   14.0960    0.5150 C.3   299  3NK299      0.0788
     14  C5       -22.5380   14.2630   -1.6790 C.ar  299  3NK299     -0.0122
     15  C10      -21.6680   14.3330   -2.8190 C.ar  299  3NK299     -0.0144
     16  C4       -22.1600   14.3400   -4.1520 C.ar  299  3NK299     -0.0533
     17  C3       -21.3070   14.4100   -5.2210 C.ar  299  3NK299     -0.0507
     18 H141      -18.0490   12.1800   -9.9490 H     299  3NK299      0.0236
     19 H142      -19.1130   13.4520  -10.5690 H     299  3NK299      0.0236
     20 H143      -19.7410   12.2500   -9.4370 H     299  3NK299      0.0236
     21 H121      -19.5460   12.6650   -7.0430 H     299  3NK299      0.0351
     22 H122      -20.4110   14.0350   -7.6760 H     299  3NK299      0.0351
     23  H8       -18.7030   14.4270   -1.1710 H     299  3NK299      0.0625
     24  H1       -18.3350   14.5120   -3.5500 H     299  3NK299      0.0631
     25  H5       -23.6180   14.2050   -1.8260 H     299  3NK299      0.0660
     26  H7       -20.1910   14.2990    0.7720 H     299  3NK299      0.0654
     27 H151      -24.4150   15.0660    0.0620 H     299  3NK299      0.0660
     28 H152      -24.4910   13.3040   -0.1690 H     299  3NK299      0.0660
     29 H153      -24.7210   14.0090    1.4540 H     299  3NK299      0.0660
     30  H4       -23.2370   14.2940   -4.3180 H     299  3NK299      0.0624
     31  H3       -21.6800   14.4250   -6.2490 H     299  3NK299      0.0625
@<TRIPOS>BOND
     1    19     1    1
     2    18     1    1
     3     1    20    1
     4     1     2    1
     5     2     3    1
     6    22     3    1
     7     3    21    1
     8     3     4    1
     9    31    17    1
    10     4     5    2
    11     4     6    1
    12    17     6   ar
    13    17    16   ar
    14     6     7   ar
    15    30    16    1
    16    16    15   ar
    17     7    24    1
    18     7     8   ar
    19    15     8   ar
    20    15    14   ar
    21     8     9   ar
    22    25    14    1
    23    14    11   ar
    24     9    23    1
    25     9    10   ar
    26    11    10   ar
    27    11    12    1
    28    10    26    1
    29    28    13    1
    30    27    13    1
    31    13    12    1
    32    13    29    1
