@<TRIPOS>MOLECULE
4a2a_ATP_A_1.pdb
 31 33 0 0 0
SMALL
GASTEIGER

@<TRIPOS>ATOM
      1  PG        -0.3800   -0.1980   71.0300 P.3   1391  ATP1391     0.5373
      2  O1G       -0.3180    0.3730   72.4360 O.3   1391  ATP1391    -0.1143
      3  O2G       -1.3560   -1.3380   70.9030 O.3   1391  ATP1391    -0.1143
      4  O3G        0.9680   -0.4370   70.3790 O.2   1391  ATP1391    -0.2221
      5  PB        -0.6190    2.4960   70.0510 P.3   1391  ATP1391     0.2277
      6  O1B        0.2320    2.7750   68.8640 O.2   1391  ATP1391    -0.5168
      7  O2B       -0.1980    2.9630   71.4360 O.3   1391  ATP1391    -0.4368
      8  O3B       -1.0560    0.9430   70.1420 O.3   1391  ATP1391    -0.2258
      9  PA        -2.8760    3.9510   70.7790 P.3   1391  ATP1391     0.2189
     10  O1A       -3.2960    3.0870   71.9480 O.3   1391  ATP1391    -0.4371
     11  O2A       -2.0410    5.1880   71.0340 O.2   1391  ATP1391    -0.5170
     12  O3A       -2.0870    3.0480   69.7220 O.3   1391  ATP1391    -0.2700
     13  O5'       -4.1720    4.2840   69.8950 O.3   1391  ATP1391    -0.3112
     14  C5'       -4.0520    4.3110   68.4750 C.3   1391  ATP1391     0.1813
     15  C4'       -5.4010    3.9470   67.8720 C.3   1391  ATP1391     0.1821
     16  O4'       -6.4560    4.5040   68.6620 O.3   1391  ATP1391    -0.3135
     17  C3'       -5.5480    4.4710   66.4570 C.3   1391  ATP1391     0.2184
     18  O3'       -5.4700    3.3790   65.5440 O.3   1391  ATP1391    -0.2174
     19  C2'       -6.9240    5.1020   66.4000 C.3   1391  ATP1391     0.2570
     20  O2'       -7.8200    4.2520   65.6800 O.3   1391  ATP1391    -0.2130
     21  C1'       -7.4100    5.1700   67.8370 C.3   1391  ATP1391     0.3186
     22  N9        -7.4930    6.5840   68.2780 N.pl3 1391  ATP1391    -0.1439
     23  C8        -6.4430    7.3880   68.5330 C.3   1391  ATP1391     0.3377
     24  N7        -6.8590    8.6200   68.9240 N.2   1391  ATP1391    -0.2095
     25  C5        -8.2100    8.6060   68.9180 C.2   1391  ATP1391     0.2526
     26  C6        -9.2830    9.5750   69.2280 C.2   1391  ATP1391     0.4393
     27  N6        -8.9760   10.8360   69.6250 N.pl3 1391  ATP1391     0.2180
     28  N1       -10.5650    9.1610   69.0990 N.2   1391  ATP1391     0.0021
     29  C2       -10.8700    7.9090   68.7010 C.3   1391  ATP1391     0.5254
     30  N3        -9.9460    6.9740   68.4030 N.2   1391  ATP1391    -0.0055
     31  C4        -8.6220    7.2620   68.4930 C.2   1391  ATP1391     0.3518
@<TRIPOS>BOND
     1    18    17    1
     2    20    19    1
     3    19    17    1
     4    19    21    1
     5    17    15    1
     6    21    22    1
     7    21    16    1
     8    15    14    1
     9    15    16    1
    10    22    31    1
    11    22    23    1
    12    30    31    2
    13    30    29    1
    14    14    13    1
    15    31    25    1
    16    23    24    1
    17    29    28    1
    18     6     5    2
    19    25    24    2
    20    25    26    1
    21    28    26    2
    22    26    27    1
    23    12     5    1
    24    12     9    1
    25    13     9    1
    26     5     8    1
    27     5     7    1
    28     8     1    1
    29     4     1    2
    30     9    11    2
    31     9    10    1
    32     3     1    1
    33     1     2    1
