@<TRIPOS>MOLECULE
4a2b_AGS_A_1.pdb
 31 33 0 0 0
SMALL
GASTEIGER

@<TRIPOS>ATOM
      1  PG        -9.4570  -14.1810  -24.3490 P.3   1393  AGS1393     0.4340
      2  S1G       -9.1390  -16.1450  -25.1860 S.3   1393  AGS1393     0.0416
      3  O2G       -8.6970  -14.6070  -23.0800 O.3   1393  AGS1393    -0.1305
      4  O3G      -10.8860  -13.7380  -24.1960 O.2   1393  AGS1393    -0.2423
      5  PB        -8.6710  -11.2860  -25.1150 P.3   1393  AGS1393     0.2262
      6  O1B       -9.9130  -10.5640  -24.7270 O.2   1393  AGS1393    -0.5168
      7  O2B       -7.4950  -10.7810  -24.4180 O.3   1393  AGS1393    -0.4369
      8  O3B       -8.7480  -12.8970  -25.2200 O.3   1393  AGS1393    -0.2405
      9  PA        -9.1650  -10.0200  -27.6510 P.3   1393  AGS1393     0.2189
     10  O1A      -10.4760  -10.8500  -27.9080 O.2   1393  AGS1393    -0.5170
     11  O2A       -9.3340   -8.5970  -27.1610 O.3   1393  AGS1393    -0.4371
     12  O3A       -8.2910  -10.8690  -26.6360 O.3   1393  AGS1393    -0.2701
     13  O5'       -8.2720  -10.4300  -28.9870 O.3   1393  AGS1393    -0.3112
     14  C5'       -6.9400  -10.0150  -29.0910 C.3   1393  AGS1393     0.1813
     15  C4'       -6.4700  -10.3340  -30.4960 C.3   1393  AGS1393     0.1821
     16  O4'       -7.4120   -9.7150  -31.3990 O.3   1393  AGS1393    -0.3135
     17  C3'       -5.2650   -9.4170  -30.6850 C.3   1393  AGS1393     0.2184
     18  O3'       -4.0920  -10.1810  -30.4670 O.3   1393  AGS1393    -0.2174
     19  C2'       -5.2310   -9.0480  -32.1810 C.3   1393  AGS1393     0.2570
     20  O2'       -4.6900  -10.1600  -32.9460 O.3   1393  AGS1393    -0.2130
     21  C1'       -6.7020   -8.9960  -32.5050 C.3   1393  AGS1393     0.3186
     22  N9        -7.1050   -7.5440  -32.5830 N.pl3 1393  AGS1393    -0.1439
     23  C8        -7.3470   -6.5920  -31.6190 C.3   1393  AGS1393     0.3377
     24  N7        -7.7620   -5.4400  -32.2750 N.2   1393  AGS1393    -0.2095
     25  C5        -7.7880   -5.7290  -33.6230 C.2   1393  AGS1393     0.2526
     26  C6        -8.0530   -5.0050  -34.7680 C.2   1393  AGS1393     0.4393
     27  N6        -8.4550   -3.7350  -34.7450 N.pl3 1393  AGS1393     0.2180
     28  N1        -7.9690   -5.5750  -35.9270 N.2   1393  AGS1393     0.0021
     29  C2        -7.5880   -6.8350  -35.9620 C.3   1393  AGS1393     0.5254
     30  N3        -7.2690   -7.6230  -34.9130 N.2   1393  AGS1393    -0.0055
     31  C4        -7.3580   -7.0200  -33.7610 C.2   1393  AGS1393     0.3518
@<TRIPOS>BOND
     1    29    28    1
     2    29    30    1
     3    28    26    2
     4    30    31    2
     5    26    27    1
     6    26    25    1
     7    31    25    1
     8    31    22    1
     9    25    24    2
    10    20    19    1
    11    22    21    1
    12    22    23    1
    13    21    19    1
    14    21    16    1
    15    24    23    1
    16    19    17    1
    17    16    15    1
    18    17    15    1
    19    17    18    1
    20    15    14    1
    21    14    13    1
    22    13     9    1
    23    10     9    2
    24     9    11    1
    25     9    12    1
    26    12     5    1
    27     8     5    1
    28     8     1    1
    29     2     1    1
    30     5     6    2
    31     5     7    1
    32     1     4    2
    33     1     3    1
