@<TRIPOS>MOLECULE
4a2j_AS0_A_1.pdb
 33 37 0 0 0
SMALL
GASTEIGER

@<TRIPOS>ATOM
      1  C1        11.4770    7.7430   12.6160 C.3   1000  AS01000     0.1742
      2  C3        10.1750    5.9950   11.6330 C.3   1000  AS01000     0.1692
      3  C4        10.3310    4.5530   11.1230 C.3   1000  AS01000     0.1199
      4  C5        11.6660    3.9490   11.6380 C.3   1000  AS01000     0.0297
      5  C6        12.6360    3.8950   10.4360 C.3   1000  AS01000     0.0029
      6  O2        11.4270    6.6940   11.6380 O.3   1000  AS01000    -0.3486
      7  C7        11.9420    4.7350    9.3570 C.3   1000  AS01000     0.0061
      8  C8        12.3880    4.4200    7.9320 C.3   1000  AS01000     0.0187
      9  C9        13.8410    4.8240    7.8160 C.3   1000  AS01000     0.0087
     10  C10       14.3320    4.6720    6.3800 C.3   1000  AS01000     0.0264
     11  C11       13.5000    5.5910    5.5230 C.2   1000  AS01000    -0.0239
     12  C12       14.0870    6.2590    4.5030 C.2   1000  AS01000     0.0329
     13  C13       13.3700    7.2050    3.7550 C.2   1000  AS01000     0.1731
     14  O14       13.9370    7.8740    2.9080 O.2   1000  AS01000    -0.2913
     15  C15       11.9100    7.4810    3.9900 C.3   1000  AS01000     0.0738
     16  C16       11.1830    6.3870    4.7660 C.3   1000  AS01000     0.0335
     17  C17       12.0590    5.7200    5.8240 C.2   1000  AS01000    -0.0332
     18  C18       11.5310    5.1830    6.9500 C.2   1000  AS01000    -0.0450
     19  C19       10.0350    5.3200    7.2090 C.3   1000  AS01000     0.0403
     20  C20        9.6210    5.3150    8.6930 C.3   1000  AS01000     0.0107
     21  C21       10.4420    4.3930    9.5920 C.3   1000  AS01000     0.0261
     22  C22       10.0910    2.9460    9.2420 C.3   1000  AS01000     0.0024
     23  C23        9.2730    4.3400    6.3200 C.ar  1000  AS01000    -0.0188
     24  C24        9.8940    3.3650    5.5360 C.ar  1000  AS01000    -0.0039
     25  C25        9.1640    2.5270    4.7010 C.ar  1000  AS01000     0.0013
     26  C26        7.7730    2.6530    4.6490 C.ar  1000  AS01000     0.0226
     27  C27        7.0010    1.7940    3.7300 C.2   1000  AS01000     0.1449
     28  N28        5.7450    2.0500    3.5290 N.2   1000  AS01000    -0.0278
     29  O29        5.0410    1.2400    2.6110 O.2   1000  AS01000    -0.1431
     30  C30        7.1360    3.6490    5.4220 C.ar  1000  AS01000     0.0013
     31  C31        7.8970    4.4790    6.2420 C.ar  1000  AS01000    -0.0039
     32  O32        9.3060    3.7530   11.7210 O.3   1000  AS01000    -0.3534
     33  C33        7.9400    4.1880   11.6140 C.3   1000  AS01000     0.1740
@<TRIPOS>BOND
     1    29    28    1
     2    14    13    2
     3    28    27    2
     4    27    26    1
     5    13    15    1
     6    13    12    1
     7    15    16    1
     8    12    11    2
     9    26    25   ar
    10    26    30   ar
    11    25    24   ar
    12    16    17    1
    13    30    31   ar
    14    11    17    1
    15    11    10    1
    16    24    23   ar
    17    17    18    2
    18    31    23   ar
    19    23    19    1
    20    10     9    1
    21    18    19    1
    22    18     8    1
    23    19    20    1
    24     9     8    1
    25     8     7    1
    26    20    21    1
    27    22    21    1
    28     7    21    1
    29     7     5    1
    30    21     3    1
    31     5     4    1
    32     3     2    1
    33     3     4    1
    34     3    32    1
    35    33    32    1
    36     2     6    1
    37     6     1    1
