@<TRIPOS>MOLECULE
4a2m_NGS_A_1.pdb
 18 18 0 0 0
SMALL
GASTEIGER

@<TRIPOS>ATOM
      1  C1        44.9640   -7.2200   19.4330 C.3   1785  NGS1785     0.2916
      2  C2        44.4110   -5.8060   19.3640 C.3   1785  NGS1785     0.1845
      3  C3        43.1680   -5.6880   20.2380 C.3   1785  NGS1785     0.1794
      4  C4        42.1590   -6.8310   20.0480 C.3   1785  NGS1785     0.0672
      5  C5        42.7970   -8.1800   19.7000 C.3   1785  NGS1785     0.1525
      6  C6        41.7600   -9.0650   19.0130 C.3   1785  NGS1785     0.2020
      7  O1        46.1660   -7.3260   18.6620 O.3   1785  NGS1785    -0.1879
      8  O3        42.5190   -4.4540   19.9160 O.3   1785  NGS1785    -0.2210
      9  O5        43.9620   -8.0690   18.8750 O.3   1785  NGS1785    -0.3269
     10  O6        41.0370   -8.3350   18.0210 O.3   1785  NGS1785    -0.2385
     11  N         45.4060   -4.9370   19.9770 N.am  1785  NGS1785    -0.1992
     12  C         45.9920   -3.9360   19.3150 C.2   1785  NGS1785     0.2420
     13  O         46.8200   -3.2230   19.8500 O.2   1785  NGS1785    -0.2733
     14  CH3       45.6000   -3.7090   17.8820 C.3   1785  NGS1785     0.0964
     15  S         39.5000   -8.4110   17.9300 S.3   1785  NGS1785    -0.0001
     16  O7        38.9070   -7.1640   18.4690 O.2   1785  NGS1785    -0.3452
     17  O8        38.9750   -9.5650   18.7010 O.3   1785  NGS1785    -0.2682
     18  O9        39.1260   -8.5650   16.5040 O.2   1785  NGS1785    -0.3452
@<TRIPOS>BOND
     1    18    15    2
     2    14    12    1
     3    15    10    1
     4    15    16    2
     5    15    17    1
     6    10     6    1
     7     7     1    1
     8     9     1    1
     9     9     5    1
    10     6     5    1
    11    12    13    2
    12    12    11   am
    13     2     1    1
    14     2    11    1
    15     2     3    1
    16     5     4    1
    17     8     3    1
    18     4     3    1
