@<TRIPOS>MOLECULE
4a2m_GCD_A_1.pdb
 12 12 0 0 0
SMALL
GASTEIGER

@<TRIPOS>ATOM
      1  C1        40.5960   -6.1460   21.8290 C.3   1784  GCD1784     0.3515
      2  C2        39.7210   -6.8430   22.8610 C.3   1784  GCD1784     0.2583
      3  C3        38.6490   -5.8760   23.3520 C.3   1784  GCD1784     0.2139
      4  C4        39.2770   -4.5390   23.6910 C.2   1784  GCD1784     0.0528
      5  C5        40.5240   -4.2110   23.2920 C.2   1784  GCD1784     0.2190
      6  C6        41.0850   -2.9060   23.6390 C.2   1784  GCD1784     0.4209
      7  O1        41.4680   -7.1300   21.2590 O.3   1784  GCD1784    -0.1714
      8  O2        39.1190   -8.0090   22.2910 O.3   1784  GCD1784    -0.2131
      9  O3        38.0030   -6.4230   24.5050 O.3   1784  GCD1784    -0.2152
     10  O5        41.3430   -5.1360   22.5120 O.2   1784  GCD1784    -0.4423
     11  O6A       41.8590   -2.3640   22.8210 O.co2 1784  GCD1784    -0.2371
     12  O6B       40.7790   -2.3600   24.7250 O.co2 1784  GCD1784    -0.2371
@<TRIPOS>BOND
     1     7     1    1
     2     1    10    1
     3     1     2    1
     4     8     2    1
     5    10     5    1
     6    11     6   ar
     7     2     3    1
     8     5     6    1
     9     5     4    2
    10     3     4    1
    11     3     9    1
    12     6    12   ar
