@<TRIPOS>MOLECULE
4a2n_SAH_B_1.pdb
 26 28 0 0 0
SMALL
GASTEIGER

@<TRIPOS>ATOM
      1  N         10.8440   57.2570  105.0540 N.3   1193  SAH1193    -0.1208
      2  CA        12.1320   56.7000  105.4130 C.3   1193  SAH1193     0.1952
      3  CB        11.9300   55.2920  105.9390 C.3   1193  SAH1193     0.0422
      4  CG        11.0020   54.4760  105.0580 C.3   1193  SAH1193     0.0597
      5  SD        10.7810   52.7680  105.6030 S.3   1193  SAH1193    -0.1375
      6  C         13.0200   56.7020  104.1810 C.2   1193  SAH1193     0.3819
      7  O         12.5220   56.6660  103.0460 O.co2 1193  SAH1193    -0.2441
      8  OXT       14.2490   56.7580  104.2930 O.co2 1193  SAH1193    -0.2441
      9  C5'        9.2230   53.2260  106.3970 C.3   1193  SAH1193     0.0899
     10  C4'        9.2480   52.9640  107.8920 C.3   1193  SAH1193     0.1630
     11  O4'       10.2720   53.7320  108.4640 O.3   1193  SAH1193    -0.3153
     12  C3'        7.9700   53.3740  108.5840 C.3   1193  SAH1193     0.2168
     13  O3'        7.4520   52.2220  109.1890 O.3   1193  SAH1193    -0.2175
     14  C2'        8.3790   54.3390  109.6700 C.3   1193  SAH1193     0.2569
     15  O2'        7.9200   53.8830  110.9120 O.3   1193  SAH1193    -0.2130
     16  C1'        9.8780   54.2540  109.7020 C.3   1193  SAH1193     0.3185
     17  N9        10.4720   55.5730  109.7230 N.pl3 1193  SAH1193    -0.1439
     18  C8        10.1990   56.5720  108.8290 C.3   1193  SAH1193     0.3377
     19  N7        10.9530   57.6540  109.1320 N.2   1193  SAH1193    -0.2095
     20  C5        11.7060   57.3240  110.2070 C.2   1193  SAH1193     0.2526
     21  C6        12.6390   58.0600  110.9070 C.2   1193  SAH1193     0.4393
     22  N6        12.8800   59.3160  110.5120 N.pl3 1193  SAH1193     0.2180
     23  N1        13.2750   57.4570  111.9810 N.2   1193  SAH1193     0.0021
     24  C2        12.9720   56.1530  112.3460 C.3   1193  SAH1193     0.5254
     25  N3        12.0350   55.4240  111.6440 N.2   1193  SAH1193    -0.0055
     26  C4        11.4220   56.0110  110.5900 C.2   1193  SAH1193     0.3518
@<TRIPOS>BOND
     1     7     6   ar
     2     6     8   ar
     3     6     2    1
     4     1     2    1
     5     4     5    1
     6     4     3    1
     7     2     3    1
     8     5     9    1
     9     9    10    1
    10    10    11    1
    11    10    12    1
    12    11    16    1
    13    12    13    1
    14    12    14    1
    15    18    19    1
    16    18    17    1
    17    19    20    2
    18    14    16    1
    19    14    15    1
    20    16    17    1
    21    17    26    1
    22    20    26    1
    23    20    21    1
    24    22    21    1
    25    26    25    2
    26    21    23    2
    27    25    24    1
    28    23    24    1
