@<TRIPOS>MOLECULE
4a2r_3NK_A_1.pdb
 31 32 0 0 0
SMALL
GASTEIGER

@<TRIPOS>ATOM
      1  C14      -12.8780   26.0470  -13.8250 C.3   1083  3NK1083    -0.0581
      2  C13      -11.6840   26.3810  -14.6600 C.3   1083  3NK1083    -0.0125
      3  C12      -10.4120   26.5910  -13.9170 C.3   1083  3NK1083     0.0169
      4  C11       -9.5610   27.6940  -14.4890 C.2   1083  3NK1083     0.1637
      5  O11       -9.6000   28.0060  -15.6680 O.2   1083  3NK1083    -0.2920
      6  C2        -8.6760   28.3930  -13.5300 C.ar  1083  3NK1083     0.0180
      7  C1        -8.2650   27.7840  -12.3780 C.ar  1083  3NK1083    -0.0435
      8  C9        -7.4260   28.4770  -11.4680 C.ar  1083  3NK1083    -0.0170
      9  C8        -6.9830   27.8660  -10.2690 C.ar  1083  3NK1083    -0.0506
     10  C7        -6.1790   28.5320   -9.3980 C.ar  1083  3NK1083    -0.0194
     11  C6        -5.7740   29.8530   -9.6900 C.ar  1083  3NK1083     0.1207
     12  O6        -4.9580   30.4900   -8.7890 O.3   1083  3NK1083    -0.4951
     13  C15       -4.7440   31.8790   -8.9250 C.3   1083  3NK1083     0.0788
     14  C5        -6.1830   30.4840  -10.8450 C.ar  1083  3NK1083    -0.0122
     15  C10       -7.0220   29.7880  -11.7550 C.ar  1083  3NK1083    -0.0144
     16  C4        -7.4730   30.3930  -12.9620 C.ar  1083  3NK1083    -0.0533
     17  C3        -8.2810   29.7150  -13.8320 C.ar  1083  3NK1083    -0.0507
     18 H141      -12.8750   25.0030  -13.4980 H     1083  3NK1083     0.0236
     19 H142      -12.9130   26.6790  -12.9290 H     1083  3NK1083     0.0236
     20 H143      -13.8110   26.2180  -14.3780 H     1083  3NK1083     0.0236
     21 H121       -9.8330   25.6450  -13.8760 H     1083  3NK1083     0.0351
     22 H122      -10.6490   26.8010  -12.8540 H     1083  3NK1083     0.0351
     23  H1        -8.5810   26.7620  -12.1540 H     1083  3NK1083     0.0631
     24  H3        -8.6290   30.1760  -14.7590 H     1083  3NK1083     0.0625
     25  H8        -7.3030   26.8440  -10.0530 H     1083  3NK1083     0.0625
     26  H7        -5.8400   28.0570   -8.4780 H     1083  3NK1083     0.0654
     27  H5        -5.8670   31.5040  -11.0710 H     1083  3NK1083     0.0660
     28 H151       -5.6590   32.3370   -8.5140 H     1083  3NK1083     0.0660
     29 H152       -4.6250   32.2400   -9.9580 H     1083  3NK1083     0.0660
     30  H4        -7.1610   31.4130  -13.1900 H     1083  3NK1083     0.0624
     31 H153       -3.8950   32.2500   -8.3300 H     1083  3NK1083     0.0660
@<TRIPOS>BOND
     1     5     4    2
     2    24    17    1
     3     2     3    1
     4     2     1    1
     5     4     3    1
     6     4     6    1
     7    20     1    1
     8     3    21    1
     9     3    22    1
    10    17     6   ar
    11    17    16   ar
    12     1    18    1
    13     1    19    1
    14     6     7   ar
    15    30    16    1
    16    16    15   ar
    17     7    23    1
    18     7     8   ar
    19    15     8   ar
    20    15    14   ar
    21     8     9   ar
    22    27    14    1
    23    14    11   ar
    24     9    25    1
    25     9    10   ar
    26    29    13    1
    27    11    10   ar
    28    11    12    1
    29    10    26    1
    30    13    12    1
    31    13    28    1
    32    13    31    1
