@<TRIPOS>MOLECULE
4a2s_3NK_A_1.pdb
 31 32 0 0 0
SMALL
GASTEIGER

@<TRIPOS>ATOM
      1  C14       18.5180   -3.5020  -14.5780 C.3   1083  3NK1083    -0.0581
      2  C13       18.3730   -4.9000  -14.0250 C.3   1083  3NK1083    -0.0125
      3  C12       17.4640   -5.0260  -12.8800 C.3   1083  3NK1083     0.0169
      4  C11       17.2560   -6.4370  -12.4190 C.2   1083  3NK1083     0.1637
      5  O11       17.8600   -7.3710  -12.8990 O.2   1083  3NK1083    -0.2920
      6  C2        16.2830   -6.6460  -11.3130 C.ar  1083  3NK1083     0.0180
      7  C1        15.6500   -5.5830  -10.7250 C.ar  1083  3NK1083    -0.0435
      8  C9        14.6960   -5.8060   -9.6790 C.ar  1083  3NK1083    -0.0170
      9  C8        14.0550   -4.7310   -9.0240 C.ar  1083  3NK1083    -0.0506
     10  C7        13.1600   -4.9600   -8.0170 C.ar  1083  3NK1083    -0.0194
     11  C6        12.8740   -6.3160   -7.5940 C.ar  1083  3NK1083     0.1207
     12  O6        11.9920   -6.5010   -6.5680 O.3   1083  3NK1083    -0.4951
     13  C15       11.9210   -7.7500   -5.8890 C.3   1083  3NK1083     0.0788
     14  C5        13.4960   -7.3850   -8.1990 C.ar  1083  3NK1083    -0.0122
     15  C10       14.4260   -7.1290   -9.2520 C.ar  1083  3NK1083    -0.0144
     16  C4        15.1000   -8.1930   -9.9030 C.ar  1083  3NK1083    -0.0533
     17  C3        15.9970   -7.9600  -10.9010 C.ar  1083  3NK1083    -0.0507
     18 H141       18.6040   -2.7510  -13.7860 H     1083  3NK1083     0.0236
     19 H142       19.4120   -3.4260  -15.2090 H     1083  3NK1083     0.0236
     20 H143       17.6560   -3.2290  -15.2020 H     1083  3NK1083     0.0236
     21 H121       16.4840   -4.5730  -13.1390 H     1083  3NK1083     0.0351
     22 H122       17.8310   -4.3930  -12.0470 H     1083  3NK1083     0.0351
     23  H1        15.8700   -4.5630  -11.0500 H     1083  3NK1083     0.0631
     24  H3        16.5060   -8.7880  -11.4020 H     1083  3NK1083     0.0625
     25  H8        14.2710   -3.7110   -9.3520 H     1083  3NK1083     0.0625
     26  H7        12.6530   -4.1290   -7.5260 H     1083  3NK1083     0.0654
     27  H5        13.2960   -8.4090   -7.8810 H     1083  3NK1083     0.0660
     28 H151       11.9900   -8.5010   -6.6930 H     1083  3NK1083     0.0660
     29 H152       10.9880   -7.9350   -5.3370 H     1083  3NK1083     0.0660
     30  H4        14.8970   -9.2170   -9.5850 H     1083  3NK1083     0.0624
     31 H153       12.7670   -7.9230   -5.2050 H     1083  3NK1083     0.0660
@<TRIPOS>BOND
     1    19     1    1
     2    20     1    1
     3     1     2    1
     4     1    18    1
     5     2     3    1
     6    21     3    1
     7     5     4    2
     8     3     4    1
     9     3    22    1
    10     4     6    1
    11    24    17    1
    12     6    17   ar
    13     6     7   ar
    14    23     7    1
    15    17    16   ar
    16     7     8   ar
    17    16    30    1
    18    16    15   ar
    19     8    15   ar
    20     8     9   ar
    21    25     9    1
    22    15    14   ar
    23     9    10   ar
    24    14    27    1
    25    14    11   ar
    26    10    11   ar
    27    10    26    1
    28    11    12    1
    29    28    13    1
    30    12    13    1
    31    13    29    1
    32    13    31    1
