@<TRIPOS>MOLECULE
4a2u_CMP_A_1.pdb
 22 25 0 0 0
SMALL
GASTEIGER

@<TRIPOS>ATOM
      1  P         83.9760   73.0460   -6.1650 P.3   280  CMP280      0.2141
      2  O1P       82.7920   72.5050   -6.8940 O.2   280  CMP280     -0.5172
      3  O2P       84.3480   74.5250   -6.1490 O.3   280  CMP280     -0.4373
      4  O5'       85.2980   72.2410   -6.6250 O.3   280  CMP280     -0.3114
      5  C5'       86.5080   72.4120   -5.8750 C.3   280  CMP280      0.1812
      6  C4'       86.1790   72.0230   -4.4530 C.3   280  CMP280      0.1793
      7  O4'       87.1550   72.3510   -3.4770 O.3   280  CMP280     -0.3136
      8  C3'       85.0250   72.8180   -3.9070 C.3   280  CMP280      0.1884
      9  O3'       83.8670   72.5530   -4.6630 O.3   280  CMP280     -0.3111
     10  C2'       85.0030   72.3020   -2.4950 C.3   280  CMP280      0.2541
     11  O2'       84.5020   70.9760   -2.5250 O.3   280  CMP280     -0.2131
     12  C1'       86.4820   72.2330   -2.2140 C.3   280  CMP280      0.3185
     13  N9        86.7980   73.3950   -1.4030 N.pl3 280  CMP280     -0.1439
     14  C8        86.8890   74.6720   -1.8220 C.3   280  CMP280      0.3377
     15  N7        87.2100   75.5240   -0.8230 N.2   280  CMP280     -0.2095
     16  C5        87.3350   74.7440    0.2460 C.2   280  CMP280      0.2526
     17  C6        87.6590   74.9960    1.6220 C.2   280  CMP280      0.4393
     18  N6        87.9030   76.2740    2.0230 N.pl3 280  CMP280      0.2180
     19  N1        87.6780   73.9320    2.4310 N.2   280  CMP280      0.0021
     20  C2        87.4190   72.6760    2.0390 C.3   280  CMP280      0.5254
     21  N3        87.1210   72.3680    0.7800 N.2   280  CMP280     -0.0055
     22  C4        87.0600   73.3560   -0.1270 C.2   280  CMP280      0.3518
@<TRIPOS>BOND
     1     2     1    2
     2     4     1    1
     3     4     5    1
     4     1     3    1
     5     1     9    1
     6     5     6    1
     7     9     8    1
     8     6     8    1
     9     6     7    1
    10     8    10    1
    11     7    12    1
    12    11    10    1
    13    10    12    1
    14    12    13    1
    15    14    13    1
    16    14    15    1
    17    13    22    1
    18    15    16    2
    19    22    16    1
    20    22    21    2
    21    16    17    1
    22    21    20    1
    23    17    18    1
    24    17    19    2
    25    20    19    1
