@<TRIPOS>MOLECULE
4a2y_CIT_A_1.pdb
 13 12 0 0 0
SMALL
GASTEIGER

@<TRIPOS>ATOM
      1  C1         6.3410   32.1770   82.7350 C.2   301  CIT301      0.3680
      2  O1         7.3660   32.8880   82.8000 O.co2 301  CIT301     -0.2455
      3  O2         5.9330   31.7330   81.6290 O.co2 301  CIT301     -0.2455
      4  C2         5.5800   31.8850   84.0240 C.3   301  CIT301      0.1560
      5  C3         4.4240   30.8740   83.7380 C.3   301  CIT301      0.2402
      6  O7         4.9460   29.5560   83.4060 O.3   301  CIT301     -0.2129
      7  C4         3.5730   30.7540   85.0090 C.3   301  CIT301      0.1560
      8  C5         4.3540   30.2010   86.1830 C.2   301  CIT301      0.3680
      9  O3         5.1750   29.2610   85.9860 O.co2 301  CIT301     -0.2455
     10  O4         3.9880   30.6020   87.3260 O.co2 301  CIT301     -0.2455
     11  C6         3.4670   31.3240   82.6770 C.2   301  CIT301      0.3927
     12  O5         3.1300   32.5400   82.5970 O.co2 301  CIT301     -0.2429
     13  O6         3.0020   30.4600   81.8530 O.co2 301  CIT301     -0.2429
@<TRIPOS>BOND
     1     3     1   ar
     2    13    11   ar
     3    12    11   ar
     4    11     5    1
     5     1     2   ar
     6     1     4    1
     7     6     5    1
     8     5     4    1
     9     5     7    1
    10     7     8    1
    11     9     8   ar
    12     8    10   ar
