@<TRIPOS>MOLECULE
4a2z_VIQ_A_1.pdb
 23 24 0 0 0
SMALL
GASTEIGER

@<TRIPOS>ATOM
      1  O2         2.0350    7.5170   13.9440 O.2   1423  VIQ1423    -0.1483
      2  S          3.2710    6.9440   13.5050 S.O2  1423  VIQ1423     0.0923
      3  O3         4.0000    8.0150   12.8710 O.2   1423  VIQ1423    -0.1483
      4  N1         4.0420    6.3930   14.8700 N.pl3 1423  VIQ1423    -0.0941
      5  C1         3.7010    5.2660   15.6010 C.ar  1423  VIQ1423     0.1192
      6  C2         4.0920    3.8720   15.2430 C.ar  1423  VIQ1423     0.0738
      7  C6         4.8770    3.3340   14.0770 C.3   1423  VIQ1423     0.0532
      8  N2         3.5010    3.1310   16.1930 N.ar  1423  VIQ1423    -0.2518
      9  C3         3.4770    1.6820   16.4800 C.3   1423  VIQ1423     0.1534
     10  N3         2.7910    3.9160   17.1170 N.ar  1423  VIQ1423    -0.1725
     11  C4         2.9210    5.2230   16.7720 C.ar  1423  VIQ1423     0.0967
     12  C5         2.2620    6.3020   17.5730 C.3   1423  VIQ1423     0.0554
     13  C7         3.1900    5.7440   12.3760 C.ar  1423  VIQ1423     0.1190
     14  C8         4.2540    5.4620   11.4920 C.ar  1423  VIQ1423    -0.0043
     15  C16        5.5420    6.2600   11.4900 C.3   1423  VIQ1423     0.0322
     16  C9         4.1880    4.4110   10.5600 C.ar  1423  VIQ1423     0.0094
     17  C10        5.3430    4.1430    9.6140 C.3   1423  VIQ1423     0.0339
     18  C11        3.0670    3.6010   10.4840 C.ar  1423  VIQ1423     0.1342
     19  O1         3.0320    2.5350    9.5820 O.3   1423  VIQ1423    -0.4718
     20  C15        1.8450    1.7380    9.3980 C.3   1423  VIQ1423     0.2525
     21  C12        2.0260    3.8750   11.3630 C.ar  1423  VIQ1423     0.0336
     22  C13        2.0790    4.9270   12.2740 C.ar  1423  VIQ1423    -0.0002
     23  C14        0.8910    5.1300   13.1760 C.3   1423  VIQ1423     0.0325
@<TRIPOS>BOND
     1    20    19    1
     2    19    18    1
     3    17    16    1
     4    18    16   ar
     5    18    21   ar
     6    16    14   ar
     7    21    22   ar
     8    15    14    1
     9    14    13   ar
    10    22    13   ar
    11    22    23    1
    12    13     2    1
    13     3     2    2
    14     2     1    2
    15     2     4    1
    16     7     6    1
    17     4     5    1
    18     6     5   ar
    19     6     8   ar
    20     5    11   ar
    21     8     9    1
    22     8    10   ar
    23    11    10   ar
    24    11    12    1
