@<TRIPOS>MOLECULE
4a30_QMI_A_1.pdb
 21 22 0 0 0
SMALL
GASTEIGER

@<TRIPOS>ATOM
      1 CLJ        30.4620    6.7930   12.5000 Cl    1424  QMI1424    -0.0808
      2  CAE       28.9300    6.0220   12.1220 C.ar  1424  QMI1424     0.0779
      3  CAD       29.0330    5.2240   10.9890 C.ar  1424  QMI1424     0.0195
      4  CAC       27.9320    4.4880   10.6910 C.ar  1424  QMI1424     0.0363
      5 BRU        28.0550    3.4450    9.1240 Br    1424  QMI1424    -0.0489
      6  CAB       26.7430    4.5260   11.4080 C.ar  1424  QMI1424     0.0195
      7  CAA       26.7080    5.3580   12.5370 C.ar  1424  QMI1424     0.0779
      8 CLI        25.1870    5.3000   13.3760 Cl    1424  QMI1424    -0.0808
      9  CAF       27.7860    6.2280   12.9210 C.ar  1424  QMI1424     0.1480
     10  SAG       27.8130    7.2210   14.2790 S.O2  1424  QMI1424     0.0945
     11  OAH       26.4740    7.4180   14.7360 O.2   1424  QMI1424    -0.1482
     12  OAT       28.5050    8.4680   14.0110 O.2   1424  QMI1424    -0.1482
     13  NAK       28.7230    6.4340   15.3750 N.pl3 1424  QMI1424    -0.0941
     14  CAL       28.3010    5.2560   15.9770 C.ar  1424  QMI1424     0.1192
     15  CAP       28.6900    3.9600   15.4990 C.ar  1424  QMI1424     0.0738
     16  CAR       29.5210    3.5020   14.3200 C.3   1424  QMI1424     0.0532
     17  NAO       28.0490    3.1420   16.3510 N.ar  1424  QMI1424    -0.2518
     18  CAQ       28.0840    1.6520   16.3610 C.3   1424  QMI1424     0.1534
     19  NAN       27.3020    3.8180   17.2790 N.ar  1424  QMI1424    -0.1725
     20  CAM       27.4600    5.1460   17.0510 C.ar  1424  QMI1424     0.0967
     21  CAS       26.7580    6.1380   17.9430 C.3   1424  QMI1424     0.0554
@<TRIPOS>BOND
     1     5     4    1
     2     4     3   ar
     3     4     6   ar
     4     3     2   ar
     5     6     7   ar
     6     2     1    1
     7     2     9   ar
     8     7     9   ar
     9     7     8    1
    10     9    10    1
    11    12    10    2
    12    10    11    2
    13    10    13    1
    14    16    15    1
    15    13    14    1
    16    15    14   ar
    17    15    17   ar
    18    14    20   ar
    19    17    18    1
    20    17    19   ar
    21    20    19   ar
    22    20    21    1
