@<TRIPOS>MOLECULE
4a31_2CB_A_1.pdb
 28 30 0 0 0
SMALL
GASTEIGER

@<TRIPOS>ATOM
      1  CAN        0.1930    0.7470    9.8440 C.3   1423  2CB1423     0.0897
      2  CAL       -1.0850    0.2010    9.1770 C.3   1423  2CB1423     0.0897
      3  NAY       -1.0690   -1.2810    9.1020 N.3   1423  2CB1423    -0.2691
      4  CAC       -2.2460   -1.7130    8.3190 C.3   1423  2CB1423     0.0897
      5  CAM        0.2070   -1.8390    8.6050 C.3   1423  2CB1423     0.0897
      6  CAO        1.3390   -1.3330    9.5110 C.3   1423  2CB1423     0.0897
      7  NAZ        1.4320    0.1300    9.3210 N.3   1423  2CB1423    -0.2688
      8  CAK        2.5980    0.7980    9.9650 C.3   1423  2CB1423     0.0958
      9  CAJ        2.6170    2.2450    9.4430 C.3   1423  2CB1423     0.1311
     10  NAR        3.6670    3.1360    9.9940 N.pl3 1423  2CB1423    -0.2188
     11  CAU        3.5590    3.9720   11.0510 C.ar  1423  2CB1423     0.1476
     12  CAG        4.6330    4.8310   11.2670 C.ar  1423  2CB1423     0.0372
     13  CAH        4.6150    5.7070   12.3320 C.ar  1423  2CB1423     0.0248
     14  NAP        2.4950    4.0080   11.8940 N.ar  1423  2CB1423    -0.2263
     15  CAI        2.4480    4.8240   12.9490 C.ar  1423  2CB1423     0.1205
     16  CAV        3.5040    5.7140   13.1760 C.ar  1423  2CB1423     0.1462
     17  SBB        3.5770    6.7850   14.5620 S.O2  1423  2CB1423     0.0944
     18  OAE        4.2710    8.0490   14.1580 O.2   1423  2CB1423    -0.1483
     19  OAF        2.2470    7.0400   15.1780 O.2   1423  2CB1423    -0.1483
     20  NAS        4.5510    6.0720   15.7160 N.pl3 1423  2CB1423    -0.0941
     21  CAX        4.2230    4.9050   16.2880 C.ar  1423  2CB1423     0.1192
     22  CAW        4.5240    3.6040   15.9070 C.ar  1423  2CB1423     0.0738
     23  CAB        5.3110    3.1200   14.6740 C.3   1423  2CB1423     0.0532
     24  NBA        3.9580    2.8050   16.8180 N.ar  1423  2CB1423    -0.2518
     25  CAD        4.0420    1.3410   16.7810 C.3   1423  2CB1423     0.1534
     26  NAQ        3.3560    3.4290   17.7150 N.ar  1423  2CB1423    -0.1725
     27  CAT        3.4670    4.7360   17.4420 C.ar  1423  2CB1423     0.0967
     28  CAA        2.8980    5.8590   18.3140 C.3   1423  2CB1423     0.0554
@<TRIPOS>BOND
     1     4     3    1
     2     5     3    1
     3     5     6    1
     4     3     2    1
     5     2     1    1
     6     7     6    1
     7     7     1    1
     8     7     8    1
     9     9     8    1
    10     9    10    1
    11    10    11    1
    12    11    12   ar
    13    11    14   ar
    14    12    13   ar
    15    14    15   ar
    16    13    16   ar
    17    15    16   ar
    18    16    17    1
    19    18    17    2
    20    17    19    2
    21    17    20    1
    22    23    22    1
    23    20    21    1
    24    22    21   ar
    25    22    24   ar
    26    21    27   ar
    27    25    24    1
    28    24    26   ar
    29    27    26   ar
    30    27    28    1
