@<TRIPOS>MOLECULE
4a32_2CD_A_1.pdb
 32 34 0 0 0
SMALL
GASTEIGER

@<TRIPOS>ATOM
      1  CAA        2.7830    6.5380   17.8950 C.3   1423  2CD1423     0.0554
      2  CAB        5.1510    3.7270   14.3000 C.3   1423  2CD1423     0.0532
      3  CAC        3.8450    2.0640   16.6810 C.3   1423  2CD1423     0.1534
      4  OAD        4.2840    8.3610   13.9460 O.2   1423  2CD1423    -0.1482
      5  OAE        2.2870    7.8240   14.7360 O.2   1423  2CD1423    -0.1482
      6 CLF         5.8320    6.3890   12.3350 Cl    1423  2CD1423    -0.0808
      7 CLG         0.5000    6.1720   13.5410 Cl    1423  2CD1423    -0.0808
      8  CAH        3.4050    0.8820    9.3790 C.ar  1423  2CD1423    -0.0003
      9  CAI        3.6750    2.0750   10.0230 C.ar  1423  2CD1423    -0.0000
     10  CAJ        4.0590    4.7050   11.3580 C.ar  1423  2CD1423     0.0128
     11  CAK        1.8100    4.6180   11.8770 C.ar  1423  2CD1423     0.0128
     12  CAL        1.4090    2.4500   10.0280 C.ar  1423  2CD1423    -0.0029
     13  CAN       -0.7930    0.1300   11.1910 C.3   1423  2CD1423     0.0724
     14  CAM       -2.3000    0.2100    9.4100 C.3   1423  2CD1423     0.0724
     15  CAP       -1.3830    1.4420   11.5660 C.3   1423  2CD1423     0.0188
     16  CAO       -2.7930   -0.9040    8.5560 C.3   1423  2CD1423     0.0188
     17  NAR        3.2750    4.1950   17.3720 N.ar  1423  2CD1423    -0.1725
     18  NAS       -0.9230   -0.0680    9.7800 N.3   1423  2CD1423    -0.2690
     19  NAT        4.2730    6.6920   15.2710 N.pl3 1423  2CD1423    -0.0941
     20  CAU        3.3570    5.4450   17.0620 C.ar  1423  2CD1423     0.0967
     21  CAV        4.4170    4.2450   15.4870 C.ar  1423  2CD1423     0.0738
     22  CAW        4.2120    5.7390   12.2380 C.ar  1423  2CD1423     0.0774
     23  CAX        1.9620    5.6480   12.7520 C.ar  1423  2CD1423     0.0774
     24  CAY        2.6440    2.9460   10.2950 C.ar  1423  2CD1423    -0.0002
     25  CAZ        2.8450    4.1540   11.1220 C.ar  1423  2CD1423     0.0018
     26  CBA        1.2330    1.2550    9.3900 C.ar  1423  2CD1423    -0.0061
     27  CBB        4.0520    5.5020   15.8960 C.ar  1423  2CD1423     0.1192
     28  CBC        3.1730    6.2770   12.9630 C.ar  1423  2CD1423     0.1480
     29  C14        2.2160    0.5320    9.0910 C.ar  1423  2CD1423    -0.0029
     30  NBE        3.8900    3.4980   16.4110 N.ar  1423  2CD1423    -0.2518
     31  C16       -0.1570    0.8850    9.0220 C.3   1423  2CD1423     0.0991
     32  SBF        3.4020    7.3790   14.1090 S.O2  1423  2CD1423     0.0945
@<TRIPOS>BOND
     1    16    14    1
     2    31    26    1
     3    31    18    1
     4    29     8   ar
     5    29    26   ar
     6     8     9   ar
     7    26    12   ar
     8    14    18    1
     9    18    13    1
    10     9    24   ar
    11    12    24   ar
    12    24    25    1
    13    25    10   ar
    14    25    11   ar
    15    13    15    1
    16    10    22   ar
    17    11    23   ar
    18    22     6    1
    19    22    28   ar
    20    23    28   ar
    21    23     7    1
    22    28    32    1
    23     4    32    2
    24    32     5    2
    25    32    19    1
    26     2    21    1
    27    19    27    1
    28    21    27   ar
    29    21    30   ar
    30    27    20   ar
    31    30     3    1
    32    30    17   ar
    33    20    17   ar
    34    20     1    1
