@<TRIPOS>MOLECULE
4a33_PS8_A_1.pdb
 32 35 0 0 0
SMALL
GASTEIGER

@<TRIPOS>ATOM
      1  CAA        2.7950    6.3590   17.8500 C.3   1422  PS81422     0.0554
      2  CAB        5.2550    3.5360   14.2600 C.3   1422  PS81422     0.0532
      3  CAC        3.6900    1.7380   16.4170 C.3   1422  PS81422     0.1534
      4  OAD        2.7180    7.9040   14.6620 O.2   1422  PS81422    -0.1482
      5  OAE        4.7250    8.0830   13.3590 O.2   1422  PS81422    -0.1482
      6 CL1         0.7800    5.9790   14.1120 Cl    1422  PS81422    -0.0808
      7 CL2         5.8990    6.0600   11.7990 Cl    1422  PS81422    -0.0808
      8  CAH        0.5600    2.7500   10.2340 C.ar  1422  PS81422     0.1003
      9  CAI        1.9380    2.8130   10.4420 C.ar  1422  PS81422     0.0193
     10  CAJ        1.6810    4.4770   12.1680 C.ar  1422  PS81422     0.0129
     11  CAK        3.8050    4.4470   11.1780 C.ar  1422  PS81422     0.0129
     12  CAL        2.1250    0.6600    9.3880 C.ar  1422  PS81422     0.0343
     13  CAM       -2.2660   -1.1940    8.1480 C.3   1422  PS81422     0.1102
     14  CAN       -0.3740   -2.7110    8.3500 C.3   1422  PS81422     0.1102
     15  CAO       -1.3860   -0.1070    8.7580 C.3   1422  PS81422     0.1110
     16  CAP        0.4660   -1.6540    9.0440 C.3   1422  PS81422     0.1110
     17  NAQ       -0.0040    1.7320    9.5820 N.ar  1422  PS81422    -0.2292
     18  NAR        3.1260    3.9390   17.2670 N.ar  1422  PS81422    -0.1725
     19  NAS       -1.8140   -2.5160    8.6060 N.3   1422  PS81422    -0.2144
     20  NAT        4.5890    6.4730   15.3050 N.pl3 1422  PS81422    -0.0941
     21  CAU        3.3500    5.2520   17.0200 C.ar  1422  PS81422     0.0967
     22  CAV        4.4550    4.0090   15.4310 C.ar  1422  PS81422     0.0738
     23  CAW        2.0810    5.4820   13.0050 C.ar  1422  PS81422     0.0774
     24  CAX        4.2120    5.4880   12.0280 C.ar  1422  PS81422     0.0774
     25  CAY        2.7390    1.7190   10.0520 C.ar  1422  PS81422     0.0044
     26  CBA        0.7380    0.6940    9.1540 C.ar  1422  PS81422     0.1318
     27  CBB        4.1680    5.3040   15.8930 C.ar  1422  PS81422     0.1192
     28  CBC        3.3480    6.0480   12.9750 C.ar  1422  PS81422     0.1480
     29  NBD        0.0540   -0.3430    8.5010 N.pl3 1422  PS81422    -0.2903
     30  NBE        3.8200    3.2070   16.2820 N.ar  1422  PS81422    -0.2518
     31  C11        2.5090    3.9520   11.2300 C.ar  1422  PS81422     0.0033
     32  SBF        3.8130    7.2060   14.0530 S.O2  1422  PS81422     0.0945
@<TRIPOS>BOND
     1    13    19    1
     2    13    15    1
     3    14    19    1
     4    14    16    1
     5    29    15    1
     6    29    16    1
     7    29    26    1
     8    26    12   ar
     9    26    17   ar
    10    12    25   ar
    11    17     8   ar
    12    25     9   ar
    13     8     9   ar
    14     9    31    1
    15    11    31   ar
    16    11    24   ar
    17    31    10   ar
    18     7    24    1
    19    24    28   ar
    20    10    23   ar
    21    28    23   ar
    22    28    32    1
    23    23     6    1
    24     5    32    2
    25    32     4    2
    26    32    20    1
    27     2    22    1
    28    20    27    1
    29    22    27   ar
    30    22    30   ar
    31    27    21   ar
    32    30     3    1
    33    30    18   ar
    34    21    18   ar
    35    21     1    1
