@<TRIPOS>MOLECULE
4a34_FUL_A_1.pdb
 11 11 0 0 0
SMALL
GASTEIGER

@<TRIPOS>ATOM
      1  C1        46.9830   15.4820    8.5650 C.3   1142  FUL1142     0.3023
      2  C2        45.9510   16.5380    8.9960 C.3   1142  FUL1142     0.2434
      3  O2        45.5490   16.3800   10.3380 O.3   1142  FUL1142    -0.2148
      4  C3        46.5730   17.9240    8.8370 C.3   1142  FUL1142     0.2198
      5  O3        45.5960   18.9180    9.0180 O.3   1142  FUL1142    -0.2174
      6  C4        47.1890   18.0540    7.4490 C.3   1142  FUL1142     0.2118
      7  O4        46.1670   17.8470    6.5090 O.3   1142  FUL1142    -0.2177
      8  C5        48.2300   16.9590    7.2520 C.3   1142  FUL1142     0.1509
      9  C6        49.0360   17.1530    5.9800 C.3   1142  FUL1142     0.0350
     10  O5        47.5060   15.7400    7.2580 O.3   1142  FUL1142    -0.3264
     11  O1        46.4260   14.2050    8.5850 O.3   1142  FUL1142    -0.1869
@<TRIPOS>BOND
     1     9     8    1
     2     7     6    1
     3     8    10    1
     4     8     6    1
     5    10     1    1
     6     6     4    1
     7     1    11    1
     8     1     2    1
     9     4     2    1
    10     4     5    1
    11     2     3    1
