@<TRIPOS>MOLECULE
4a36_ADP_A_1.pdb
 27 29 0 0 0
SMALL
GASTEIGER

@<TRIPOS>ATOM
      1  PB       -95.6330   66.7360  -32.8590 P.3   1794  ADP1794     0.5373
      2  O1B      -94.3640   67.5000  -32.5910 O.3   1794  ADP1794    -0.1143
      3  O2B      -95.4390   65.3670  -33.4860 O.2   1794  ADP1794    -0.2221
      4  O3B      -96.6170   66.7370  -31.7070 O.3   1794  ADP1794    -0.1143
      5  PA       -95.8000   67.4560  -35.5640 P.3   1794  ADP1794     0.2231
      6  O1A      -94.2980   67.4360  -35.7310 O.3   1794  ADP1794    -0.4370
      7  O2A      -96.5750   66.2290  -35.9720 O.2   1794  ADP1794    -0.5169
      8  O3A      -96.2240   67.6890  -34.0230 O.3   1794  ADP1794    -0.2261
      9  O5'      -96.2760   68.7730  -36.3770 O.3   1794  ADP1794    -0.3111
     10  C5'      -97.6270   69.2360  -36.4670 C.3   1794  ADP1794     0.1813
     11  C4'      -97.8430   70.2840  -37.5710 C.3   1794  ADP1794     0.1821
     12  O4'      -96.9260   71.3910  -37.5130 O.3   1794  ADP1794    -0.3135
     13  C3'      -97.6690   69.7020  -38.9700 C.3   1794  ADP1794     0.2184
     14  O3'      -98.7290   70.1610  -39.8180 O.3   1794  ADP1794    -0.2174
     15  C2'      -96.3540   70.2540  -39.4680 C.3   1794  ADP1794     0.2570
     16  O2'      -96.2640   70.2870  -40.8950 O.3   1794  ADP1794    -0.2130
     17  C1'      -96.3870   71.6260  -38.8310 C.3   1794  ADP1794     0.3186
     18  N9       -95.0510   72.2660  -38.7790 N.pl3 1794  ADP1794    -0.1439
     19  C8       -93.9270   71.7240  -38.2760 C.3   1794  ADP1794     0.3377
     20  N7       -92.8890   72.5920  -38.3730 N.2   1794  ADP1794    -0.2095
     21  C5       -93.3480   73.7040  -38.9440 C.2   1794  ADP1794     0.2526
     22  C6       -92.7780   75.0000  -39.3290 C.2   1794  ADP1794     0.4393
     23  N6       -91.4760   75.2550  -39.1070 N.pl3 1794  ADP1794     0.2180
     24  N1       -93.5940   75.9130  -39.9080 N.2   1794  ADP1794     0.0021
     25  C2       -94.8970   75.6600  -40.1370 C.3   1794  ADP1794     0.5254
     26  N3       -95.4760   74.4880  -39.8010 N.2   1794  ADP1794    -0.0055
     27  C4       -94.7720   73.4920  -39.2130 C.2   1794  ADP1794     0.3518
@<TRIPOS>BOND
     1    16    15    1
     2    25    24    1
     3    25    26    1
     4    24    22    2
     5    14    13    1
     6    26    27    2
     7    15    13    1
     8    15    17    1
     9    22    23    1
    10    22    21    1
    11    27    21    1
    12    27    18    1
    13    13    11    1
    14    21    20    2
    15    17    18    1
    16    17    12    1
    17    18    19    1
    18    20    19    1
    19    11    12    1
    20    11    10    1
    21    10     9    1
    22     9     5    1
    23     7     5    2
    24     6     5    1
    25     5     8    1
    26     8     1    1
    27     3     1    2
    28     1     2    1
    29     1     4    1
