@<TRIPOS>MOLECULE
4a39_GEM_A_1.pdb
 15 14 0 0 0
SMALL
GASTEIGER

@<TRIPOS>ATOM
      1  C8        -2.1810   -7.2980    8.6020 C.3   1377  GEM1377     0.1621
      2  S7        -2.7340   -7.3290    6.8580 S.3   1377  GEM1377    -0.1255
      3  C6        -1.2700   -8.0780    6.0560 C.3   1377  GEM1377     0.1049
      4  C5         0.0600   -7.7900    6.7580 C.3   1377  GEM1377     0.2320
      5  N3         0.1430   -8.5280    8.0260 N.pl3 1377  GEM1377    -0.0856
      6  C1         1.0610   -9.4820    8.1700 C.cat 1377  GEM1377     0.5346
      7  N4         1.8810   -9.7620    7.1600 N.pl3 1377  GEM1377     0.1354
      8  N2         1.1580  -10.1620    9.3080 N.pl3 1377  GEM1377     0.1354
      9  C9        -3.1300   -8.0870    9.5070 C.2   1377  GEM1377     0.3748
     10  O14       -4.0620   -8.7200    8.9610 O.co2 1377  GEM1377    -0.2447
     11  O15       -2.9020   -8.0400   10.7330 O.co2 1377  GEM1377    -0.2447
     12  C10       -2.0280   -5.8600    9.1020 C.3   1377  GEM1377     0.1362
     13  C11       -3.3560   -5.0990    9.0680 C.2   1377  GEM1377     0.3663
     14  O12       -3.3700   -3.9910    8.4870 O.co2 1377  GEM1377    -0.2456
     15  O13       -4.3270   -5.6350    9.6410 O.co2 1377  GEM1377    -0.2456
@<TRIPOS>BOND
     1     3     4    1
     2     3     2    1
     3     4     5    1
     4     2     1    1
     5     7     6    1
     6     5     6    2
     7     6     8    1
     8    14    13   ar
     9     1    12    1
    10     1     9    1
    11    10     9   ar
    12    13    12    1
    13    13    15   ar
    14     9    11   ar
