@<TRIPOS>MOLECULE
4a3e_APC_P_1.pdb
 31 33 0 0 0
SMALL
GASTEIGER

@<TRIPOS>ATOM
      1  PG       108.8930   50.6430   14.7680 P.3   1011  APC1011     0.5389
      2  O1G      109.4340   51.5360   16.0210 O.3   1011  APC1011    -0.1143
      3  O2G      110.2330   49.9450   14.1470 O.2   1011  APC1011    -0.2220
      4  O3G      107.9340   49.6550   15.3260 O.3   1011  APC1011    -0.1143
      5  PB       107.6190   51.0320   12.1150 P.3   1011  APC1011     0.3895
      6  O1B      108.8370   50.9050   11.2420 O.2   1011  APC1011    -0.2544
      7  O2B      106.6630   52.1860   11.4980 O.3   1011  APC1011    -0.1388
      8  O3B      108.0050   51.5440   13.6670 O.3   1011  APC1011    -0.2026
      9  PA       105.6790   49.3310   10.4220 P.3   1011  APC1011     0.3820
     10  O1A      105.2830   47.7840   10.1920 O.2   1011  APC1011    -0.2548
     11  O2A      104.4050   50.1170   10.5560 O.3   1011  APC1011    -0.1392
     12  C3A      106.6420   49.4750   11.9960 C.3   1011  APC1011     0.2357
     13  O5'      106.5470   49.8190    9.1140 O.3   1011  APC1011    -0.2896
     14  C5'      107.6970   48.9620    8.9000 C.3   1011  APC1011     0.1836
     15  C4'      108.2930   49.0120    7.4620 C.3   1011  APC1011     0.1822
     16  O4'      107.4350   48.3370    6.5230 O.3   1011  APC1011    -0.3135
     17  C3'      108.4520   50.4220    6.8520 C.3   1011  APC1011     0.2184
     18  O3'      109.5730   51.1750    7.3640 O.3   1011  APC1011    -0.2174
     19  C2'      108.4070   50.1630    5.3010 C.3   1011  APC1011     0.2570
     20  O2'      109.6260   49.8290    4.6210 O.3   1011  APC1011    -0.2130
     21  C1'      107.4790   48.9590    5.2100 C.3   1011  APC1011     0.3186
     22  N9       106.1530   49.3410    4.7290 N.pl3 1011  APC1011    -0.1439
     23  C8       105.0260   49.5170    5.4840 C.3   1011  APC1011     0.3377
     24  N7       104.0060   49.8550    4.7350 N.2   1011  APC1011    -0.2095
     25  C5       104.3930   49.9280    3.4370 C.2   1011  APC1011     0.2526
     26  C6       103.7490   50.2350    2.1860 C.2   1011  APC1011     0.4393
     27  N6       102.4050   50.5650    2.0950 N.pl3 1011  APC1011     0.2180
     28  N1       104.4880   50.1800    1.0690 N.2   1011  APC1011     0.0021
     29  C2       105.7790   49.8660    1.1010 C.3   1011  APC1011     0.5254
     30  N3       106.4300   49.5850    2.2380 N.2   1011  APC1011    -0.0055
     31  C4       105.7900   49.5930    3.4230 C.2   1011  APC1011     0.3518
@<TRIPOS>BOND
     1    28    29    1
     2    28    26    2
     3    29    30    1
     4    27    26    1
     5    26    25    1
     6    30    31    2
     7    31    25    1
     8    31    22    1
     9    25    24    2
    10    20    19    1
    11    22    21    1
    12    22    23    1
    13    24    23    1
    14    21    19    1
    15    21    16    1
    16    19    17    1
    17    16    15    1
    18    17    18    1
    19    17    15    1
    20    15    14    1
    21    14    13    1
    22    13     9    1
    23    10     9    2
    24     9    11    1
    25     9    12    1
    26     6     5    2
    27     7     5    1
    28    12     5    1
    29     5     8    1
    30     8     1    1
    31     3     1    2
    32     1     4    1
    33     1     2    1
