@<TRIPOS>MOLECULE
4a3f_APC_A_1.pdb
 31 33 0 0 0
SMALL
GASTEIGER

@<TRIPOS>ATOM
      1  PG       106.4990   50.9300   14.1160 P.3   2455  APC2455     0.5389
      2  O1G      107.9010   50.8610   15.0270 O.3   2455  APC2455    -0.1143
      3  O2G      105.4490   52.2240   14.4810 O.3   2455  APC2455    -0.1143
      4  O3G      105.7820   49.6070   14.3790 O.2   2455  APC2455    -0.2220
      5  PB       105.9580   51.1850   11.2150 P.3   2455  APC2455     0.3895
      6  O1B      106.8520   51.3160    9.9700 O.2   2455  APC2455    -0.2544
      7  O2B      104.7750   52.3940   11.3690 O.3   2455  APC2455    -0.1388
      8  O3B      107.0440   51.1090   12.5090 O.3   2455  APC2455    -0.2026
      9  PA       104.7560   48.8000    9.7160 P.3   2455  APC2455     0.3820
     10  O1A      104.2940   47.2290    9.9150 O.3   2455  APC2455    -0.1392
     11  O2A      103.6240   49.7760    9.2720 O.2   2455  APC2455    -0.2548
     12  C3A      105.1930   49.4950   11.3320 C.3   2455  APC2455     0.2357
     13  O5'      106.1540   48.8360    8.8790 O.3   2455  APC2455    -0.2896
     14  C5'      105.9260   49.4030    7.6190 C.3   2455  APC2455     0.1836
     15  C4'      107.0500   49.0040    6.7340 C.3   2455  APC2455     0.1822
     16  O4'      106.5820   48.0140    5.8500 O.3   2455  APC2455    -0.3135
     17  C3'      107.4090   50.2230    5.9010 C.3   2455  APC2455     0.2184
     18  O3'      108.4190   51.1210    6.4970 O.3   2455  APC2455    -0.2174
     19  C2'      107.5390   49.6730    4.4510 C.3   2455  APC2455     0.2570
     20  O2'      108.8740   49.4250    3.9040 O.3   2455  APC2455    -0.2130
     21  C1'      106.5730   48.4800    4.5130 C.3   2455  APC2455     0.3186
     22  N9       105.2210   48.8540    4.2130 N.pl3 2455  APC2455    -0.1439
     23  C8       104.1950   48.8740    5.0550 C.3   2455  APC2455     0.3377
     24  N7       103.1030   49.2560    4.4790 N.2   2455  APC2455    -0.2095
     25  C5       103.3150   49.4980    3.2120 C.2   2455  APC2455     0.2526
     26  C6       102.5340   49.9190    2.1380 C.2   2455  APC2455     0.4393
     27  N6       101.2240   50.1990    2.2100 N.pl3 2455  APC2455     0.2180
     28  N1       103.0650   50.0390    0.9890 N.2   2455  APC2455     0.0021
     29  C2       104.3260   49.8050    0.7930 C.3   2455  APC2455     0.5254
     30  N3       105.1150   49.4090    1.7830 N.2   2455  APC2455    -0.0055
     31  C4       104.6720   49.2350    3.0160 C.2   2455  APC2455     0.3518
@<TRIPOS>BOND
     1    29    28    1
     2    29    30    1
     3    28    26    2
     4    30    31    2
     5    26    27    1
     6    26    25    1
     7    31    25    1
     8    31    22    1
     9    25    24    2
    10    20    19    1
    11    22    21    1
    12    22    23    1
    13    19    21    1
    14    19    17    1
    15    24    23    1
    16    21    16    1
    17    16    15    1
    18    17    18    1
    19    17    15    1
    20    15    14    1
    21    14    13    1
    22    13     9    1
    23    11     9    2
    24     9    10    1
    25     9    12    1
    26     6     5    2
    27     5    12    1
    28     5     7    1
    29     5     8    1
    30     8     1    1
    31     1     4    2
    32     1     3    1
    33     1     2    1
