@<TRIPOS>MOLECULE
4a3g_NUC_P_1.pdb
 42 46 0 0 0
SMALL
GASTEIGER

@<TRIPOS>ATOM
      1  P         94.9380   42.7860    5.3950 P.3     9  RC9         0.3942
      2  OP1       94.3040   43.9510    4.7300 O.3     9  RC9        -0.1425
      3  OP2       94.1100   41.7940    6.1330 O.3     9  RC9        -0.1425
      4  O5'       96.1280   43.3070    6.3600 O.3     9  RC9        -0.2926
      5  C5'       96.7760   42.4140    7.3080 C.3     9  RC9         0.1829
      6  C4'       98.1280   41.9090    6.7970 C.3     9  RC9         0.1772
      7  O4'       98.1100   41.8150    5.3490 O.3     9  RC9        -0.3321
      8  C3'       99.3360   42.7780    7.1310 C.3     9  RC9         0.1857
      9  O3'       99.8750   42.4080    8.4070 O.3     9  RC9        -0.3112
     10  C2'      100.3070   42.4400    5.9980 C.3     9  RC9         0.2291
     11  O2'      101.0590   41.2600    6.2490 O.3     9  RC9        -0.2158
     12  C1'       99.3620   42.2210    4.8110 C.3     9  RC9         0.2399
     13  N1        99.1670   43.4550    3.8510 N.am    9  RC9        -0.1778
     14  C2       100.0780   43.6900    2.7820 C.1     9  RC9         0.2756
     15  O2       101.0730   42.9620    2.6510 O.2     9  RC9        -0.1925
     16  N3        99.8500   44.7420    1.9340 N.2     9  RC9        -0.3024
     17  C4        98.7590   45.5100    2.0760 C.2     9  RC9         0.2346
     18  N4        98.5810   46.5100    1.2010 N.pl3   9  RC9        -0.0921
     19  C5        97.8000   45.2740    3.1180 C.2     9  RC9         0.0687
     20  C6        98.0310   44.2420    3.9610 C.2     9  RC9         0.0836
     21  P        100.8110   43.4250    9.2350 P.3    10  RA10        0.2141
     22  OP1      100.7490   43.0230   10.6610 O.3    10  RA10       -0.4373
     23  OP2      100.4470   44.8110    8.8510 O.2    10  RA10       -0.5172
     24  O5'      102.2880   43.1260    8.6610 O.3    10  RA10       -0.3114
     25  C5'      103.4360   43.2210    9.5210 C.3    10  RA10        0.1813
     26  C4'      104.6520   43.8290    8.8190 C.3    10  RA10        0.1821
     27  O4'      104.6490   43.5110    7.4060 O.3    10  RA10       -0.3135
     28  C3'      104.7640   45.3480    8.8610 C.3    10  RA10        0.2184
     29  O3'      105.2790   45.7940   10.1190 O.3    10  RA10       -0.2174
     30  C2'      105.7430   45.6120    7.7100 C.3    10  RA10        0.2570
     31  O2'      107.1050   45.4720    8.0790 O.3    10  RA10       -0.2130
     32  C1'      105.3450   44.5300    6.6920 C.3    10  RA10        0.3186
     33  N9       104.4770   45.0430    5.6340 N.pl3  10  RA10       -0.1439
     34  C8       103.2010   45.5260    5.7800 C.3    10  RA10        0.3377
     35  N7       102.6840   46.0090    4.6820 N.2    10  RA10       -0.2095
     36  C5       103.6860   45.8500    3.7450 C.2    10  RA10        0.2526
     37  C6       103.7530   46.1580    2.3680 C.2    10  RA10        0.4393
     38  N6       102.7360   46.7120    1.6960 N.pl3  10  RA10        0.2180
     39  N1       104.9080   45.8650    1.7070 N.2    10  RA10        0.0021
     40  C2       105.9220   45.2950    2.3920 C.3    10  RA10        0.5254
     41  N3       105.9750   44.9640    3.6910 N.2    10  RA10       -0.0055
     42  C4       104.8140   45.2750    4.3180 C.2    10  RA10        0.3518
@<TRIPOS>BOND
     1    18    17    1
     2    38    37    1
     3    39    37    2
     4    39    40    1
     5    16    17    2
     6    16    14    2
     7    17    19    1
     8    37    36    1
     9    40    41    1
    10    15    14    2
    11    14    13   am
    12    19    20    2
    13    41    42    2
    14    36    42    1
    15    36    35    2
    16    13    20    1
    17    13    12    1
    18    42    33    1
    19    35    34    1
    20     2     1    1
    21    12     7    1
    22    12    10    1
    23     7     6    1
    24     1     3    1
    25     1     4    1
    26    33    34    1
    27    33    32    1
    28    10    11    1
    29    10     8    1
    30     4     5    1
    31    32    27    1
    32    32    30    1
    33     6     8    1
    34     6     5    1
    35     8     9    1
    36    27    26    1
    37    30    31    1
    38    30    28    1
    39     9    21    1
    40    24    21    1
    41    24    25    1
    42    26    28    1
    43    26    25    1
    44    23    21    2
    45    28    29    1
    46    21    22    1
