@<TRIPOS>MOLECULE
4a3h_DCB_A_1.pdb
 35 37 0 0 0
SMALL
GASTEIGER

@<TRIPOS>ATOM
      1  C1A       61.6510   41.4910   36.1360 C.3   304  DCB304      0.3242
      2  C2A       60.5500   41.9610   35.2260 C.3   304  DCB304      0.2629
      3  C3A       60.8010   43.4060   34.8070 C.3   304  DCB304      0.2201
      4  C4A       61.3510   44.0640   36.0950 C.3   304  DCB304      0.1807
      5  C5A       62.7770   43.5840   36.2950 C.3   304  DCB304      0.1814
      6  C6A       63.4290   44.0520   37.5980 C.3   304  DCB304      0.2141
      7  O1A       61.0610   41.2780   37.3640 O.3   304  DCB304     -0.4486
      8  F2A       60.6530   41.1800   34.0920 F     304  DCB304     -0.2276
      9  O3A       59.4820   43.8600   34.5390 O.3   304  DCB304     -0.2172
     10  O4A       61.4250   45.4680   35.8150 O.3   304  DCB304     -0.3257
     11  O5A       62.8490   42.1750   36.1730 O.3   304  DCB304     -0.3156
     12  O6A       62.6060   43.6240   38.6890 O.3   304  DCB304     -0.2176
     13  C1B       61.0150   46.2260   36.9490 C.3   304  DCB304      0.2695
     14  C2B       61.3680   47.6770   36.5670 C.3   304  DCB304      0.2406
     15  C3B       60.7790   48.5750   37.6800 C.3   304  DCB304      0.2198
     16  C4B       59.2580   48.3470   37.6970 C.3   304  DCB304      0.2144
     17  C5B       58.9840   46.8590   38.0220 C.3   304  DCB304      0.1835
     18  C6B       57.5010   46.5050   38.0880 C.3   304  DCB304      0.2142
     19  O2B       62.7850   47.7530   36.5040 O.3   304  DCB304     -0.2149
     20  O3B       60.9890   49.9210   37.2350 O.3   304  DCB304     -0.2174
     21  O4B       58.6370   49.1950   38.6520 O.3   304  DCB304     -0.2176
     22  O5B       59.6020   46.1150   36.9960 O.3   304  DCB304     -0.3256
     23  O6B       56.9670   46.7430   36.7900 O.3   304  DCB304     -0.2176
     24  C1        61.6890   40.5250   38.4220 C.ar  304  DCB304      0.1638
     25  C2        62.7440   39.5760   38.2340 C.ar  304  DCB304      0.0404
     26  C3        63.2520   38.7280   39.1500 C.ar  304  DCB304      0.0273
     27  C4        62.7020   38.8590   40.4240 C.ar  304  DCB304      0.1447
     28  C5        61.7190   39.7250   40.7860 C.ar  304  DCB304      0.0513
     29  C6        61.2380   40.5650   39.7920 C.ar  304  DCB304      0.1783
     30  N4        63.2660   37.9410   41.4320 N.pl3 304  DCB304      0.0577
     31  N6        60.1880   41.4800   40.2100 N.pl3 304  DCB304      0.0607
     32  O41       64.1270   37.1910   41.0210 O.2   304  DCB304     -0.1261
     33  O42       62.8310   38.0410   42.5420 O.2   304  DCB304     -0.1261
     34  O61       59.6250   42.2810   39.4750 O.2   304  DCB304     -0.1260
     35  O62       59.8420   41.4360   41.3910 O.2   304  DCB304     -0.1260
@<TRIPOS>BOND
     1     8     2    1
     2     9     3    1
     3     3     2    1
     4     3     4    1
     5     2     1    1
     6    10     4    1
     7    10    13    1
     8     4     5    1
     9     1    11    1
    10     1     7    1
    11    11     5    1
    12     5     6    1
    13    19    14    1
    14    14    13    1
    15    14    15    1
    16    23    18    1
    17    13    22    1
    18    22    17    1
    19    20    15    1
    20     7    24    1
    21     6    12    1
    22    15    16    1
    23    16    17    1
    24    16    21    1
    25    17    18    1
    26    25    24   ar
    27    25    26   ar
    28    24    29   ar
    29    26    27   ar
    30    34    31    2
    31    29    31    1
    32    29    28   ar
    33    31    35    2
    34    27    28   ar
    35    27    30    1
    36    32    30    2
    37    30    33    2
