@<TRIPOS>MOLECULE
4a3j_G2P_T_1.pdb
 32 34 0 0 0
SMALL
GASTEIGER

@<TRIPOS>ATOM
      1  PG       109.7430   51.2290   14.8910 P.3   1024  G2P1024     0.5389
      2  O1G      110.3430   51.7540   13.5370 O.2   1024  G2P1024    -0.2220
      3  O2G      109.3830   52.1750   15.9660 O.3   1024  G2P1024    -0.1143
      4  O3G      110.8910   50.2200   15.2870 O.3   1024  G2P1024    -0.1143
      5  O3B      108.5350   50.2960   14.3590 O.3   1024  G2P1024    -0.2026
      6  PB       107.2250   49.4580   13.8930 P.3   1024  G2P1024     0.3895
      7  O1B      106.0860   50.3910   14.4690 O.2   1024  G2P1024    -0.2544
      8  O2B      107.1290   48.0990   14.4960 O.3   1024  G2P1024    -0.1388
      9  C3A      107.1100   49.4890   12.1390 C.3   1024  G2P1024     0.2357
     10  PA       105.9770   49.1200   10.8920 P.3   1024  G2P1024     0.3820
     11  O1A      105.2260   47.7410   11.0880 O.3   1024  G2P1024    -0.1392
     12  O2A      104.9380   50.1340   10.6000 O.2   1024  G2P1024    -0.2548
     13  O5'      106.8950   48.7240    9.5860 O.3   1024  G2P1024    -0.2896
     14  C5'      107.6450   49.6270    8.7900 C.3   1024  G2P1024     0.1836
     15  C4'      108.2550   48.8580    7.5710 C.3   1024  G2P1024     0.1800
     16  O4'      107.2530   48.4460    6.6790 O.3   1024  G2P1024    -0.3326
     17  C3'      109.2450   49.7620    6.7660 C.3   1024  G2P1024     0.2158
     18  O3'      110.4170   49.0570    6.4870 O.3   1024  G2P1024    -0.2175
     19  C2'      108.5300   49.9930    5.3890 C.3   1024  G2P1024     0.2310
     20  O2'      109.3370   49.8420    4.2720 O.3   1024  G2P1024    -0.2158
     21  C1'      107.5160   48.8070    5.3340 C.3   1024  G2P1024     0.2293
     22  N9       106.2130   49.1410    4.6940 N.pl3 1024  G2P1024    -0.2354
     23  C8       104.9070   49.0770    5.2840 C.3   1024  G2P1024     0.2246
     24  N7       103.9230   49.3960    4.4340 N.2   1024  G2P1024    -0.2322
     25  C5       104.5670   49.6900    3.2310 C.2   1024  G2P1024     0.2182
     26  C6       103.9650   50.0860    1.9740 C.1   1024  G2P1024     0.2372
     27  O6       102.7860   50.2590    1.6830 O.2   1024  G2P1024    -0.2069
     28  N1       104.9440   50.3020    0.9110 N.2   1024  G2P1024    -0.2485
     29  C2       106.3390   50.1370    1.1160 C.1   1024  G2P1024     0.2531
     30  N2       107.1810   50.3560    0.0310 N.pl3 1024  G2P1024    -0.0226
     31  N3       106.9250   49.7630    2.3170 N.2   1024  G2P1024    -0.3074
     32  C4       105.9860   49.5460    3.3540 C.2   1024  G2P1024     0.2300
@<TRIPOS>BOND
     1    30    29    1
     2    28    29    2
     3    28    26    2
     4    29    31    2
     5    27    26    2
     6    26    25    1
     7    31    32    2
     8    25    32    1
     9    25    24    2
    10    32    22    1
    11    20    19    1
    12    24    23    1
    13    22    23    1
    14    22    21    1
    15    21    19    1
    16    21    16    1
    17    19    17    1
    18    18    17    1
    19    16    15    1
    20    17    15    1
    21    15    14    1
    22    14    13    1
    23    13    10    1
    24    12    10    2
    25    10    11    1
    26    10     9    1
    27     9     6    1
    28     2     1    2
    29     6     5    1
    30     6     7    2
    31     6     8    1
    32     5     1    1
    33     1     4    1
    34     1     3    1
