@<TRIPOS>MOLECULE
4a3j_NUC_P_1.pdb
 42 46 0 0 0
SMALL
GASTEIGER

@<TRIPOS>ATOM
      1  P         96.4740   40.7110    5.8800 P.3     9  RC9         0.3942
      2  OP1       96.7970   41.9500    5.1250 O.3     9  RC9        -0.1425
      3  OP2       96.6600   39.3770    5.2500 O.3     9  RC9        -0.1425
      4  O5'       97.2400   40.7090    7.3030 O.3     9  RC9        -0.2926
      5  C5'       98.2640   41.6820    7.6160 C.3     9  RC9         0.1829
      6  C4'       99.6490   41.0990    7.3750 C.3     9  RC9         0.1772
      7  O4'       99.7660   40.7660    5.9640 O.3     9  RC9        -0.3321
      8  C3'      100.8140   42.0430    7.6740 C.3     9  RC9         0.1857
      9  O3'      101.3000   41.8610    9.0110 O.3     9  RC9        -0.3112
     10  C2'      101.8510   41.6530    6.6180 C.3     9  RC9         0.2291
     11  O2'      102.6290   40.5220    6.9980 O.3     9  RC9        -0.2158
     12  C1'      100.9540   41.3100    5.4260 C.3     9  RC9         0.2399
     13  N1       100.6120   42.5050    4.4640 N.am    9  RC9        -0.1778
     14  C2       101.2230   42.5650    3.1900 C.1     9  RC9         0.2756
     15  O2       102.0140   41.6680    2.8490 O.2     9  RC9        -0.1925
     16  N3       100.9190   43.6110    2.3550 N.2     9  RC9        -0.3024
     17  C4       100.0460   44.5550    2.7320 C.2     9  RC9         0.2346
     18  N4        99.7860   45.5500    1.8670 N.pl3   9  RC9        -0.0921
     19  C5        99.4090   44.5200    4.0160 C.2     9  RC9         0.0687
     20  C6        99.7070   43.4880    4.8350 C.2     9  RC9         0.0836
     21  P        101.7770   43.1380    9.8650 P.3    10  RA10        0.2141
     22  OP1      102.1100   42.6870   11.2320 O.3    10  RA10       -0.4373
     23  OP2      100.7750   44.2100    9.6850 O.2    10  RA10       -0.5172
     24  O5'      103.1240   43.5930    9.1160 O.3    10  RA10       -0.3114
     25  C5'      104.3050   42.7710    9.1650 C.3    10  RA10        0.1813
     26  C4'      105.4440   43.3560    8.3310 C.3    10  RA10        0.1821
     27  O4'      105.1810   43.1570    6.9240 O.3    10  RA10       -0.3135
     28  C3'      105.6640   44.8550    8.4640 C.3    10  RA10        0.2184
     29  O3'      106.4420   45.1460    9.6030 O.3    10  RA10       -0.2174
     30  C2'      106.4120   45.1850    7.1760 C.3    10  RA10        0.2570
     31  O2'      107.8120   45.0180    7.2850 O.3    10  RA10       -0.2130
     32  C1'      105.8160   44.1850    6.1760 C.3    10  RA10        0.3186
     33  N9       104.8350   44.8040    5.2810 N.pl3  10  RA10       -0.1439
     34  C8       103.5820   45.2530    5.6150 C.3    10  RA10        0.3377
     35  N7       102.9490   45.8580    4.6370 N.2    10  RA10       -0.2095
     36  C5       103.8560   45.8380    3.5920 C.2    10  RA10        0.2526
     37  C6       103.7870   46.3170    2.2610 C.2    10  RA10        0.4393
     38  N6       102.7010   46.9190    1.7480 N.pl3  10  RA10        0.2180
     39  N1       104.8770   46.1330    1.4660 N.2    10  RA10        0.0021
     40  C2       105.9620   45.5160    1.9790 C.3    10  RA10        0.5254
     41  N3       106.1380   45.0110    3.2090 N.2    10  RA10       -0.0055
     42  C4       105.0410   45.2160    3.9780 C.2    10  RA10        0.3518
@<TRIPOS>BOND
     1    39    40    1
     2    39    37    2
     3    38    37    1
     4    18    17    1
     5    40    41    1
     6    37    36    1
     7    16    17    2
     8    16    14    2
     9    17    19    1
    10    15    14    2
    11    14    13   am
    12    41    42    2
    13    36    42    1
    14    36    35    2
    15    42    33    1
    16    19    20    2
    17    13    20    1
    18    13    12    1
    19    35    34    1
    20     2     1    1
    21     3     1    1
    22    33    34    1
    23    33    32    1
    24    12     7    1
    25    12    10    1
    26     1     4    1
    27     7     6    1
    28    32    27    1
    29    32    30    1
    30    10    11    1
    31    10     8    1
    32    27    26    1
    33    30    31    1
    34    30    28    1
    35     4     5    1
    36     6     5    1
    37     6     8    1
    38     8     9    1
    39    26    28    1
    40    26    25    1
    41    28    29    1
    42     9    21    1
    43    24    25    1
    44    24    21    1
    45    23    21    2
    46    21    22    1
