@<TRIPOS>MOLECULE
4a3l_APC_P_1.pdb
 31 33 0 0 0
SMALL
GASTEIGER

@<TRIPOS>ATOM
      1  PG       109.6580   49.5540   13.5500 P.3   1011  APC1011     0.5389
      2  O1G      110.6220   50.3480   14.6320 O.3   1011  APC1011    -0.1143
      3  O2G      110.0290   49.9670   11.9880 O.2   1011  APC1011    -0.2220
      4  O3G      109.9480   48.0610   13.6500 O.3   1011  APC1011    -0.1143
      5  PB       106.8150   50.4260   12.9110 P.3   1011  APC1011     0.3895
      6  O1B      107.3630   51.0470   11.6160 O.2   1011  APC1011    -0.2544
      7  O2B      105.8390   51.5200   13.6870 O.3   1011  APC1011    -0.1388
      8  O3B      108.0390   49.9220   13.9960 O.3   1011  APC1011    -0.2026
      9  PA       105.2900   48.6810   10.6350 P.3   1011  APC1011     0.3820
     10  O1A      104.5600   47.2250   10.6560 O.3   1011  APC1011    -0.1392
     11  O2A      104.2750   49.7420   10.2480 O.2   1011  APC1011    -0.2548
     12  C3A      105.7790   48.9350   12.4240 C.3   1011  APC1011     0.2357
     13  O5'      106.6500   48.6000    9.6530 O.3   1011  APC1011    -0.2896
     14  C5'      106.9000   49.6500    8.6800 C.3   1011  APC1011     0.1836
     15  C4'      108.0080   49.2350    7.6390 C.3   1011  APC1011     0.1822
     16  O4'      107.6590   48.1240    6.7710 O.3   1011  APC1011    -0.3135
     17  C3'      108.4620   50.3280    6.6240 C.3   1011  APC1011     0.2184
     18  O3'      109.6070   51.1190    7.0340 O.3   1011  APC1011    -0.2174
     19  C2'      108.3770   49.7350    5.1600 C.3   1011  APC1011     0.2570
     20  O2'      109.5460   49.4220    4.4230 O.3   1011  APC1011    -0.2130
     21  C1'      107.5590   48.4830    5.3610 C.3   1011  APC1011     0.3186
     22  N9       106.1900   48.7890    5.0210 N.pl3 1011  APC1011    -0.1439
     23  C8       105.1290   48.7200    5.8400 C.3   1011  APC1011     0.3377
     24  N7       104.0470   49.0800    5.2290 N.2   1011  APC1011    -0.2095
     25  C5       104.3150   49.4020    3.9740 C.2   1011  APC1011     0.2526
     26  C6       103.5600   49.8520    2.8510 C.2   1011  APC1011     0.4393
     27  N6       102.2040   50.0770    2.8790 N.pl3 1011  APC1011     0.2180
     28  N1       104.1840   50.0690    1.7170 N.2   1011  APC1011     0.0021
     29  C2       105.4910   49.8970    1.6380 C.3   1011  APC1011     0.5254
     30  N3       106.2420   49.4880    2.6760 N.2   1011  APC1011    -0.0055
     31  C4       105.7040   49.2190    3.8400 C.2   1011  APC1011     0.3518
@<TRIPOS>BOND
     1    29    28    1
     2    29    30    1
     3    28    26    2
     4    30    31    2
     5    26    27    1
     6    26    25    1
     7    31    25    1
     8    31    22    1
     9    25    24    2
    10    20    19    1
    11    22    21    1
    12    22    23    1
    13    19    21    1
    14    19    17    1
    15    24    23    1
    16    21    16    1
    17    17    18    1
    18    17    15    1
    19    16    15    1
    20    15    14    1
    21    14    13    1
    22    13     9    1
    23    11     9    2
    24     9    10    1
    25     9    12    1
    26     6     5    2
    27     3     1    2
    28    12     5    1
    29     5     7    1
    30     5     8    1
    31     1     4    1
    32     1     8    1
    33     1     2    1
