@<TRIPOS>MOLECULE
4a3m_APC_A_1.pdb
 31 33 0 0 0
SMALL
GASTEIGER

@<TRIPOS>ATOM
      1  PG       108.6980   50.8430   15.2180 P.3   2455  APC2455     0.5389
      2  O1G      110.0010   50.4080   16.0760 O.3   2455  APC2455    -0.1143
      3  O2G      109.2050   51.7250   13.9600 O.2   2455  APC2455    -0.2220
      4  O3G      107.8130   51.6910   16.0780 O.3   2455  APC2455    -0.1143
      5  PB       107.1820   49.6160   13.2660 P.3   2455  APC2455     0.3895
      6  O1B      108.2440   49.6370   12.2230 O.2   2455  APC2455    -0.2544
      7  O2B      106.3590   51.0050   13.2330 O.3   2455  APC2455    -0.1388
      8  O3B      107.9070   49.4790   14.7240 O.3   2455  APC2455    -0.2026
      9  PA       104.9220   48.6170   11.4910 P.3   2455  APC2455     0.3820
     10  O1A      103.5180   47.8530   11.6250 O.3   2455  APC2455    -0.1392
     11  O2A      104.5510   50.0410   11.4610 O.2   2455  APC2455    -0.2548
     12  C3A      105.9700   48.2670   12.9630 C.3   2455  APC2455     0.2357
     13  O5'      105.6990   48.1580   10.1100 O.3   2455  APC2455    -0.2896
     14  C5'      106.6240   49.1520    9.5640 C.3   2455  APC2455     0.1836
     15  C4'      107.7540   48.6120    8.6070 C.3   2455  APC2455     0.1822
     16  O4'      107.2770   47.8680    7.4460 O.3   2455  APC2455    -0.3135
     17  C3'      108.7490   49.6840    8.0390 C.3   2455  APC2455     0.2184
     18  O3'      110.1160   49.3310    8.3000 O.3   2455  APC2455    -0.2174
     19  C2'      108.4160   49.8040    6.5080 C.3   2455  APC2455     0.2570
     20  O2'      109.5200   49.9120    5.5940 O.3   2455  APC2455    -0.2130
     21  C1'      107.5400   48.5810    6.1910 C.3   2455  APC2455     0.3186
     22  N9       106.2820   49.0180    5.5890 N.pl3 2455  APC2455    -0.1439
     23  C8       105.1020   49.1880    6.2480 C.3   2455  APC2455     0.3377
     24  N7       104.1670   49.5850    5.4440 N.2   2455  APC2455    -0.2095
     25  C5       104.6640   49.7080    4.2020 C.2   2455  APC2455     0.2526
     26  C6       104.1140   50.1010    2.9310 C.2   2455  APC2455     0.4393
     27  N6       102.7770   50.4650    2.7580 N.pl3 2455  APC2455     0.2180
     28  N1       104.9380   50.1030    1.8690 N.2   2455  APC2455     0.0021
     29  C2       106.2350   49.7530    2.0170 C.3   2455  APC2455     0.5254
     30  N3       106.8030   49.3810    3.1760 N.2   2455  APC2455    -0.0055
     31  C4       106.0530   49.3420    4.2850 C.2   2455  APC2455     0.3518
@<TRIPOS>BOND
     1    28    29    1
     2    28    26    2
     3    29    30    1
     4    27    26    1
     5    26    25    1
     6    30    31    2
     7    25    31    1
     8    25    24    2
     9    31    22    1
    10    24    23    1
    11    22    21    1
    12    22    23    1
    13    20    19    1
    14    21    19    1
    15    21    16    1
    16    19    17    1
    17    16    15    1
    18    17    18    1
    19    17    15    1
    20    15    14    1
    21    14    13    1
    22    13     9    1
    23    11     9    2
    24     9    10    1
    25     9    12    1
    26     6     5    2
    27    12     5    1
    28     7     5    1
    29     5     8    1
    30     3     1    2
    31     8     1    1
    32     1     2    1
    33     1     4    1
