@<TRIPOS>MOLECULE
4a3q_PLP_A_1.pdb
 15 15 0 0 0
SMALL
GASTEIGER

@<TRIPOS>ATOM
      1  N1        30.8480   93.4410   10.7570 N.2   1039  PLP1039    -0.2458
      2  C2        29.9910   94.2960   11.4390 C.2   1039  PLP1039     0.0942
      3  C2A       28.7770   94.8480   10.7230 C.3   1039  PLP1039     0.0552
      4  C3        30.2880   94.6420   12.7680 C.2   1039  PLP1039     0.1899
      5  O3        29.5310   95.4030   13.3880 O.2   1039  PLP1039    -0.2898
      6  C4        31.4360   94.1260   13.4020 C.3   1039  PLP1039     0.0852
      7  C4A       31.7250   94.4960   14.8480 C.3   1039  PLP1039     0.0127
      8  C5        32.2870   93.2480   12.6830 C.2   1039  PLP1039     0.0118
      9  C6        31.9750   92.9060   11.3620 C.2   1039  PLP1039     0.0929
     10  C5A       33.5020   92.5940   13.2990 C.3   1039  PLP1039     0.1779
     11  O4P       33.1650   91.5570   14.3150 O.3   1039  PLP1039    -0.2656
     12  P         34.2720   90.7640   15.0860 P.3   1039  PLP1039     0.5329
     13  O1P       33.6990   89.5650   15.6790 O.3   1039  PLP1039    -0.1145
     14  O2P       35.2910   90.5080   14.0180 O.2   1039  PLP1039    -0.2224
     15  O3P       34.8370   91.6530   16.1290 O.3   1039  PLP1039    -0.1145
@<TRIPOS>BOND
     1     3     2    1
     2     1     9    1
     3     1     2    2
     4     9     8    2
     5     2     4    1
     6     8    10    1
     7     8     6    1
     8     4     5    2
     9     4     6    1
    10    10    11    1
    11     6     7    1
    12    14    12    2
    13    11    12    1
    14    12    13    1
    15    12    15    1
