@<TRIPOS>MOLECULE
4a3u_FMN_A_1.pdb
 31 33 0 0 0
SMALL
GASTEIGER

@<TRIPOS>ATOM
      1  N1         3.6650    1.8450   30.1870 N.2   1357  FMN1357    -0.2887
      2  C2         4.2250    1.6690   31.3610 C.1   1357  FMN1357     0.3669
      3  O2         4.2730    0.4560   31.6780 O.2   1357  FMN1357    -0.1744
      4  N3         4.6750    2.6880   32.1620 N.2   1357  FMN1357    -0.2300
      5  C4         4.6020    3.9720   31.7220 C.1   1357  FMN1357     0.2513
      6  O4         5.0140    4.8730   32.5020 O.2   1357  FMN1357    -0.2057
      7  C4A        3.9580    4.2300   30.3900 C.2   1357  FMN1357     0.2706
      8  N5         3.8340    5.4720   29.8700 N.2   1357  FMN1357    -0.3841
      9  C5A        3.2410    5.7200   28.6700 C.2   1357  FMN1357     0.1452
     10  C6         3.0980    7.0480   28.2140 C.2   1357  FMN1357     0.0252
     11  C7         2.4550    7.3290   27.0140 C.2   1357  FMN1357    -0.0375
     12  C7M        2.3340    8.7490   26.5700 C.3   1357  FMN1357     0.0268
     13  C8         1.9620    6.2320   26.1810 C.3   1357  FMN1357     0.0417
     14  C8M        1.3080    6.5200   24.8800 C.3   1357  FMN1357     0.0091
     15  C9         2.0960    4.9120   26.6130 C.2   1357  FMN1357    -0.0049
     16  C9A        2.6940    4.5940   27.8430 C.2   1357  FMN1357     0.0795
     17  N10        2.8400    3.2480   28.3490 N.pl3 1357  FMN1357    -0.2545
     18  C10        3.4610    3.0590   29.6110 C.2   1357  FMN1357     0.2449
     19  C1'        2.2870    2.1900   27.5030 C.3   1357  FMN1357     0.1336
     20  C2'        0.7840    2.3230   27.8560 C.3   1357  FMN1357     0.2048
     21  O2'        0.4950    1.8570   29.1560 O.3   1357  FMN1357    -0.2185
     22  C3'       -0.1560    1.4500   27.0990 C.3   1357  FMN1357     0.2165
     23  O3'        0.3630    0.1280   27.3370 O.3   1357  FMN1357    -0.2175
     24  C4'       -0.3220    1.9190   25.6920 C.3   1357  FMN1357     0.2147
     25  O4'       -0.8790    3.2650   25.7810 O.3   1357  FMN1357    -0.2176
     26  C5'       -1.2160    0.9450   24.9520 C.3   1357  FMN1357     0.1892
     27  O5'       -2.5290    1.0760   25.5000 O.3   1357  FMN1357    -0.2674
     28  P         -3.7330    1.8690   24.8780 P.3   1357  FMN1357     0.5327
     29  O1P       -3.3170    3.3370   24.9420 O.3   1357  FMN1357    -0.1145
     30  O2P       -3.8440    1.3560   23.4580 O.2   1357  FMN1357    -0.2224
     31  O3P       -4.8930    1.6580   25.8310 O.3   1357  FMN1357    -0.1145
@<TRIPOS>BOND
     1    30    28    2
     2    28    29    1
     3    28    27    1
     4    28    31    1
     5    14    13    1
     6    26    27    1
     7    26    24    1
     8    24    25    1
     9    24    22    1
    10    13    15    1
    11    13    11    1
    12    12    11    1
    13    15    16    2
    14    11    10    2
    15    22    23    1
    16    22    20    1
    17    19    20    1
    18    19    17    1
    19    16    17    1
    20    16     9    1
    21    20    21    1
    22    10     9    1
    23    17    18    1
    24     9     8    2
    25    18     1    2
    26    18     7    1
    27     8     7    2
    28     1     2    2
    29     7     5    1
    30     2     3    2
    31     2     4    2
    32     5     4    2
    33     5     6    2
