@<TRIPOS>MOLECULE
4a3w_FLC_A_1.pdb
 13 12 0 0 0
SMALL
GASTEIGER

@<TRIPOS>ATOM
      1  CAC      -44.5430   20.1090   11.9190 C.2   1161  FLC1161     0.3680
      2  CA       -45.6450   20.9610   11.3610 C.3   1161  FLC1161     0.1560
      3  CB       -46.9810   20.2860   11.2780 C.3   1161  FLC1161     0.2402
      4  CBC      -47.0210   19.2810   10.1800 C.2   1161  FLC1161     0.3927
      5  CG       -47.3490   19.5350   12.5210 C.3   1161  FLC1161     0.1560
      6  CGC      -47.9870   20.4100   13.5640 C.2   1161  FLC1161     0.3680
      7  OA1      -43.7940   20.5600   12.8170 O.co2 1161  FLC1161    -0.2455
      8  OA2      -44.3190   18.9480   11.4870 O.co2 1161  FLC1161    -0.2455
      9  OB1      -46.1000   18.4230   10.0190 O.co2 1161  FLC1161    -0.2429
     10  OB2      -48.0230   19.2940    9.4280 O.co2 1161  FLC1161    -0.2429
     11  OG1      -48.2100   21.6290   13.3510 O.co2 1161  FLC1161    -0.2455
     12  OG2      -48.2740   19.9240   14.6890 O.co2 1161  FLC1161    -0.2455
     13  OHB      -47.9120   21.2750   10.9910 O.3   1161  FLC1161    -0.2129
@<TRIPOS>BOND
     1    10     4   ar
     2     9     4   ar
     3     4     3    1
     4    13     3    1
     5     3     2    1
     6     3     5    1
     7     2     1    1
     8     8     1   ar
     9     1     7   ar
    10     5     6    1
    11    11     6   ar
    12     6    12   ar
