@<TRIPOS>MOLECULE
4a3x_LAT_A_1.pdb
 13 13 0 0 0
SMALL
GASTEIGER

@<TRIPOS>ATOM
      1  C1       -17.7520   43.5290   -2.9070 C.3   1269  LAT1269     0.2695
      2  C2       -16.6260   43.6140   -1.8620 C.3   1269  LAT1269     0.2406
      3  C3       -15.2850   43.3340   -2.4930 C.3   1269  LAT1269     0.2198
      4  C4       -15.2900   42.1220   -3.3880 C.3   1269  LAT1269     0.2144
      5  C5       -16.4610   42.2440   -4.3780 C.3   1269  LAT1269     0.1835
      6  C6       -16.5000   41.0050   -5.2990 C.3   1269  LAT1269     0.2142
      7  O1       -19.0410   43.6580   -2.3090 O.3   1269  LAT1269    -0.3259
      8  O2       -16.5650   44.9790   -1.3110 O.3   1269  LAT1269    -0.2149
      9  O3       -14.3550   43.1450   -1.4130 O.3   1269  LAT1269    -0.2174
     10  O4       -15.4540   40.9340   -2.5960 O.3   1269  LAT1269    -0.2176
     11  O5       -17.6940   42.3020   -3.6740 O.3   1269  LAT1269    -0.3256
     12  O6       -17.7890   40.9560   -5.9820 O.3   1269  LAT1269    -0.2176
     13  C4'      -20.0030   44.3270   -3.2170 C.3   1269  LAT1269     0.1769
@<TRIPOS>BOND
     1    12     6    1
     2     6     5    1
     3     5    11    1
     4     5     4    1
     5    11     1    1
     6     4    10    1
     7     4     3    1
     8    13     7    1
     9     1     7    1
    10     1     2    1
    11     3     2    1
    12     3     9    1
    13     2     8    1
