@<TRIPOS>MOLECULE
4a41_GAL_A_1.pdb
 12 12 0 0 0
SMALL
GASTEIGER

@<TRIPOS>ATOM
      1  C1        33.5470   29.8100   22.2940 C.3   2495  GAL2495     0.3024
      2  C2        32.7810   31.1190   22.2540 C.3   2495  GAL2495     0.2434
      3  C3        31.2880   30.7820   22.1510 C.3   2495  GAL2495     0.2199
      4  C4        31.0470   29.8650   20.9590 C.3   2495  GAL2495     0.2144
      5  C5        31.9310   28.6200   21.0850 C.3   2495  GAL2495     0.1836
      6  C6        31.7380   27.6620   19.9110 C.3   2495  GAL2495     0.2142
      7  O1        34.9120   30.1230   22.3030 O.3   2495  GAL2495    -0.1869
      8  O2        33.0630   31.9230   23.3980 O.3   2495  GAL2495    -0.2148
      9  O3        30.5740   32.0090   22.0670 O.3   2495  GAL2495    -0.2174
     10  O4        31.3620   30.5760   19.7440 O.3   2495  GAL2495    -0.2176
     11  O5        33.2690   29.0790   21.1120 O.3   2495  GAL2495    -0.3236
     12  O6        32.4530   26.4420   20.1080 O.3   2495  GAL2495    -0.2176
@<TRIPOS>BOND
     1    10     4    1
     2     6    12    1
     3     6     5    1
     4     4     5    1
     5     4     3    1
     6     5    11    1
     7    11     1    1
     8     9     3    1
     9     3     2    1
    10     2     1    1
    11     2     8    1
    12     1     7    1
