@<TRIPOS>MOLECULE
4a44_TNR_A_1.pdb
 21 21 0 0 0
SMALL
GASTEIGER

@<TRIPOS>ATOM
      1  OXT        2.2120   -3.6860    6.9910 O.co2 2494  TNR2494    -0.2440
      2  C          1.3940   -2.7510    7.0110 C.2   2494  TNR2494     0.3844
      3  O          1.6110   -1.6120    7.4560 O.co2 2494  TNR2494    -0.2440
      4  CA        -0.0040   -3.0300    6.4450 C.3   2494  TNR2494     0.2237
      5  N         -0.7010   -1.7620    6.1640 N.3   2494  TNR2494    -0.1181
      6  CB         0.1490   -3.8290    5.1550 C.3   2494  TNR2494     0.1753
      7  O1         0.9230   -2.9580    4.2950 O.3   2494  TNR2494    -0.3270
      8  C1         1.4460   -3.6800    3.1650 C.3   2494  TNR2494     0.2586
      9  C2         2.5340   -2.7910    2.5110 C.3   2494  TNR2494     0.1842
     10  N2         3.5820   -2.4550    3.4650 N.am  2494  TNR2494    -0.1992
     11  C7         4.6920   -3.1720    3.6090 C.2   2494  TNR2494     0.2420
     12  C8         5.6720   -2.6530    4.6560 C.3   2494  TNR2494     0.0964
     13  O7         4.9360   -4.1910    2.9560 O.2   2494  TNR2494    -0.2733
     14  C3         1.8850   -1.4970    1.9840 C.3   2494  TNR2494     0.2094
     15  O3         2.8830   -0.6780    1.3620 O.3   2494  TNR2494    -0.2183
     16  C4         0.7930   -1.8600    0.9660 C.3   2494  TNR2494     0.2136
     17  O4         1.3870   -2.5480   -0.1600 O.3   2494  TNR2494    -0.2176
     18  C5        -0.2710   -2.7290    1.6770 C.3   2494  TNR2494     0.1834
     19  O5         0.3540   -3.9460    2.2260 O.3   2494  TNR2494    -0.3262
     20  C6        -1.4250   -3.1880    0.7860 C.3   2494  TNR2494     0.2142
     21  O6        -2.3970   -3.8370    1.6240 O.3   2494  TNR2494    -0.2176
@<TRIPOS>BOND
     1    17    16    1
     2    20    21    1
     3    20    18    1
     4    16    18    1
     5    16    14    1
     6    15    14    1
     7    18    19    1
     8    14     9    1
     9    19     8    1
    10     9     8    1
    11     9    10    1
    12    13    11    2
    13     8     7    1
    14    10    11   am
    15    11    12    1
    16     7     6    1
    17     6     4    1
    18     5     4    1
    19     4     2    1
    20     1     2   ar
    21     2     3   ar
