@<TRIPOS>MOLECULE
4a45_NGA_A_1.pdb
 14 14 0 0 0
SMALL
GASTEIGER

@<TRIPOS>ATOM
      1  C1       -10.3450    6.8150   -0.8820 C.3   2494  NGA2494     0.1665
      2  C2        -9.4710    7.7940   -1.6980 C.3   2494  NGA2494     0.1576
      3  C3       -10.1760    8.3800   -2.9370 C.3   2494  NGA2494     0.2069
      4  C4       -10.9160    7.2960   -3.7140 C.3   2494  NGA2494     0.2134
      5  C5       -11.8890    6.5680   -2.7810 C.3   2494  NGA2494     0.1809
      6  C6       -12.6590    5.4930   -3.5440 C.3   2494  NGA2494     0.2141
      7  C7        -7.7550    8.8310   -0.2700 C.2   2494  NGA2494     0.2420
      8  C8        -7.4230    9.9910    0.6200 C.3   2494  NGA2494     0.0964
      9  N2        -8.9750    8.8460   -0.8150 N.am  2494  NGA2494    -0.2019
     10  O3        -9.2420    9.0240   -3.8180 O.3   2494  NGA2494    -0.2184
     11  O4        -9.9720    6.3690   -4.2830 O.3   2494  NGA2494    -0.2176
     12  O5       -11.1780    5.9610   -1.6920 O.3   2494  NGA2494    -0.3489
     13  O6       -13.6250    4.8690   -2.6890 O.3   2494  NGA2494    -0.2176
     14  O7        -6.9510    7.9400   -0.4790 O.2   2494  NGA2494    -0.2733
@<TRIPOS>BOND
     1    11     4    1
     2    10     3    1
     3     4     3    1
     4     4     5    1
     5     6     5    1
     6     6    13    1
     7     3     2    1
     8     5    12    1
     9     2     1    1
    10     2     9    1
    11    12     1    1
    12     9     7   am
    13    14     7    2
    14     7     8    1
