@<TRIPOS>MOLECULE
4a4a_GAL_A_1.pdb
 11 11 0 0 0
SMALL
GASTEIGER

@<TRIPOS>ATOM
      1  C1       -16.0380   -0.3890  -12.6770 C.3   1913  GAL1913     0.3022
      2  C2       -16.7880    0.0570  -11.4060 C.3   1913  GAL1913     0.2409
      3  C3       -16.0180   -0.5150  -10.2070 C.3   1913  GAL1913     0.1899
      4  C4       -15.8560   -2.0430  -10.3740 C.3   1913  GAL1913     0.0681
      5  C5       -15.1890   -2.3680  -11.7230 C.3   1913  GAL1913     0.1534
      6  C6       -14.7770   -3.8560  -11.8730 C.3   1913  GAL1913     0.2116
      7  O4       -16.7490    0.1430  -13.7510 O.3   1913  GAL1913    -0.1869
      8  O2       -16.7540    1.4980  -11.3380 O.3   1913  GAL1913    -0.2149
      9  O3       -16.6380   -0.1400   -8.9700 O.3   1913  GAL1913    -0.2201
     10  O5       -15.9970   -1.8050  -12.7790 O.3   1913  GAL1913    -0.3263
     11  O6       -15.8930   -4.7180  -11.9580 O.3   1913  GAL1913    -0.2177
@<TRIPOS>BOND
     1     7     1    1
     2    10     1    1
     3    10     5    1
     4     1     2    1
     5    11     6    1
     6     6     5    1
     7     5     4    1
     8     2     8    1
     9     2     3    1
    10     4     3    1
    11     3     9    1
