@<TRIPOS>MOLECULE
4a4e_2MR_A_1.pdb
 33 32 0 0 0
SMALL
GASTEIGER

@<TRIPOS>ATOM
      1  N         16.2980    2.5720   -3.7600 N.4   1148  2MR1148     0.3871
      2  CA        16.3830    3.0400   -2.3830 C.3   1148  2MR1148     0.0205
      3  CB        16.0160    1.9050   -1.4240 C.3   1148  2MR1148    -0.0548
      4  CG        16.0080    2.2390    0.0670 C.3   1148  2MR1148    -0.0413
      5  CD        14.6910    2.8560    0.4800 C.3   1148  2MR1148    -0.0012
      6  NE        13.5720    1.9730    0.0960 N.3   1148  2MR1148    -0.2827
      7  CZ        12.3000    2.1390    0.4210 C.3   1148  2MR1148     0.1718
      8  NH1       11.9620    3.2210    1.1880 N.3   1148  2MR1148    -0.2857
      9  CQ1       10.6670    3.6770    1.7100 C.3   1148  2MR1148    -0.0129
     10  NH2       11.4220    1.2520   -0.0760 N.3   1148  2MR1148    -0.2857
     11  CQ2        9.9870    1.1520    0.0840 C.3   1148  2MR1148    -0.0129
     12  C         17.7900    3.5070   -2.1460 C.2   1148  2MR1148     0.3420
     13  O         17.9850    4.6890   -1.8160 O.co2 1148  2MR1148    -0.2483
     14  OXT       18.7200    2.7080   -2.3750 O.co2 1148  2MR1148    -0.2483
     15  H         17.0080    1.8230   -3.8840 H     1148  2MR1148    -0.0889
     16  H2        16.5340    3.3460   -4.4120 H     1148  2MR1148    -0.0889
     17  H3        15.3640    2.1820   -4.0220 H     1148  2MR1148    -0.0889
     18  HA        15.7110    3.8730   -2.2490 H     1148  2MR1148     0.0198
     19  HB2       16.6240    1.0330   -1.6040 H     1148  2MR1148     0.0255
     20  HB3       14.9760    1.7070   -1.6490 H     1148  2MR1148     0.0255
     21  HG2       16.8000    2.9440    0.2690 H     1148  2MR1148     0.0277
     22  HG3       16.1660    1.3400    0.6420 H     1148  2MR1148     0.0277
     23  HD2       14.5700    3.8090   -0.0100 H     1148  2MR1148     0.0425
     24  HD3       14.6870    2.9910    1.5520 H     1148  2MR1148     0.0425
     25  HH1       12.6840    3.8490    1.4810 H     1148  2MR1148     0.1247
     26  HH2       11.7340    0.5050   -0.6600 H     1148  2MR1148     0.1247
     27 HQ11       10.8410    4.4660    2.4260 H     1148  2MR1148     0.0389
     28 HQ12       10.0480    4.0430    0.9040 H     1148  2MR1148     0.0389
     29 HQ13       10.1770    2.8550    2.2110 H     1148  2MR1148     0.0389
     30 HQ21        9.5980    0.4380   -0.6270 H     1148  2MR1148     0.0389
     31 HQ22        9.7590    0.8170    1.0840 H     1148  2MR1148     0.0389
     32 HQ23        9.5310    2.1150   -0.0940 H     1148  2MR1148     0.0389
     33  HE        13.8400    1.1880   -0.4270 H     1148  2MR1148     0.1250
@<TRIPOS>BOND
     1    16     1    1
     2    17     1    1
     3    15     1    1
     4     1     2    1
     5     2    18    1
     6     2    12    1
     7     2     3    1
     8    14    12   ar
     9    12    13   ar
    10    20     3    1
    11    19     3    1
    12     3     4    1
    13    26    10    1
    14    30    11    1
    15    33     6    1
    16    32    11    1
    17    10    11    1
    18    10     7    1
    19    23     5    1
    20     4    21    1
    21     4     5    1
    22     4    22    1
    23    11    31    1
    24     6     7    1
    25     6     5    1
    26     7     8    1
    27     5    24    1
    28    28     9    1
    29     8    25    1
    30     8     9    1
    31     9    29    1
    32     9    27    1
