@<TRIPOS>MOLECULE
4a4f_2MR_A_1.pdb
 33 32 0 0 0
SMALL
GASTEIGER

@<TRIPOS>ATOM
      1  N        -17.1230   -5.3870   -0.2440 N.4   1129  2MR1129     0.3871
      2  CA       -17.1340   -4.3330    0.7550 C.3   1129  2MR1129     0.0205
      3  CB       -15.7360   -4.1480    1.3420 C.3   1129  2MR1129    -0.0548
      4  CG       -15.6570   -3.0910    2.4030 C.3   1129  2MR1129    -0.0413
      5  CD       -14.2720   -2.9650    2.9600 C.3   1129  2MR1129    -0.0012
      6  NE       -13.3350   -2.5270    1.9390 N.3   1129  2MR1129    -0.2827
      7  CZ       -12.0900   -2.2020    2.1590 C.3   1129  2MR1129     0.1718
      8  NH1      -11.6150   -2.2760    3.4440 N.3   1129  2MR1129    -0.2857
      9  CQ1      -10.2910   -1.9820    4.0090 C.3   1129  2MR1129    -0.0129
     10  NH2      -11.3460   -1.8380    1.0880 N.3   1129  2MR1129    -0.2857
     11  CQ2       -9.9530   -1.4230    0.9840 C.3   1129  2MR1129    -0.0129
     12  C        -17.5950   -3.0650    0.0980 C.2   1129  2MR1129     0.3420
     13  O        -18.6220   -2.5000    0.5200 O.co2 1129  2MR1129    -0.2483
     14  OXT      -16.9460   -2.6340   -0.8690 O.co2 1129  2MR1129    -0.2483
     15  H        -18.0860   -5.5270   -0.6110 H     1129  2MR1129    -0.0889
     16  H2       -16.7630   -6.2860    0.1310 H     1129  2MR1129    -0.0889
     17  H3       -16.5290   -5.0870   -1.0420 H     1129  2MR1129    -0.0889
     18  HA       -17.8290   -4.5830    1.5410 H     1129  2MR1129     0.0198
     19  HB2      -15.0700   -3.8440    0.5500 H     1129  2MR1129     0.0255
     20  HB3      -15.3820   -5.0740    1.7650 H     1129  2MR1129     0.0255
     21  HG2      -16.3520   -3.3250    3.1910 H     1129  2MR1129     0.0277
     22  HG3      -15.8690   -2.1560    1.9040 H     1129  2MR1129     0.0277
     23  HD2      -13.9530   -3.9230    3.3410 H     1129  2MR1129     0.0425
     24  HD3      -14.2740   -2.2330    3.7550 H     1129  2MR1129     0.0425
     25  HH1      -12.2320   -2.5950    4.1670 H     1129  2MR1129     0.1247
     26  HH2      -11.7610   -1.8510    0.1780 H     1129  2MR1129     0.1247
     27 HQ11      -10.0960   -0.9230    3.9240 H     1129  2MR1129     0.0389
     28 HQ12      -10.2790   -2.2650    5.0510 H     1129  2MR1129     0.0389
     29 HQ13       -9.5310   -2.5350    3.4740 H     1129  2MR1129     0.0389
     30 HQ21       -9.3120   -2.2720    1.1740 H     1129  2MR1129     0.0389
     31 HQ22       -9.7630   -1.0520   -0.0110 H     1129  2MR1129     0.0389
     32 HQ23       -9.7480   -0.6470    1.7060 H     1129  2MR1129     0.0389
     33  HE       -13.6960   -2.4800    1.0250 H     1129  2MR1129     0.1250
@<TRIPOS>BOND
     1    17     1    1
     2    14    12   ar
     3    15     1    1
     4     1    16    1
     5     1     2    1
     6    31    11    1
     7    12    13   ar
     8    12     2    1
     9    26    10    1
    10    19     3    1
    11     2     3    1
    12     2    18    1
    13    11    10    1
    14    11    30    1
    15    11    32    1
    16    33     6    1
    17    10     7    1
    18     3    20    1
    19     3     4    1
    20    22     4    1
    21     6     7    1
    22     6     5    1
    23     7     8    1
    24     4     5    1
    25     4    21    1
    26     5    23    1
    27     5    24    1
    28     8     9    1
    29     8    25    1
    30    29     9    1
    31    27     9    1
    32     9    28    1
