@<TRIPOS>MOLECULE
4a4g_DA2_A_1.pdb
 33 32 0 0 0
SMALL
GASTEIGER

@<TRIPOS>ATOM
      1  C1         9.7290   -1.5210    1.8900 C.3   1148  DA21148     0.0557
      2  C2        10.0350   -3.6920    0.7170 C.3   1148  DA21148     0.0557
      3  N         13.8110   -8.0090   -0.9830 N.4   1148  DA21148     0.3871
      4  CA        14.3100   -7.4700    0.2670 C.3   1148  DA21148     0.0206
      5  CB        13.9870   -5.9690    0.3680 C.3   1148  DA21148    -0.0531
      6  CG        14.3010   -5.3420    1.7210 C.3   1148  DA21148    -0.0232
      7  CD        13.9780   -3.8640    1.7320 C.3   1148  DA21148     0.0645
      8  NE        12.5680   -3.6490    1.4650 N.pl3 1148  DA21148    -0.2785
      9  CZ        11.8380   -2.6250    1.8470 C.cat 1148  DA21148     0.3452
     10  NH2       12.3350   -1.6400    2.5440 N.pl3 1148  DA21148    -0.2916
     11  NH1       10.5860   -2.6100    1.5060 N.pl3 1148  DA21148    -0.2705
     12  C         13.6600   -8.2320    1.3850 C.2   1148  DA21148     0.3420
     13  OA1       14.3620   -8.8570    2.1840 O.co2 1148  DA21148    -0.2483
     14  OA2       12.4300   -8.2790    1.4220 O.co2 1148  DA21148    -0.2483
     15 HC11        9.9760   -0.6450    1.3080 H     1148  DA21148     0.0619
     16 HC12        8.6950   -1.7870    1.7240 H     1148  DA21148     0.0619
     17 HC13        9.8760   -1.3050    2.9390 H     1148  DA21148     0.0619
     18 HC21       10.1370   -4.6220    1.2560 H     1148  DA21148     0.0619
     19 HC22        8.9920   -3.5030    0.5120 H     1148  DA21148     0.0619
     20 HC23       10.5750   -3.7550   -0.2180 H     1148  DA21148     0.0619
     21  HN1       13.9970   -9.0310   -1.0030 H     1148  DA21148    -0.0889
     22  HN2       14.2780   -7.5740   -1.8000 H     1148  DA21148    -0.0889
     23  H3        12.7800   -7.8650   -1.0520 H     1148  DA21148    -0.0889
     24  HCA       15.3790   -7.6200    0.3080 H     1148  DA21148     0.0198
     25 HCB1       12.9350   -5.8340    0.1700 H     1148  DA21148     0.0255
     26 HCB2       14.5490   -5.4360   -0.3830 H     1148  DA21148     0.0255
     27 HCG1       15.3410   -5.4890    1.9660 H     1148  DA21148     0.0295
     28 HCG2       13.6660   -5.8150    2.4580 H     1148  DA21148     0.0295
     29 HCD1       14.5440   -3.3740    0.9550 H     1148  DA21148     0.0655
     30 HCD2       14.2170   -3.4440    2.6960 H     1148  DA21148     0.0655
     31  HNE       12.1040   -4.3460    0.9570 H     1148  DA21148     0.2578
     32  HH1       11.7280   -0.8920    2.8070 H     1148  DA21148     0.2546
     33 HNH2       13.2950   -1.6010    2.8310 H     1148  DA21148     0.2546
@<TRIPOS>BOND
     1    22     3    1
     2    23     3    1
     3    21     3    1
     4     3     4    1
     5    26     5    1
     6    20     2    1
     7    25     5    1
     8     4    24    1
     9     4     5    1
    10     4    12    1
    11     5     6    1
    12    19     2    1
    13     2    18    1
    14     2    11    1
    15    29     7    1
    16    31     8    1
    17    15     1    1
    18    12    14   ar
    19    12    13   ar
    20     8     7    1
    21     8     9    1
    22    11     9    1
    23    11     1    1
    24     6     7    1
    25     6    27    1
    26     6    28    1
    27    16     1    1
    28     7    30    1
    29     9    10    2
    30     1    17    1
    31    10    32    1
    32    10    33    1
