@<TRIPOS>MOLECULE
4a4h_DA2_A_1.pdb
 33 32 0 0 0
SMALL
GASTEIGER

@<TRIPOS>ATOM
      1  C1        -9.8610   -2.0020   -0.7750 C.3   1129  DA21129     0.0557
      2  C2       -10.1980   -3.6530    1.0790 C.3   1129  DA21129     0.0557
      3  N        -15.8920   -4.7610    3.9600 N.4   1129  DA21129     0.3871
      4  CA       -15.8380   -4.7810    2.5130 C.3   1129  DA21129     0.0206
      5  CB       -14.5900   -5.5200    2.0310 C.3   1129  DA21129    -0.0531
      6  CG       -14.4820   -5.5880    0.5200 C.3   1129  DA21129    -0.0232
      7  CD       -14.0990   -4.2550   -0.0840 C.3   1129  DA21129     0.0645
      8  NE       -12.7120   -3.9360    0.2170 N.pl3 1129  DA21129    -0.2785
      9  CZ       -11.9450   -3.0950   -0.4500 C.cat 1129  DA21129     0.3452
     10  NH2      -12.3920   -2.4410   -1.4880 N.pl3 1129  DA21129    -0.2916
     11  NH1      -10.7250   -2.9170   -0.0630 N.pl3 1129  DA21129    -0.2705
     12  C        -17.0590   -5.4960    2.0310 C.2   1129  DA21129     0.3420
     13  OA1      -17.8600   -4.9050    1.2910 O.co2 1129  DA21129    -0.2483
     14  OA2      -17.2470   -6.6420    2.4260 O.co2 1129  DA21129    -0.2483
     15  HN1      -15.8740   -5.7250    4.3440 H     1129  DA21129    -0.0889
     16  HN2      -16.7990   -4.3450    4.2500 H     1129  DA21129    -0.0889
     17  HCA      -15.8330   -3.7770    2.1210 H     1129  DA21129     0.0198
     18 HCB1      -14.5880   -6.5220    2.4300 H     1129  DA21129     0.0255
     19 HCB2      -13.7300   -4.9740    2.3930 H     1129  DA21129     0.0255
     20 HCG1      -15.4370   -5.8940    0.1220 H     1129  DA21129     0.0295
     21 HCG2      -13.7200   -6.3050    0.2570 H     1129  DA21129     0.0295
     22 HCD1      -14.7310   -3.4780    0.3210 H     1129  DA21129     0.0655
     23 HCD2      -14.2250   -4.3060   -1.1550 H     1129  DA21129     0.0655
     24  HNE      -12.2960   -4.3920    0.9790 H     1129  DA21129     0.2578
     25  HH1      -11.7650   -1.8110   -1.9450 H     1129  DA21129     0.2546
     26  H3       -15.1390   -4.2000    4.4040 H     1129  DA21129    -0.0889
     27 HNH2      -13.3260   -2.5290   -1.8420 H     1129  DA21129     0.2546
     28 HC11       -8.8700   -2.0180   -0.3430 H     1129  DA21129     0.0619
     29 HC12       -9.8060   -2.2890   -1.8150 H     1129  DA21129     0.0619
     30 HC13      -10.2650   -1.0030   -0.7020 H     1129  DA21129     0.0619
     31 HC21      -10.7560   -3.3860    1.9630 H     1129  DA21129     0.0619
     32 HC22      -10.2850   -4.7140    0.8970 H     1129  DA21129     0.0619
     33 HC23       -9.1580   -3.4010    1.2230 H     1129  DA21129     0.0619
@<TRIPOS>BOND
     1    25    10    1
     2    27    10    1
     3    29     1    1
     4    10     9    2
     5    23     7    1
     6     1    30    1
     7     1    28    1
     8     1    11    1
     9     9    11    1
    10     9     8    1
    11     7     8    1
    12     7    22    1
    13     7     6    1
    14    11     2    1
    15    20     6    1
    16     8    24    1
    17    21     6    1
    18     6     5    1
    19    32     2    1
    20     2    33    1
    21     2    31    1
    22    13    12   ar
    23    12    14   ar
    24    12     4    1
    25     5    19    1
    26     5    18    1
    27     5     4    1
    28    17     4    1
    29     4     3    1
    30     3    16    1
    31     3    15    1
    32     3    26    1
