@<TRIPOS>MOLECULE
4a4l_939_A_1.pdb
 34 37 0 0 0
SMALL
GASTEIGER

@<TRIPOS>ATOM
      1  N1        10.8510   42.6060    8.2990 N.2   1331  9391331    -0.1683
      2  C2        11.0680   43.8630    8.5380 C.1   1331  9391331     0.1698
      3  N3        10.5730   44.4700    9.7170 N.2   1331  9391331    -0.3346
      4  C4         9.8970   43.8090   10.5830 C.2   1331  9391331     0.1614
      5  C5         9.6380   42.3820   10.3300 C.2   1331  9391331     0.0560
      6  C6        10.1180   41.8190    9.2090 C.2   1331  9391331     0.1145
      7  N7        11.7960   44.6080    7.5960 N.pl3 1331  9391331    -0.1326
      8  C8         9.3730   44.4990   11.7950 C.ar  1331  9391331     0.0911
      9  N9         9.7750   45.7710   12.3000 N.ar  1331  9391331    -0.3219
     10  C10        9.0270   46.0700   13.4310 C.ar  1331  9391331     0.0806
     11  C11        8.2040   45.0390   13.6120 C.ar  1331  9391331     0.0753
     12  C12        8.4110   44.0230   12.5790 C.ar  1331  9391331     0.0259
     13  C13        7.2160   44.9430   14.6920 C.2   1331  9391331     0.2857
     14  N14        6.6430   46.0910   15.1990 N.am  1331  9391331    -0.0837
     15  O15        6.8630   43.8470   15.1310 O.2   1331  9391331    -0.2666
     16  C16       12.0480   46.0210    7.6180 C.ar  1331  9391331     0.1179
     17  C17       13.2420   46.4100    7.1480 C.ar  1331  9391331     0.1628
     18  C18       13.5890   47.8830    7.1240 C.ar  1331  9391331     0.0398
     19  C19       12.7110   48.8030    7.5670 C.ar  1331  9391331     0.0177
     20  C20       11.3810   48.3940    8.0920 C.ar  1331  9391331     0.0495
     21  C21       11.0650   47.0500    8.1140 C.ar  1331  9391331     0.0349
     22  O22       14.1150   45.3560    6.6810 O.3   1331  9391331    -0.4031
     23  C23       14.7760   45.5580    5.3940 C.3   1331  9391331     0.5753
     24  F24       15.7880   46.4670    5.5190 F     1331  9391331    -0.1328
     25  F25       13.8890   45.9950    4.4190 F     1331  9391331    -0.1328
     26  F26       15.3100   44.3680    4.9800 F     1331  9391331    -0.1328
     27  C27       10.7810   46.6490   11.7570 C.3   1331  9391331     0.1305
     28  N28       10.4600   49.4150    8.5480 N.pl3 1331  9391331    -0.3046
     29  C29        9.0080   49.2410    8.3050 C.3   1331  9391331     0.1081
     30  C30        8.1160   50.0890    9.2430 C.3   1331  9391331     0.0938
     31  N31        8.6480   51.4830    9.4130 N.3   1331  9391331    -0.2686
     32  C32        9.9730   51.4140   10.0520 C.3   1331  9391331     0.0938
     33  C33       11.0010   50.6370    9.1780 C.3   1331  9391331     0.1081
     34  C34        7.7460   52.2580   10.2880 C.3   1331  9391331     0.0897
@<TRIPOS>BOND
     1    25    23    1
     2    26    23    1
     3    23    24    1
     4    23    22    1
     5    22    17    1
     6    18    17   ar
     7    18    19   ar
     8    17    16   ar
     9    19    20   ar
    10     7    16    1
    11     7     2    1
    12    16    21   ar
    13    20    21   ar
    14    20    28    1
    15     1     2    2
    16     1     6    1
    17    29    28    1
    18    29    30    1
    19     2     3    2
    20    28    33    1
    21    33    32    1
    22     6     5    2
    23    30    31    1
    24    31    32    1
    25    31    34    1
    26     3     4    2
    27     5     4    1
    28     4     8    1
    29    27     9    1
    30     8     9   ar
    31     8    12   ar
    32     9    10   ar
    33    12    11   ar
    34    10    11   ar
    35    11    13    1
    36    13    15    2
    37    13    14   am
