@<TRIPOS>MOLECULE
4a4m_RET_A_1.pdb
 20 20 0 0 0
SMALL
GASTEIGER

@<TRIPOS>ATOM
      1  C1         7.3630   45.7390   34.1060 C.3   401  RET401      0.0149
      2  C2         6.1610   46.4720   34.7350 C.3   401  RET401      0.0041
      3  C3         5.8160   47.7390   33.9470 C.3   401  RET401      0.0046
      4  C4         7.0270   48.6640   33.8660 C.3   401  RET401      0.0214
      5  C5         8.3820   48.0180   33.7970 C.2   401  RET401     -0.0515
      6  C6         8.5710   46.6990   33.9750 C.2   401  RET401     -0.0483
      7  C7         9.9560   46.1740   33.8530 C.3   401  RET401      0.0467
      8  C8        10.9700   46.5250   34.6510 C.2   401  RET401     -0.0299
      9  C9        12.0010   45.5090   35.0450 C.2   401  RET401     -0.0435
     10  C10       12.9920   45.8890   35.8810 C.3   401  RET401      0.0477
     11  C11       13.9580   44.9170   36.3460 C.2   401  RET401     -0.0221
     12  C12       15.0200   45.3430   37.0040 C.2   401  RET401     -0.0088
     13  C13       15.8200   44.4110   37.8620 C.2   401  RET401     -0.0264
     14  C14       16.8140   44.8880   38.6320 C.2   401  RET401     -0.0300
     15  C15       17.3180   44.0690   39.7200 C.3   401  RET401      0.0304
     16  C16        6.9750   45.2840   32.7010 C.3   401  RET401      0.0040
     17  C17        7.6320   44.4830   34.9650 C.3   401  RET401      0.0040
     18  C18        9.5640   48.9070   33.5860 C.3   401  RET401      0.0257
     19  C19       11.9810   44.0690   34.5280 C.3   401  RET401      0.0264
     20  C20       15.4410   42.9630   38.0330 C.3   401  RET401      0.0307
@<TRIPOS>BOND
     1    16     1    1
     2    18     5    1
     3     5     4    1
     4     5     6    2
     5     7     6    1
     6     7     8    1
     7     4     3    1
     8     3     2    1
     9     6     1    1
    10     1     2    1
    11     1    17    1
    12    19     9    1
    13     8     9    2
    14     9    10    1
    15    10    11    1
    16    11    12    2
    17    12    13    1
    18    13    20    1
    19    13    14    2
    20    14    15    1
