@<TRIPOS>MOLECULE
4a4o_664_A_1.pdb
 36 40 0 0 0
SMALL
GASTEIGER

@<TRIPOS>ATOM
      1  N1        10.6770   42.6400    8.1170 N.2   1332  6641332    -0.1683
      2  C2        10.8770   44.0220    8.3330 C.1   1332  6641332     0.1698
      3  C6        10.0820   41.9210    9.0040 C.2   1332  6641332     0.1145
      4  N3        10.4630   44.5850    9.4260 N.2   1332  6641332    -0.3346
      5  N7        11.5380   44.7730    7.3180 N.pl3 1332  6641332    -0.1326
      6  C4         9.8000   43.8630   10.4470 C.2   1332  6641332     0.1614
      7  C5         9.6000   42.5410   10.2550 C.2   1332  6641332     0.0560
      8  C26        9.3260   44.5630   11.6970 C.ar  1332  6641332     0.0914
      9  C8        11.8620   46.1710    7.3880 C.ar  1332  6641332     0.1179
     10  C10       13.4550   48.0540    7.0520 C.ar  1332  6641332     0.0398
     11  C9        13.1030   46.5870    6.9840 C.ar  1332  6641332     0.1628
     12  C11       12.5550   48.9470    7.5030 C.ar  1332  6641332     0.0177
     13  C13       10.8810   47.1720    7.8840 C.ar  1332  6641332     0.0349
     14  C12       11.1980   48.4970    7.9410 C.ar  1332  6641332     0.0495
     15  O14       14.0210   45.5940    6.5010 O.3   1332  6641332    -0.4031
     16  N15       10.2500   49.4520    8.4050 N.pl3 1332  6641332    -0.3046
     17  C16        8.7950   49.1770    8.2200 C.3   1332  6641332     0.1081
     18  C17        7.9090   49.9670    9.2000 C.3   1332  6641332     0.0938
     19  N18        8.4090   51.3520    9.3020 N.3   1332  6641332    -0.2686
     20  C19        9.7140   51.3240    9.9620 C.3   1332  6641332     0.0938
     21  C20       10.7470   50.6960    9.0260 C.3   1332  6641332     0.1081
     22  C21        7.4900   52.1480   10.1110 C.3   1332  6641332     0.0897
     23  C22       14.3900   45.6570    5.0820 C.3   1332  6641332     0.5753
     24  F23       15.3110   46.6730    4.8560 F     1332  6641332    -0.1328
     25  F24       13.2590   45.8580    4.2880 F     1332  6641332    -0.1328
     26  F25       14.9710   44.4510    4.7260 F     1332  6641332    -0.1328
     27  N27        9.7520   45.8590   12.1770 N.ar  1332  6641332    -0.3259
     28  C28        8.4020   44.0700   12.5580 C.ar  1332  6641332     0.0326
     29  C29        8.2460   45.0960   13.6040 C.ar  1332  6641332     0.0960
     30  C30        9.0500   46.1270   13.3500 C.ar  1332  6641332     0.0501
     31  C31        9.1450   47.3680   14.2190 C.3   1332  6641332     0.0717
     32  C32        8.0320   47.3960   15.3420 C.3   1332  6641332     0.1441
     33  N33        7.4530   46.0730   15.6860 N.2   1332  6641332    -0.2021
     34  C34        7.3580   45.0780   14.7740 C.1   1332  6641332     0.1512
     35  O35        6.5320   44.1890   14.9290 O.2   1332  6641332    -0.2222
     36  C36       10.7230   46.7590   11.5760 C.3   1332  6641332     0.1302
@<TRIPOS>BOND
     1    25    23    1
     2    26    23    1
     3    24    23    1
     4    23    15    1
     5    15    11    1
     6    11    10   ar
     7    11     9   ar
     8    10    12   ar
     9     5     9    1
    10     5     2    1
    11     9    13   ar
    12    12    14   ar
    13    13    14   ar
    14    14    16    1
    15     1     2    2
    16     1     3    1
    17    17    16    1
    18    17    18    1
    19     2     4    2
    20    16    21    1
    21     3     7    2
    22    21    20    1
    23    18    19    1
    24    19    20    1
    25    19    22    1
    26     4     6    2
    27     7     6    1
    28     6     8    1
    29    36    27    1
    30     8    27   ar
    31     8    28   ar
    32    27    30   ar
    33    28    29   ar
    34    30    29   ar
    35    30    31    1
    36    29    34    1
    37    31    32    1
    38    34    35    2
    39    34    33    2
    40    32    33    1
