@<TRIPOS>MOLECULE
4a4v_YFD_A_1.pdb
 22 22 0 0 0
SMALL
GASTEIGER

@<TRIPOS>ATOM
      1  CAA      -14.1320   27.8250  -50.8340 C.3   999  YFD999      0.0000
      2  CAJ      -15.0780   26.8200  -50.1640 C.3   999  YFD999      0.0000
      3  CAL      -14.9800   25.4570  -50.8580 C.3   999  YFD999      0.0003
      4  CAM      -15.9670   24.4090  -50.2920 C.3   999  YFD999      0.0047
      5  CAN      -15.6960   24.1030  -48.8150 C.3   999  YFD999      0.0268
      6  CAS      -16.1200   22.6970  -48.3480 C.ar  999  YFD999     -0.0097
      7  CAV      -17.4260   22.1850  -48.1920 C.ar  999  YFD999      0.1145
      8  CAQ      -18.6980   23.0130  -48.5230 C.2   999  YFD999      0.3905
      9  OAF      -19.8150   22.4370  -48.4500 O.co2 999  YFD999     -0.2404
     10  OAE      -18.5640   24.2240  -48.8240 O.co2 999  YFD999     -0.2404
     11  CAR      -17.6070   20.8700  -47.7330 C.ar  999  YFD999      0.2009
     12  OAG      -18.8740   20.3930  -47.6050 O.3   999  YFD999     -0.2866
     13  CAI      -15.0650   21.8640  -48.0050 C.ar  999  YFD999      0.0327
     14  CAT      -15.2630   20.5620  -47.5480 C.ar  999  YFD999      0.1378
     15  OAO      -14.1640   19.8250  -47.2530 O.3   999  YFD999     -0.4716
     16  CAB      -13.4960   19.4510  -48.4540 C.3   999  YFD999      0.2525
     17  CAU      -16.5450   20.0250  -47.3910 C.ar  999  YFD999      0.0552
     18  CAK      -16.8310   18.5900  -46.8740 C.3   999  YFD999      0.0580
     19  CAH      -16.2230   18.3330  -45.6270 C.2   999  YFD999     -0.0297
     20  CAP      -16.7700   17.9860  -44.3750 C.2   999  YFD999     -0.0475
     21  CAD      -15.8350   17.7030  -43.1710 C.3   999  YFD999      0.0260
     22  CAC      -18.3030   17.8630  -44.1520 C.3   999  YFD999      0.0260
@<TRIPOS>BOND
     1     3     4    1
     2     3     2    1
     3     1     2    1
     4     4     5    1
     5    10     8   ar
     6     5     6    1
     7     8     9   ar
     8     8     7    1
     9    16    15    1
    10     6     7   ar
    11     6    13   ar
    12     7    11   ar
    13    13    14   ar
    14    11    12    1
    15    11    17   ar
    16    14    17   ar
    17    14    15    1
    18    17    18    1
    19    18    19    1
    20    19    20    2
    21    20    22    1
    22    20    21    1
