@<TRIPOS>MOLECULE
4a4w_YFB_A_1.pdb
 30 31 0 0 0
SMALL
GASTEIGER

@<TRIPOS>ATOM
      1  CAB      -10.5160   15.8320  -13.1880 C.3   999  YFB999      0.0260
      2  CAV      -11.9000   15.8090  -13.8430 C.2   999  YFB999     -0.0478
      3  CAC      -12.1460   14.6730  -14.8480 C.3   999  YFB999      0.0260
      4  CAH      -12.8510   16.8110  -13.5600 C.2   999  YFB999     -0.0342
      5  CAP      -14.1780   16.9410  -14.0050 C.3   999  YFB999      0.0297
      6  CAR      -14.8900   18.1340  -13.3510 C.3   999  YFB999      0.0264
      7  CAW      -16.4000   17.9090  -13.0740 C.2   999  YFB999     -0.0475
      8  CAD      -17.3380   17.5290  -14.2490 C.3   999  YFB999      0.0260
      9  CAI      -16.9190   18.0270  -11.7750 C.2   999  YFB999     -0.0297
     10  CAQ      -16.2630   18.3270  -10.5670 C.3   999  YFB999      0.0580
     11  CBC      -16.5680   19.7680  -10.0800 C.ar  999  YFB999      0.0552
     12  CBB      -17.8640   20.2670   -9.9570 C.ar  999  YFB999      0.1378
     13  CAO      -18.1170   21.5650   -9.5230 C.ar  999  YFB999      0.0327
     14  OAU      -18.9230   19.4830  -10.2640 O.3   999  YFB999     -0.4716
     15  CAA      -19.8240   19.4470   -9.1470 C.3   999  YFB999      0.2525
     16  CAZ      -15.5250   20.6440   -9.7260 C.ar  999  YFB999      0.2009
     17  OAG      -14.2290   20.2090   -9.8120 O.3   999  YFB999     -0.2866
     18  CBD      -15.7640   21.9550   -9.2890 C.ar  999  YFB999      0.1145
     19  CAX      -14.5460   22.8550   -8.9380 C.2   999  YFB999      0.3905
     20  OAF      -13.4020   22.3230   -8.9460 O.co2 999  YFB999     -0.2404
     21  OAE      -14.7560   24.0710   -8.6850 O.co2 999  YFB999     -0.2404
     22  CBA      -17.0840   22.4240   -9.1810 C.ar  999  YFB999     -0.0094
     23  CAT      -17.5210   23.8180   -8.7310 C.3   999  YFB999      0.0314
     24  CAS      -17.7520   23.8660   -7.2280 C.3   999  YFB999      0.0310
     25  CAY      -17.9220   25.3110   -6.7480 C.ar  999  YFB999     -0.0218
     26  CAM      -18.9480   26.1100   -7.2610 C.ar  999  YFB999     -0.0043
     27  CAK      -19.1080   27.4270   -6.8260 C.ar  999  YFB999     -0.0003
     28  CAJ      -18.2250   27.9350   -5.8680 C.ar  999  YFB999     -0.0000
     29  CAL      -17.2000   27.1370   -5.3480 C.ar  999  YFB999     -0.0003
     30  CAN      -17.0460   25.8210   -5.7900 C.ar  999  YFB999     -0.0043
@<TRIPOS>BOND
     1     3     2    1
     2     8     7    1
     3     5     4    1
     4     5     6    1
     5     2     4    2
     6     2     1    1
     7     6     7    1
     8     7     9    2
     9     9    10    1
    10    10    11    1
    11    14    12    1
    12    14    15    1
    13    11    12   ar
    14    11    16   ar
    15    12    13   ar
    16    17    16    1
    17    16    18   ar
    18    13    22   ar
    19    18    22   ar
    20    18    19    1
    21    22    23    1
    22    20    19   ar
    23    19    21   ar
    24    23    24    1
    25    26    27   ar
    26    26    25   ar
    27    24    25    1
    28    27    28   ar
    29    25    30   ar
    30    28    29   ar
    31    30    29   ar
