@<TRIPOS>MOLECULE
4a4x_JUP_A_1.pdb
 38 41 0 0 0
SMALL
GASTEIGER

@<TRIPOS>ATOM
      1  C01        1.2240  -11.2850   16.2510 C.3   1280  JUP1280     0.0523
      2  C02        1.8890  -10.7920   14.9790 C.3   1280  JUP1280     0.1882
      3  O03        2.9760   -9.9420   15.2640 O.3   1280  JUP1280    -0.4746
      4  C04        3.5980   -9.1700   14.2160 C.ar  1280  JUP1280     0.1433
      5  C05        2.8980   -8.8900   13.0130 C.ar  1280  JUP1280     0.0372
      6  C06        3.5500   -8.1440   11.9820 C.ar  1280  JUP1280     0.0058
      7  C07        2.8640   -7.8730   10.7770 C.ar  1280  JUP1280     0.0350
      8  C08        2.2650   -8.9380   10.0870 C.ar  1280  JUP1280     0.0049
      9  C09        1.5690   -8.6450    8.8940 C.ar  1280  JUP1280     0.0253
     10  C10        0.9680   -9.6480    8.1500 C.ar  1280  JUP1280     0.0307
     11  C11        0.4320   -9.6100    6.8680 C.ar  1280  JUP1280     0.0041
     12  C12       -0.1010  -10.7660    6.3910 C.ar  1280  JUP1280     0.0008
     13  C13       -0.7060  -10.9090    4.9660 C.3   1280  JUP1280     0.0997
     14  N14       -2.1260  -10.4630    4.8300 N.3   1280  JUP1280    -0.2665
     15  C15       -2.1770   -9.4200    3.8330 C.3   1280  JUP1280     0.0899
     16  C16       -2.9190  -11.6100    4.3570 C.3   1280  JUP1280     0.0899
     17  C17       -0.0600  -11.8900    7.2330 C.ar  1280  JUP1280     0.0325
     18  S18        0.7490  -11.2700    8.6110 S.2   1280  JUP1280    -0.0867
     19  C19        1.5100   -7.2860    8.4460 C.ar  1280  JUP1280     0.1009
     20  N20        2.0900   -6.2920    9.1310 N.ar  1280  JUP1280    -0.2259
     21  C21        2.7650   -6.5400   10.2860 C.ar  1280  JUP1280     0.1696
     22  N22        3.3890   -5.4350   10.9960 N.pl3 1280  JUP1280    -0.1072
     23  C23        4.8640   -7.6810   12.1690 C.ar  1280  JUP1280     0.0004
     24  C24        5.5420   -7.9430   13.3750 C.ar  1280  JUP1280     0.0077
     25  C25        4.9140   -8.6910   14.3890 C.ar  1280  JUP1280     0.0905
     26  C26        5.6360   -8.9640   15.6410 C.2   1280  JUP1280     0.2871
     27  N27        5.0290   -9.8180   16.6440 N.am  1280  JUP1280    -0.0836
     28  O28        6.7150   -8.4760   15.8100 O.2   1280  JUP1280    -0.2666
     29  C29        2.1380  -11.9040   13.9750 C.ar  1280  JUP1280     0.0211
     30  C30        3.3500  -12.6220   14.0180 C.ar  1280  JUP1280    -0.0009
     31  C31        3.6150  -13.6560   13.0940 C.ar  1280  JUP1280    -0.0002
     32  C32        2.6380  -13.9780   12.1330 C.ar  1280  JUP1280    -0.0001
     33  C33        1.3850  -13.2650   12.1100 C.ar  1280  JUP1280     0.0036
     34  C34        1.1370  -12.2410   13.0240 C.ar  1280  JUP1280     0.0708
     35  C35       -0.1850  -11.4830   12.9270 C.3   1280  JUP1280     0.4184
     36  F36       -0.8750  -11.4330   14.0880 F     1280  JUP1280    -0.1659
     37  F37        0.0310  -10.1920   12.5510 F     1280  JUP1280    -0.1659
     38  F38       -0.9080  -12.1140   12.0240 F     1280  JUP1280    -0.1659
@<TRIPOS>BOND
     1    15    14    1
     2    16    14    1
     3    14    13    1
     4    13    12    1
     5    12    11   ar
     6    12    17   ar
     7    11    10   ar
     8    17    18   ar
     9    10    18   ar
    10    10     9    1
    11    19     9   ar
    12    19    20   ar
    13     9     8   ar
    14    20    21   ar
    15     8     7   ar
    16    21     7   ar
    17    21    22    1
    18     7     6    1
    19     6    23   ar
    20     6     5   ar
    21    38    35    1
    22    33    32   ar
    23    33    34   ar
    24    32    31   ar
    25    23    24   ar
    26    37    35    1
    27    35    34    1
    28    35    36    1
    29     5     4   ar
    30    34    29   ar
    31    31    30   ar
    32    24    25   ar
    33    29    30   ar
    34    29     2    1
    35     4    25   ar
    36     4     3    1
    37    25    26    1
    38     2     3    1
    39     2     1    1
    40    26    28    2
    41    26    27   am
