@<TRIPOS>MOLECULE
4a4z_ANP_A_1.pdb
 31 33 0 0 0
SMALL
GASTEIGER

@<TRIPOS>ATOM
      1  PG        66.0760   17.4290   45.0240 P.3   2288  ANP2288     0.4884
      2  O1G       67.2200   17.4630   45.9760 O.3   2288  ANP2288    -0.1240
      3  O2G       66.5340   18.2270   43.8450 O.2   2288  ANP2288    -0.2331
      4  O3G       66.0890   16.0240   44.5210 O.3   2288  ANP2288    -0.1240
      5  PB        64.3740   19.5650   45.4840 P.3   2288  ANP2288     0.4669
      6  O1B       64.7940   20.0270   44.1230 O.2   2288  ANP2288    -0.2351
      7  O2B       65.2850   20.3610   46.3700 O.3   2288  ANP2288    -0.1253
      8  N3B       64.6270   17.9270   45.6650 N.3   2288  ANP2288    -0.0163
      9  PA        62.2290   19.7110   47.1430 P.3   2288  ANP2288     0.2220
     10  O1A       60.7230   19.6520   47.1130 O.2   2288  ANP2288    -0.5170
     11  O2A       62.6010   18.3190   47.5560 O.3   2288  ANP2288    -0.4370
     12  O3A       62.8700   19.9720   45.7390 O.3   2288  ANP2288    -0.2360
     13  O5'       62.6910   20.7980   48.1990 O.3   2288  ANP2288    -0.3111
     14  C5'       61.9510   21.9770   48.3130 C.3   2288  ANP2288     0.1813
     15  C4'       61.9380   22.4340   49.7610 C.3   2288  ANP2288     0.1821
     16  O4'       61.9220   23.8330   49.8220 O.3   2288  ANP2288    -0.3135
     17  C3'       60.7380   21.9440   50.4860 C.3   2288  ANP2288     0.2184
     18  O3'       61.0030   21.7710   51.8220 O.3   2288  ANP2288    -0.2174
     19  C2'       59.7580   23.0270   50.2800 C.3   2288  ANP2288     0.2570
     20  O2'       58.9820   23.1910   51.4080 O.3   2288  ANP2288    -0.2130
     21  C1'       60.5880   24.2230   50.0300 C.3   2288  ANP2288     0.3186
     22  N9        60.1190   24.9720   48.8710 N.pl3 2288  ANP2288    -0.1439
     23  C8        59.7090   24.4440   47.6530 C.3   2288  ANP2288     0.3377
     24  N7        59.3540   25.4880   46.8450 N.2   2288  ANP2288    -0.2095
     25  C5        59.5410   26.6930   47.5480 C.2   2288  ANP2288     0.2526
     26  C6        59.3460   28.0420   47.2260 C.2   2288  ANP2288     0.4393
     27  N6        58.8490   28.4250   45.9220 N.pl3 2288  ANP2288     0.2180
     28  N1        59.6320   28.9830   48.1600 N.2   2288  ANP2288     0.0021
     29  C2        60.0960   28.6370   49.3780 C.3   2288  ANP2288     0.5254
     30  N3        60.2940   27.3370   49.7170 N.2   2288  ANP2288    -0.0055
     31  C4        60.0290   26.3630   48.8370 C.2   2288  ANP2288     0.3518
@<TRIPOS>BOND
     1     3     1    2
     2     6     5    2
     3     4     1    1
     4     1     8    1
     5     1     2    1
     6     5     8    1
     7     5    12    1
     8     5     7    1
     9    12     9    1
    10    27    26    1
    11    24    25    2
    12    24    23    1
    13    10     9    2
    14     9    11    1
    15     9    13    1
    16    26    25    1
    17    26    28    2
    18    25    31    1
    19    23    22    1
    20    28    29    1
    21    13    14    1
    22    14    15    1
    23    31    22    1
    24    31    30    2
    25    22    21    1
    26    29    30    1
    27    15    16    1
    28    15    17    1
    29    16    21    1
    30    21    19    1
    31    19    17    1
    32    19    20    1
    33    17    18    1
