@<TRIPOS>MOLECULE
4a50_DQ7_A_1.pdb
 27 29 0 0 0
SMALL
GASTEIGER

@<TRIPOS>ATOM
      1  N          9.5750    5.7480  -21.1950 N.3   1368  DQ71368    -0.1208
      2  CA        10.2350    7.0660  -21.1920 C.3   1368  DQ71368     0.1944
      3  CB        11.5910    6.9730  -21.8840 C.3   1368  DQ71368     0.0316
      4  C         10.4690    7.4830  -19.7500 C.2   1368  DQ71368     0.3819
      5  OXT       10.6460    6.5570  -18.9160 O.co2 1368  DQ71368    -0.2441
      6  O         10.4540    8.7130  -19.5180 O.co2 1368  DQ71368    -0.2441
      7  CAM       14.2830    8.9320  -23.7700 C.ar  1368  DQ71368    -0.0037
      8  CAG       15.4640    9.4370  -23.2230 C.ar  1368  DQ71368    -0.0006
      9  CAD       16.2710    8.6090  -22.4500 C.ar  1368  DQ71368    -0.0043
     10  CAH       15.8940    7.2810  -22.2410 C.ar  1368  DQ71368    -0.0221
     11  CAN       14.7170    6.7710  -22.7890 C.ar  1368  DQ71368    -0.0079
     12  CAV       13.9160    7.5980  -23.5660 C.ar  1368  DQ71368    -0.0155
     13  CAO       13.3330    7.7100  -26.5160 C.ar  1368  DQ71368    -0.0037
     14  CAW       13.0920    8.3350  -27.7330 C.ar  1368  DQ71368    -0.0003
     15  CAP       11.8770    8.9670  -27.9620 C.ar  1368  DQ71368    -0.0000
     16  CAJ       10.8990    8.9820  -26.9720 C.ar  1368  DQ71368    -0.0003
     17  CAE       11.1350    8.3630  -25.7510 C.ar  1368  DQ71368    -0.0037
     18  CAI       12.3580    7.7440  -25.5310 C.ar  1368  DQ71368    -0.0152
     19  CAF       13.6560    4.9490  -25.0500 C.ar  1368  DQ71368    -0.0037
     20  CAL       13.5820    3.5870  -25.3350 C.ar  1368  DQ71368    -0.0003
     21  CAR       12.4100    2.8770  -25.0850 C.ar  1368  DQ71368    -0.0000
     22  CAX       11.3080    3.5270  -24.5390 C.ar  1368  DQ71368    -0.0003
     23  CAQ       11.3860    4.8870  -24.2460 C.ar  1368  DQ71368    -0.0037
     24  CAK       12.5620    5.5880  -24.4830 C.ar  1368  DQ71368    -0.0152
     25  CAZ       12.6070    7.0860  -24.1920 C.3   1368  DQ71368     0.0564
     26  CAA       16.7820    6.3780  -21.3900 C.3   1368  DQ71368     0.0310
     27  CAT       11.4380    7.4990  -23.3040 C.3   1368  DQ71368     0.0143
@<TRIPOS>BOND
     1    15    14   ar
     2    15    16   ar
     3    14    13   ar
     4    16    17   ar
     5    13    18   ar
     6    17    18   ar
     7    18    25    1
     8    20    21   ar
     9    20    19   ar
    10    21    22   ar
    11    19    24   ar
    12    22    23   ar
    13    24    23   ar
    14    24    25    1
    15    25    12    1
    16    25    27    1
    17     7    12   ar
    18     7     8   ar
    19    12    11   ar
    20    27     3    1
    21     8     9   ar
    22    11    10   ar
    23     9    10   ar
    24    10    26    1
    25     3     2    1
    26     1     2    1
    27     2     4    1
    28     4     6   ar
    29     4     5   ar
