@<TRIPOS>MOLECULE
4a50_DQ6_A_1.pdb
 27 29 0 0 0
SMALL
GASTEIGER

@<TRIPOS>ATOM
      1  CAA       17.0020    6.4490  -21.4200 C.3   1367  DQ61367     0.0310
      2  CAV       16.0530    7.3010  -22.2550 C.ar  1367  DQ61367    -0.0221
      3  CAR       14.8670    6.7420  -22.7280 C.ar  1367  DQ61367    -0.0079
      4  CAL       16.3840    8.6290  -22.5260 C.ar  1367  DQ61367    -0.0043
      5  CAK       15.5140    9.4030  -23.2900 C.ar  1367  DQ61367    -0.0006
      6  CAQ       14.3190    8.8480  -23.7550 C.ar  1367  DQ61367    -0.0037
      7  CAY       13.9990    7.5070  -23.5030 C.ar  1367  DQ61367    -0.0155
      8  CBA       12.6600    6.9340  -24.0310 C.3   1367  DQ61367     0.0564
      9  CAX       12.6170    5.4500  -24.4310 C.ar  1367  DQ61367    -0.0152
     10  CAO       11.4160    4.7470  -24.3130 C.ar  1367  DQ61367    -0.0037
     11  CAI       11.3210    3.4100  -24.6990 C.ar  1367  DQ61367    -0.0003
     12  CAF       12.4380    2.7720  -25.2320 C.ar  1367  DQ61367    -0.0000
     13  CAJ       13.6340    3.4760  -25.3700 C.ar  1367  DQ61367    -0.0003
     14  CAP       13.7200    4.8160  -24.9900 C.ar  1367  DQ61367    -0.0037
     15  CAT       11.6140    7.2090  -22.9450 C.3   1367  DQ61367     0.0143
     16  CB        12.1320    6.7850  -21.5750 C.3   1367  DQ61367     0.0316
     17  CA        11.0500    6.9250  -20.5150 C.3   1367  DQ61367     0.1944
     18  C         11.5590    6.2960  -19.1840 C.2   1367  DQ61367     0.3819
     19  OXT       11.6000    5.0320  -19.0960 O.co2 1367  DQ61367    -0.2441
     20  O         11.9420    7.0970  -18.2920 O.co2 1367  DQ61367    -0.2441
     21  N         10.7630    8.3670  -20.4110 N.3   1367  DQ61367    -0.1208
     22  CAW       12.2230    7.6390  -25.3130 C.ar  1367  DQ61367    -0.0152
     23  CAM       13.0940    7.7000  -26.3980 C.ar  1367  DQ61367    -0.0037
     24  CAG       12.7160    8.3560  -27.5660 C.ar  1367  DQ61367    -0.0003
     25  CAE       11.4470    8.9160  -27.6500 C.ar  1367  DQ61367    -0.0000
     26  CAH       10.5640    8.8300  -26.5740 C.ar  1367  DQ61367    -0.0003
     27  CAN       10.9450    8.1840  -25.4010 C.ar  1367  DQ61367    -0.0037
@<TRIPOS>BOND
     1    25    24   ar
     2    25    26   ar
     3    24    23   ar
     4    26    27   ar
     5    23    22   ar
     6    27    22   ar
     7    13    12   ar
     8    13    14   ar
     9    22     8    1
    10    12    11   ar
    11    14     9   ar
    12    11    10   ar
    13     9    10   ar
    14     9     8    1
    15     8     7    1
    16     8    15    1
    17     6     7   ar
    18     6     5   ar
    19     7     3   ar
    20     5     4   ar
    21    15    16    1
    22     3     2   ar
    23     4     2   ar
    24     2     1    1
    25    16    17    1
    26    17    21    1
    27    17    18    1
    28    18    19   ar
    29    18    20   ar
