@<TRIPOS>MOLECULE
4a50_ADP_A_1.pdb
 27 29 0 0 0
SMALL
GASTEIGER

@<TRIPOS>ATOM
      1  PB         8.4110   14.0990  -13.0660 P.3   600  ADP600      0.5373
      2  O1B        7.8300   13.3940  -11.8730 O.3   600  ADP600     -0.1143
      3  O2B        8.7640   15.5200  -12.8090 O.3   600  ADP600     -0.1143
      4  O3B        9.4120   13.2520  -13.8070 O.2   600  ADP600     -0.2221
      5  PA         6.8580   13.3210  -15.2770 P.3   600  ADP600      0.2231
      6  O1A        7.8420   13.7000  -16.3500 O.2   600  ADP600     -0.5169
      7  O2A        6.8730   11.8980  -14.8120 O.3   600  ADP600     -0.4370
      8  O3A        7.1850   14.3410  -14.0740 O.3   600  ADP600     -0.2261
      9  O5'        5.3590   13.6760  -15.7550 O.3   600  ADP600     -0.3111
     10  C5'        4.3060   13.1740  -14.9470 C.3   600  ADP600      0.1813
     11  C4'        3.0690   12.9060  -15.7890 C.3   600  ADP600      0.1821
     12  O4'        2.4720   14.0990  -16.3110 O.3   600  ADP600     -0.3135
     13  C3'        3.3340   12.0120  -16.9920 C.3   600  ADP600      0.2184
     14  O3'        2.1670   11.1940  -17.1910 O.3   600  ADP600     -0.2174
     15  C2'        3.4250   12.9960  -18.1300 C.3   600  ADP600      0.2570
     16  O2'        2.9650   12.4040  -19.3420 O.3   600  ADP600     -0.2130
     17  C1'        2.4750   14.1060  -17.7350 C.3   600  ADP600      0.3186
     18  N9         3.1080   15.3490  -18.2140 N.pl3 600  ADP600     -0.1439
     19  C8         4.1640   15.9310  -17.6230 C.3   600  ADP600      0.3377
     20  N7         4.5450   17.0470  -18.2910 N.2   600  ADP600     -0.2095
     21  C5         3.7310   17.1500  -19.3520 C.2   600  ADP600      0.2526
     22  C6         3.5880   18.1140  -20.4530 C.2   600  ADP600      0.4393
     23  N6         4.4500   19.1430  -20.4920 N.pl3 600  ADP600      0.2180
     24  N1         2.5940   17.9160  -21.3530 N.2   600  ADP600      0.0021
     25  C2         1.7630   16.8470  -21.2670 C.3   600  ADP600      0.5254
     26  N3         1.8210   15.9200  -20.2920 N.2   600  ADP600     -0.0055
     27  C4         2.7630   16.0300  -19.3090 C.2   600  ADP600      0.3518
@<TRIPOS>BOND
     1    24    25    1
     2    24    22    2
     3    25    26    1
     4    23    22    1
     5    22    21    1
     6    26    27    2
     7    21    27    1
     8    21    20    2
     9    16    15    1
    10    27    18    1
    11    20    19    1
    12    18    17    1
    13    18    19    1
    14    15    17    1
    15    15    13    1
    16    17    12    1
    17    14    13    1
    18    13    11    1
    19     6     5    2
    20    12    11    1
    21    11    10    1
    22     9     5    1
    23     9    10    1
    24     5     7    1
    25     5     8    1
    26     8     1    1
    27     4     1    2
    28     1     3    1
    29     1     2    1
