@<TRIPOS>MOLECULE
4a51_DQ8_A_1.pdb
 26 28 0 0 0
SMALL
GASTEIGER

@<TRIPOS>ATOM
      1  CAA      -14.0830  -45.1680   25.1790 C.3   801  DQ8801      0.0773
      2  CAU      -13.4300  -44.8040   26.4840 C.2   801  DQ8801      0.1735
      3  OAC      -13.8690  -43.8750   27.1460 O.2   801  DQ8801     -0.2913
      4  CAV      -12.2930  -45.6130   27.0640 C.ar  801  DQ8801      0.0344
      5  CAQ      -11.6930  -45.0780   28.1790 C.ar  801  DQ8801     -0.0000
      6  CAK      -11.8090  -46.7740   26.4810 C.ar  801  DQ8801      0.0028
      7  CAJ      -10.7330  -47.4130   27.0700 C.ar  801  DQ8801     -0.0002
      8  CAP      -10.1500  -46.8810   28.2110 C.ar  801  DQ8801     -0.0029
      9  CAY      -10.6160  -45.7010   28.7480 C.ar  801  DQ8801     -0.0059
     10  CAZ      -10.0240  -45.1050   30.0020 C.3   801  DQ8801      0.0953
     11  CAX       -9.9450  -43.5830   30.0690 C.ar  801  DQ8801     -0.0060
     12  CAN       -9.3460  -42.8450   29.0700 C.ar  801  DQ8801     -0.0029
     13  CAH       -9.2790  -41.4680   29.1910 C.ar  801  DQ8801     -0.0003
     14  CAE       -9.8030  -40.8320   30.3130 C.ar  801  DQ8801     -0.0000
     15  CAI      -10.3990  -41.5580   31.3270 C.ar  801  DQ8801     -0.0003
     16  CAO      -10.4530  -42.9320   31.1910 C.ar  801  DQ8801     -0.0029
     17  SAT      -11.2030  -45.5770   31.3320 S.3   801  DQ8801     -0.1278
     18  CAS      -12.8490  -44.8670   30.8220 C.3   801  DQ8801      0.0789
     19  CAR      -13.9840  -45.0440   31.8480 C.3   801  DQ8801      0.1209
     20  NAB      -14.1850  -46.4820   32.1170 N.3   801  DQ8801     -0.1304
     21  CAW       -8.6160  -45.6160   30.3020 C.ar  801  DQ8801     -0.0060
     22  CAL       -7.6660  -45.7370   29.3110 C.ar  801  DQ8801     -0.0029
     23  CAF       -6.3860  -46.1980   29.6260 C.ar  801  DQ8801     -0.0003
     24  CAD       -6.0260  -46.5180   30.9260 C.ar  801  DQ8801     -0.0000
     25  CAG       -6.9750  -46.3830   31.9230 C.ar  801  DQ8801     -0.0003
     26  CAM       -8.2520  -45.9320   31.6050 C.ar  801  DQ8801     -0.0029
@<TRIPOS>BOND
     1     1     2    1
     2     6     4   ar
     3     6     7   ar
     4     2     4    1
     5     2     3    2
     6     4     5   ar
     7     7     8   ar
     8     5     9   ar
     9     8     9   ar
    10     9    10    1
    11    12    13   ar
    12    12    11   ar
    13    13    14   ar
    14    22    23   ar
    15    22    21   ar
    16    23    24   ar
    17    10    11    1
    18    10    21    1
    19    10    17    1
    20    11    16   ar
    21    21    26   ar
    22    14    15   ar
    23    18    17    1
    24    18    19    1
    25    24    25   ar
    26    16    15   ar
    27    26    25   ar
    28    19    20    1
