@<TRIPOS>MOLECULE
4a51_ADP_A_1.pdb
 27 29 0 0 0
SMALL
GASTEIGER

@<TRIPOS>ATOM
      1  PB       -20.7930  -52.3710   34.7070 P.3   601  ADP601      0.5373
      2  O1B      -19.9600  -51.6240   33.6810 O.2   601  ADP601     -0.2221
      3  O2B      -20.8530  -53.8200   34.2970 O.3   601  ADP601     -0.1143
      4  O3B      -22.1160  -51.8290   35.1660 O.3   601  ADP601     -0.1143
      5  PA       -18.7030  -51.2180   36.2360 P.3   601  ADP601      0.2231
      6  O1A      -19.2430  -49.8030   36.0980 O.3   601  ADP601     -0.4370
      7  O2A      -17.5980  -51.8060   35.3880 O.2   601  ADP601     -0.5169
      8  O3A      -19.9860  -52.1850   36.0810 O.3   601  ADP601     -0.2261
      9  O5'      -18.2360  -51.3870   37.7690 O.3   601  ADP601     -0.3111
     10  C5'      -19.1730  -51.1700   38.8100 C.3   601  ADP601      0.1813
     11  C4'      -18.4210  -50.6660   40.0190 C.3   601  ADP601      0.1821
     12  O4'      -17.7230  -51.7510   40.6280 O.3   601  ADP601     -0.3135
     13  C3'      -17.3670  -49.6700   39.6260 C.3   601  ADP601      0.2184
     14  O3'      -17.1970  -48.8220   40.7490 O.3   601  ADP601     -0.2174
     15  C2'      -16.1290  -50.5180   39.4850 C.3   601  ADP601      0.2570
     16  O2'      -14.9140  -49.8460   39.7780 O.3   601  ADP601     -0.2130
     17  C1'      -16.3130  -51.5560   40.5380 C.3   601  ADP601      0.3186
     18  N9       -15.7260  -52.8110   40.0560 N.pl3 601  ADP601     -0.1439
     19  C8       -16.3030  -53.6180   39.1550 C.3   601  ADP601      0.3377
     20  N7       -15.5260  -54.7030   38.9290 N.2   601  ADP601     -0.2095
     21  C5       -14.4290  -54.6050   39.7090 C.2   601  ADP601      0.2526
     22  C6       -13.2170  -55.4290   39.9620 C.2   601  ADP601      0.4393
     23  N6       -12.9760  -56.6060   39.3200 N.pl3 601  ADP601      0.2180
     24  N1       -12.3370  -54.9430   40.8480 N.2   601  ADP601      0.0021
     25  C2       -12.5390  -53.7760   41.4840 C.3   601  ADP601      0.5254
     26  N3       -13.6060  -52.9860   41.3060 N.2   601  ADP601     -0.0055
     27  C4       -14.5720  -53.3440   40.4450 C.2   601  ADP601      0.3518
@<TRIPOS>BOND
     1     2     1    2
     2     3     1    1
     3     1     4    1
     4     1     8    1
     5     7     5    2
     6     8     5    1
     7     6     5    1
     8     5     9    1
     9     9    10    1
    10    10    11    1
    11    20    19    1
    12    20    21    2
    13    19    18    1
    14    23    22    1
    15    15    13    1
    16    15    16    1
    17    15    17    1
    18    13    11    1
    19    13    14    1
    20    21    22    1
    21    21    27    1
    22    22    24    2
    23    11    12    1
    24    18    27    1
    25    18    17    1
    26    27    26    2
    27    17    12    1
    28    24    25    1
    29    26    25    1
