@<TRIPOS>MOLECULE
4a52_IM2_A_1.pdb
 38 38 0 0 0
SMALL
GASTEIGER

@<TRIPOS>ATOM
      1  C7       -10.3110    4.9960    9.1280 C.2   1142  IM21142     0.2058
      2  C2        -6.9200    5.6250   11.7780 C.2   1142  IM21142     0.0151
      3  C6       -10.2970    5.5490   10.5530 C.3   1142  IM21142     0.0692
      4  C5        -8.9040    6.1080   10.8680 C.3   1142  IM21142     0.0377
      5  C3        -7.5000    6.6420   12.4390 C.2   1142  IM21142     0.1219
      6  O7       -11.0250    4.0420    8.8290 O.2   1142  IM21142    -0.2885
      7  C61      -11.3640    6.6590   10.6890 C.3   1142  IM21142     0.0641
      8  O62      -11.3260    7.2280   12.0020 O.3   1142  IM21142    -0.3913
      9  C62      -12.7610    6.1120   10.4220 C.3   1142  IM21142    -0.0382
     10  N4        -8.8100    6.7160   12.2030 N.pl3 1142  IM21142    -0.3338
     11  C31       -6.8040    7.4770   13.2120 C.2   1142  IM21142     0.3515
     12  O31       -7.2500    8.5930   13.4870 O.2   1142  IM21142    -0.2437
     13  O32       -5.6070    7.0130   13.6510 O.3   1142  IM21142    -0.4762
     14  S21       -5.2200    5.1950   11.8160 S.3   1142  IM21142    -0.1259
     15  C22       -5.3390    3.4570   12.3350 C.3   1142  IM21142     0.0136
     16  C23       -4.0610    2.6820   12.4240 C.3   1142  IM21142     0.0192
     17  N24       -3.3980    2.5670   11.1280 N.pl3 1142  IM21142    -0.3347
     18  C25       -2.2880    1.8430   11.2590 C.2   1142  IM21142     0.0724
     19  N26       -1.2850    2.2820   12.0320 N.2   1142  IM21142    -0.2926
     20  C1        -7.8650    5.0140   10.9700 C.3   1142  IM21142    -0.0006
     21 H61A      -10.5400    4.7550   11.2430 H     1142  IM21142     0.0425
     22  H51       -8.6020    6.8220   10.1050 H     1142  IM21142     0.0509
     23  H61      -11.1530    7.4310    9.9630 H     1142  IM21142     0.0598
     24  HO6      -11.5010    6.5450   12.6530 H     1142  IM21142     0.2098
     25 H621      -12.8020    5.7020    9.4240 H     1142  IM21142     0.0255
     26 H622      -13.4840    6.9090   10.5150 H     1142  IM21142     0.0255
     27 H623      -12.9850    5.3350   11.1390 H     1142  IM21142     0.0255
     28  H41       -9.1050    7.6710   12.1590 H     1142  IM21142     0.1466
     29 H321       -5.1500    7.7240   14.1850 H     1142  IM21142     0.2954
     30 H221       -5.5900    3.4120   13.3330 H     1142  IM21142     0.0395
     31 H222       -6.1270    2.9760   11.6700 H     1142  IM21142     0.0395
     32 H231       -4.2810    1.6920   12.7940 H     1142  IM21142     0.0469
     33 H232       -3.3990    3.1850   13.1130 H     1142  IM21142     0.0469
     34 H241       -3.9200    2.2240   10.3730 H     1142  IM21142     0.1469
     35  H25       -2.1930    0.8920   10.7330 H     1142  IM21142     0.0990
     36  H26       -0.4340    1.7760   12.1580 H     1142  IM21142     0.1875
     37  H11       -7.4430    4.7780    9.9950 H     1142  IM21142     0.0337
     38  H12       -8.2800    4.1250   11.4490 H     1142  IM21142     0.0337
@<TRIPOS>BOND
     1     6     1    2
     2     1     3    1
     3    25     9    1
     4    23     7    1
     5    37    20    1
     6    22     4    1
     7    34    17    1
     8     9    26    1
     9     9     7    1
    10     9    27    1
    11     3     7    1
    12     3     4    1
    13     3    21    1
    14     7     8    1
    15    35    18    1
    16     4    20    1
    17     4    10    1
    18    20    38    1
    19    20     2    1
    20    17    18    1
    21    17    16    1
    22    18    19    2
    23    31    15    1
    24     2    14    1
    25     2     5    2
    26    14    15    1
    27     8    24    1
    28    19    36    1
    29    28    10    1
    30    10     5    1
    31    15    16    1
    32    15    30    1
    33    16    32    1
    34    16    33    1
    35     5    11    1
    36    11    12    2
    37    11    13    1
    38    13    29    1
