@<TRIPOS>MOLECULE
4a55_P08_A_1.pdb
 27 30 0 0 0
SMALL
GASTEIGER

@<TRIPOS>ATOM
      1  CAN      -28.3960  -41.6630   48.8320 C.3   2062  P082062     0.1257
      2  CAL      -27.7320  -41.0140   50.0350 C.3   2062  P082062     0.1637
      3  OAQ      -27.5230  -41.9650   51.1230 O.3   2062  P082062    -0.3501
      4  CAM      -28.6990  -42.7150   51.4950 C.3   2062  P082062     0.1637
      5  CAO      -29.2840  -43.4380   50.2700 C.3   2062  P082062     0.1257
      6  NBA      -29.6100  -42.3960   49.2830 N.pl3 2062  P082062    -0.2742
      7  CAU      -30.5380  -42.7510   48.3760 C.ar  2062  P082062     0.2024
      8  CAJ      -30.5190  -42.1910   47.1000 C.ar  2062  P082062     0.0955
      9  CAW      -31.5670  -42.4270   46.2400 C.ar  2062  P082062     0.2030
     10  OAC      -31.4640  -41.9380   45.1060 O.2   2062  P082062    -0.2863
     11  OAR      -31.6410  -43.4450   48.8470 O.2   2062  P082062    -0.4400
     12  CAY      -32.6270  -43.8080   47.9670 C.ar  2062  P082062     0.1474
     13  CAX      -32.6080  -43.2900   46.6550 C.ar  2062  P082062     0.0731
     14  CAK      -33.6120  -43.7240   45.7640 C.ar  2062  P082062     0.0020
     15  CAS      -34.6200  -44.6270   46.1630 C.ar  2062  P082062    -0.0218
     16  CAA      -35.6290  -45.0480   45.2570 C.3   2062  P082062     0.0310
     17  CAI      -34.6150  -45.1050   47.4870 C.ar  2062  P082062    -0.0038
     18  CAV      -33.6300  -44.7020   48.4130 C.ar  2062  P082062     0.0318
     19  CAZ      -33.7060  -45.2170   49.7390 C.3   2062  P082062     0.1176
     20  CAB      -33.2440  -44.1750   50.8180 C.3   2062  P082062     0.0283
     21  NAP      -32.8690  -46.4030   49.8350 N.pl3 2062  P082062    -0.2348
     22  CAT      -33.1700  -47.6740   49.4810 C.ar  2062  P082062     0.0656
     23  CAG      -33.8280  -48.5480   50.3680 C.ar  2062  P082062     0.0161
     24  CAE      -34.0600  -49.8950   50.0260 C.ar  2062  P082062     0.0013
     25  CAD      -33.6070  -50.3800   48.7920 C.ar  2062  P082062     0.0001
     26  CAF      -32.9420  -49.5160   47.9130 C.ar  2062  P082062     0.0013
     27  CAH      -32.7120  -48.1810   48.2580 C.ar  2062  P082062     0.0161
@<TRIPOS>BOND
     1    10     9    2
     2    16    15    1
     3    14    15   ar
     4    14    13   ar
     5    15    17   ar
     6     9    13   ar
     7     9     8   ar
     8    13    12   ar
     9     8     7   ar
    10    17    18   ar
    11    26    27   ar
    12    26    25   ar
    13    12    18   ar
    14    12    11   ar
    15    27    22   ar
    16     7    11   ar
    17     7     6    1
    18    18    19    1
    19    25    24   ar
    20     1     6    1
    21     1     2    1
    22     6     5    1
    23    22    21    1
    24    22    23   ar
    25    19    21    1
    26    19    20    1
    27    24    23   ar
    28     2     3    1
    29     5     4    1
    30     3     4    1
