@<TRIPOS>MOLECULE
4a59_AMP_A_1.pdb
 23 25 0 0 0
SMALL
GASTEIGER

@<TRIPOS>ATOM
      1  P        -23.3440   23.0880   35.9930 P.3   700  AMP700      0.5327
      2  O1P      -23.8850   23.9530   37.0800 O.3   700  AMP700     -0.1145
      3  O2P      -21.9040   23.4300   35.5880 O.2   700  AMP700     -0.2224
      4  O3P      -23.3480   21.6320   36.3940 O.3   700  AMP700     -0.1145
      5  O5'      -24.3170   23.2990   34.7160 O.3   700  AMP700     -0.2675
      6  C5'      -23.9820   22.5500   33.5290 C.3   700  AMP700      0.1860
      7  C4'      -24.8860   23.0550   32.4580 C.3   700  AMP700      0.1823
      8  O4'      -26.2470   22.6320   32.7110 O.3   700  AMP700     -0.3135
      9  C3'      -24.9350   24.6080   32.4260 C.3   700  AMP700      0.2184
     10  O3'      -23.9060   25.0560   31.5870 O.3   700  AMP700     -0.2174
     11  C2'      -26.3300   24.9470   31.9020 C.3   700  AMP700      0.2570
     12  O2'      -26.3430   24.6690   30.4660 O.3   700  AMP700     -0.2130
     13  C1'      -27.1450   23.7870   32.4870 C.3   700  AMP700      0.3186
     14  N9       -27.8140   24.0620   33.6910 N.pl3 700  AMP700     -0.1439
     15  C8       -27.3150   24.3690   34.9600 C.3   700  AMP700      0.3377
     16  N7       -28.3190   24.5160   35.8680 N.2   700  AMP700     -0.2095
     17  C5       -29.4780   24.3180   35.1020 C.2   700  AMP700      0.2526
     18  C6       -30.8580   24.3250   35.3960 C.2   700  AMP700      0.4393
     19  N6       -31.2910   24.5540   36.6640 N.pl3 700  AMP700      0.2180
     20  N1       -31.7910   24.1000   34.3940 N.2   700  AMP700      0.0021
     21  C2       -31.3630   23.8430   33.1350 C.3   700  AMP700      0.5254
     22  N3       -30.0350   23.7940   32.7360 N.2   700  AMP700     -0.0055
     23  C4       -29.1700   24.0310   33.7580 C.2   700  AMP700      0.3518
@<TRIPOS>BOND
     1    12    11    1
     2    10     9    1
     3    11     9    1
     4    11    13    1
     5     9     7    1
     6     7     8    1
     7     7     6    1
     8    13     8    1
     9    13    14    1
    10    22    21    1
    11    22    23    2
    12    21    20    1
    13     6     5    1
    14    14    23    1
    15    14    15    1
    16    23    17    1
    17    20    18    2
    18     5     1    1
    19    15    16    1
    20    17    18    1
    21    17    16    2
    22    18    19    1
    23     3     1    2
    24     1     4    1
    25     1     2    1
