@<TRIPOS>MOLECULE
4a5a_ANP_A_1.pdb
 31 33 0 0 0
SMALL
GASTEIGER

@<TRIPOS>ATOM
      1  PG        47.4400    9.5940  -35.5380 P.3   700  ANP700      0.4884
      2  O1G       46.8900    8.3870  -36.2350 O.2   700  ANP700     -0.2331
      3  O2G       46.8730    9.7740  -34.1390 O.3   700  ANP700     -0.1240
      4  O3G       48.9450    9.6660  -35.6250 O.3   700  ANP700     -0.1240
      5  PB        46.1130   12.3790  -35.8100 P.3   700  ANP700      0.4669
      6  O1B       46.8960   13.6150  -36.1590 O.2   700  ANP700     -0.2351
      7  O2B       45.8430   12.0890  -34.3540 O.3   700  ANP700     -0.1253
      8  N3B       46.9280   10.9770  -36.4840 N.3   700  ANP700     -0.0163
      9  PA        43.3200   12.8330  -35.9300 P.3   700  ANP700      0.2220
     10  O1A       43.1900   14.3350  -35.7390 O.2   700  ANP700     -0.5170
     11  O2A       43.1530   11.8470  -34.7990 O.3   700  ANP700     -0.4370
     12  O3A       44.7420   12.5750  -36.6230 O.3   700  ANP700     -0.2360
     13  O5'       42.2370   12.3580  -37.0180 O.3   700  ANP700     -0.3111
     14  C5'       41.5660   13.3010  -37.8540 C.3   700  ANP700      0.1813
     15  C4'       41.7290   12.9280  -39.3280 C.3   700  ANP700      0.1821
     16  O4'       40.4560   12.5610  -39.8780 O.3   700  ANP700     -0.3135
     17  C3'       42.2440   14.1100  -40.1340 C.3   700  ANP700      0.2184
     18  O3'       43.2580   13.6660  -41.0410 O.3   700  ANP700     -0.2174
     19  C2'       41.0200   14.6590  -40.8530 C.3   700  ANP700      0.2570
     20  O2'       41.3260   14.9920  -42.2080 O.3   700  ANP700     -0.2130
     21  C1'       39.9620   13.5620  -40.7720 C.3   700  ANP700      0.3186
     22  N9        38.6580   14.0380  -40.2410 N.pl3 700  ANP700     -0.1439
     23  C8        38.4300   14.6480  -39.0540 C.3   700  ANP700      0.3377
     24  N7        37.1040   14.9220  -38.8860 N.2   700  ANP700     -0.2095
     25  C5        36.4560   14.4800  -39.9810 C.2   700  ANP700      0.2526
     26  C6        35.0550   14.4470  -40.4690 C.2   700  ANP700      0.4393
     27  N6        34.0340   14.9580  -39.7450 N.pl3 700  ANP700      0.2180
     28  N1        34.8150   13.8840  -41.6750 N.2   700  ANP700      0.0021
     29  C2        35.8030   13.3650  -42.4280 C.3   700  ANP700      0.5254
     30  N3        37.0970   13.3600  -42.0540 N.2   700  ANP700     -0.0055
     31  C4        37.4840   13.8930  -40.8660 C.2   700  ANP700      0.3518
@<TRIPOS>BOND
     1    29    30    1
     2    29    28    1
     3    20    19    1
     4    30    31    2
     5    28    26    2
     6    18    17    1
     7    31    22    1
     8    31    25    1
     9    19    21    1
    10    19    17    1
    11    21    22    1
    12    21    16    1
    13    26    25    1
    14    26    27    1
    15    22    23    1
    16    17    15    1
    17    25    24    2
    18    16    15    1
    19    15    14    1
    20    23    24    1
    21    14    13    1
    22    13     9    1
    23    12     9    1
    24    12     5    1
    25     8     5    1
    26     8     1    1
    27     2     1    2
    28     6     5    2
    29     9    10    2
    30     9    11    1
    31     5     7    1
    32     4     1    1
    33     1     3    1
