@<TRIPOS>MOLECULE
4a5g_HEM_A_1.pdb
 43 50 0 0 0
SMALL
GASTEIGER

@<TRIPOS>ATOM
      1  CHA        2.4810  -24.5360   50.7480 C.2   1307  HEM1307     0.0000
      2  CHB        2.3220  -22.1850   54.9820 C.2   1307  HEM1307     0.0000
      3  CHC       -1.8000  -19.9930   53.6930 C.2   1307  HEM1307     0.0000
      4  CHD       -1.4420  -22.0100   49.3100 C.2   1307  HEM1307     0.0000
      5  C1A        2.7840  -24.1060   52.0160 C.2   1307  HEM1307     0.0000
      6  C2A        3.8960  -24.5620   52.8190 C.2   1307  HEM1307     0.0000
      7  C3A        3.8590  -23.9160   53.9890 C.2   1307  HEM1307     0.0000
      8  C4A        2.7110  -23.0310   53.9690 C.2   1307  HEM1307     0.0000
      9  CMA        4.8540  -24.0980   55.1620 C.3   1307  HEM1307     0.0000
     10  CAA        4.9290  -25.6200   52.3730 C.3   1307  HEM1307     0.0000
     11  CBA        6.2100  -24.8940   51.9680 C.3   1307  HEM1307     0.0000
     12  CGA        7.2600  -25.9290   51.6310 C.2   1307  HEM1307     0.0000
     13  O1A        8.0930  -25.6550   50.7390 O.co2 1307  HEM1307     0.0000
     14  O2A        7.2490  -27.0290   52.2400 O.co2 1307  HEM1307     0.0000
     15  C1B        1.1380  -21.4790   55.0470 C.ar  1307  HEM1307     0.0000
     16  C2B        0.5590  -20.8660   56.2270 C.ar  1307  HEM1307     0.0000
     17  C3B       -0.5870  -20.2950   55.8760 C.ar  1307  HEM1307     0.0000
     18  C4B       -0.7620  -20.4750   54.4490 C.ar  1307  HEM1307     0.0000
     19  CMB        1.0960  -20.9180   57.6650 C.3   1307  HEM1307     0.0000
     20  CAB       -1.5270  -19.5490   56.8390 C.2   1307  HEM1307     0.0000
     21  CBB       -2.8500  -19.6460   56.6540 C.2   1307  HEM1307     0.0000
     22  C1C       -1.9880  -20.2240   52.3510 C.2   1307  HEM1307     0.0000
     23  C2C       -2.8870  -19.5220   51.4540 C.2   1307  HEM1307     0.0000
     24  C3C       -2.7610  -20.0790   50.2300 C.2   1307  HEM1307     0.0000
     25  C4C       -1.8130  -21.1650   50.3350 C.2   1307  HEM1307     0.0000
     26  CMC       -3.7800  -18.3270   51.8530 C.3   1307  HEM1307     0.0000
     27  CAC       -3.4980  -19.7510   48.9080 C.2   1307  HEM1307     0.0000
     28  CBC       -4.6740  -19.1150   48.8710 C.2   1307  HEM1307     0.0000
     29  C1D       -0.4580  -22.9670   49.3360 C.ar  1307  HEM1307     0.0000
     30  C2D       -0.2910  -24.0210   48.3570 C.ar  1307  HEM1307     0.0000
     31  C3D        0.9360  -24.8150   48.8150 C.ar  1307  HEM1307     0.0000
     32  C4D        1.3850  -24.1550   50.0130 C.ar  1307  HEM1307     0.0000
     33  CMD       -1.1810  -24.2960   47.1280 C.3   1307  HEM1307     0.0000
     34  CAD        1.5960  -26.0220   48.1180 C.3   1307  HEM1307     0.0000
     35  CBD        2.5290  -25.3170   47.1270 C.3   1307  HEM1307     0.0000
     36  CGD        3.2500  -26.2410   46.1740 C.2   1307  HEM1307     0.0000
     37  O1D        4.0550  -25.7120   45.3560 O.co2 1307  HEM1307     0.0000
     38  O2D        3.0390  -27.4820   46.2210 O.co2 1307  HEM1307     0.0000
     39  NA         2.0890  -23.1710   52.7460 N.2   1307  HEM1307     0.0000
     40  NB         0.3090  -21.2030   53.9810 N.ar  1307  HEM1307     0.0000
     41  NC        -1.3590  -21.2220   51.6370 N.2   1307  HEM1307     0.0000
     42  ND         0.5360  -23.0850   50.2860 N.ar  1307  HEM1307     0.0000
     43 FE          0.2710  -22.4020   52.2230 Fe    1307  HEM1307     0.0000
@<TRIPOS>BOND
     1    37    36   ar
     2    36    38   ar
     3    36    35    1
     4    35    34    1
     5    33    30    1
     6    34    31    1
     7    30    31   ar
     8    30    29   ar
     9    31    32   ar
    10    28    27    2
    11    27    24    1
    12     4    29    2
    13     4    25    1
    14    29    42   ar
    15    32    42   ar
    16    32     1    2
    17    24    25    1
    18    24    23    2
    19    42    43    1
    20    25    41    2
    21    13    12   ar
    22     1     5    1
    23    23    26    1
    24    23    22    1
    25    12    11    1
    26    12    14   ar
    27    41    43    1
    28    41    22    1
    29    11    10    1
    30     5    39    2
    31     5     6    1
    32    43    39    1
    33    43    40    1
    34    22     3    2
    35    10     6    1
    36    39     8    1
    37     6     7    2
    38     3    18    1
    39     8     7    1
    40     8     2    2
    41    40    18   ar
    42    40    15   ar
    43     7     9    1
    44    18    17   ar
    45     2    15    1
    46    15    16   ar
    47    17    16   ar
    48    17    20    1
    49    16    19    1
    50    21    20    2
