@<TRIPOS>MOLECULE
4a5r_TBE_A_1.pdb
 20 20 0 0 0
SMALL
GASTEIGER

@<TRIPOS>ATOM
      1  S1        25.6240   -3.0250    7.9710 S.3   1292  TBE1292    -0.0173
      2  O12       25.9050   -1.6490    8.2760 O.3   1292  TBE1292    -0.0781
      3  O13       24.2360   -3.2900    8.2520 O.3   1292  TBE1292    -0.0781
      4  C2        26.6100   -4.0280    8.8920 C.3   1292  TBE1292     0.1615
      5  C3        26.4440   -3.7000   10.3950 C.3   1292  TBE1292     0.2269
      6  N4        25.0360   -3.7390   10.7960 N.2   1292  TBE1292    -0.2618
      7  C5        24.6190   -2.9950   11.8170 C.2   1292  TBE1292     0.0757
      8  C20       26.2080   -5.4800    8.6150 C.3   1292  TBE1292     0.0280
      9  C14       28.0630   -3.8400    8.4110 C.3   1292  TBE1292     0.1532
     10  N15       28.6350   -2.5210    8.7360 N.ar  1292  TBE1292    -0.2284
     11  N16       28.4840   -1.5340    7.7520 N.ar  1292  TBE1292    -0.0637
     12  N17       29.0910   -0.3820    8.2850 N.ar  1292  TBE1292    -0.1271
     13  C18       29.5750   -0.6940    9.5130 C.ar  1292  TBE1292     0.1441
     14  C19       29.2930   -2.0230    9.7950 C.ar  1292  TBE1292     0.1193
     15  C9        27.3340   -4.5290   11.3020 C.2   1292  TBE1292     0.3883
     16  O10       28.5370   -4.2000   11.4460 O.co2 1292  TBE1292    -0.2434
     17  O11       26.8450   -5.5210   11.8880 O.co2 1292  TBE1292    -0.2434
     18  C6        23.3410   -2.9980   12.1960 C.3   1292  TBE1292     0.1186
     19  C7        22.9190   -2.1750   13.3230 C.2   1292  TBE1292     0.2138
     20  O8        23.7400   -1.8250   14.1700 O.2   1292  TBE1292    -0.2879
@<TRIPOS>BOND
     1    11    12   ar
     2    11    10   ar
     3     1     3    1
     4     1     2    1
     5     1     4    1
     6    12    13   ar
     7     9    10    1
     8     9     4    1
     9     8     4    1
    10    10    14   ar
    11     4     5    1
    12    13    14   ar
    13     5     6    1
    14     5    15    1
    15     6     7    2
    16    15    16   ar
    17    15    17   ar
    18     7    18    1
    19    18    19    1
    20    19    20    2
