@<TRIPOS>MOLECULE
4a5s_N7F_A_1.pdb
 37 42 0 0 0
SMALL
GASTEIGER

@<TRIPOS>ATOM
      1  N1        12.2400   36.6010   54.1090 N.am  901  N7F901     -0.2510
      2  C2        11.5080   35.4680   54.2780 C.3   901  N7F901      0.2221
      3  N3        12.0470   34.3120   54.4250 N.2   901  N7F901     -0.2470
      4  C4        13.6020   36.6010   53.9390 C.2   901  N7F901      0.2764
      5  C5        14.2480   35.2840   53.9350 C.3   901  N7F901      0.2773
      6  C6        13.4770   34.2380   54.2920 C.2   901  N7F901      0.1236
      7  C7        14.3470   33.1010   54.3480 C.2   901  N7F901      0.1617
      8  C8        15.5760   33.5440   54.0240 C.2   901  N7F901      0.2828
      9  N9        15.4990   34.8740   53.8790 N.pl3 901  N7F901     -0.1815
     10  C10       13.8150   31.8000   54.6850 C.1   901  N7F901      0.1089
     11  N11       13.3860   30.7490   54.9060 N.1   901  N7F901     -0.1906
     12  N12       16.6350   32.7590   54.1160 N.pl3 901  N7F901     -0.1932
     13  C13       17.6980   33.1560   55.0820 C.3   901  N7F901      0.2210
     14  C14       19.1080   32.7130   54.6880 C.3   901  N7F901      0.1385
     15  C15       18.9860   31.1560   54.6380 C.3   901  N7F901      0.0275
     16  C16       18.0710   30.8120   53.4240 C.3   901  N7F901      0.0524
     17  C17       16.6330   31.3420   53.6630 C.3   901  N7F901      0.2021
     18  N18       20.0470   33.1090   55.7590 N.3   901  N7F901     -0.1285
     19  C19       16.5330   35.6260   53.1780 C.3   901  N7F901      0.2299
     20  C20       17.4980   36.4530   53.9950 C.ar  901  N7F901      0.0243
     21  C21       18.5580   37.0310   53.2810 C.ar  901  N7F901     -0.0003
     22  C22       19.4890   37.8030   53.9890 C.ar  901  N7F901     -0.0002
     23  C23       19.2840   38.0290   55.3550 C.ar  901  N7F901     -0.0000
     24  C24       18.2460   37.4290   56.0500 C.ar  901  N7F901     -0.0002
     25  C25       17.3220   36.6160   55.3770 C.ar  901  N7F901     -0.0003
     26  O26       14.2880   37.6170   53.7850 O.2   901  N7F901     -0.2700
     27  C27       11.5420   37.9000   54.1680 C.3   901  N7F901      0.1222
     28  C28        9.3380   39.8360   54.4360 C.ar  901  N7F901      0.0012
     29  C29        8.2610   40.7220   54.5430 C.ar  901  N7F901      0.0001
     30  C30        7.5160   40.7800   55.7390 C.ar  901  N7F901      0.0015
     31  C31        7.8940   40.0060   56.8550 C.ar  901  N7F901      0.0191
     32  C32       10.7570   38.0670   55.4770 C.ar  901  N7F901      0.0007
     33  C33        9.6690   38.9860   55.5230 C.ar  901  N7F901      0.0153
     34  C34        8.9760   39.1160   56.7400 C.ar  901  N7F901      0.0811
     35  N35        9.3290   38.3720   57.8350 N.ar  901  N7F901     -0.2439
     36  C36       10.4310   37.5940   57.8570 C.ar  901  N7F901      0.0986
     37  C37       11.1710   37.4370   56.6740 C.ar  901  N7F901      0.0181
@<TRIPOS>BOND
     1    19     9    1
     2    19    20    1
     3    21    22   ar
     4    21    20   ar
     5    16    17    1
     6    16    15    1
     7    17    12    1
     8    26     4    2
     9     9     5    1
    10     9     8    1
    11     5     4    1
    12     5     6    1
    13     4     1   am
    14    22    23   ar
    15    20    25   ar
    16     8    12    1
    17     8     7    2
    18     1    27    1
    19     1     2    1
    20    12    13    1
    21    27    32    1
    22     2     3    1
    23     6     7    1
    24     6     3    2
    25     7    10    1
    26    28    29   ar
    27    28    33   ar
    28    29    30   ar
    29    15    14    1
    30    10    11    3
    31    14    13    1
    32    14    18    1
    33    23    24   ar
    34    25    24   ar
    35    32    33   ar
    36    32    37   ar
    37    33    34   ar
    38    30    31   ar
    39    37    36   ar
    40    34    31   ar
    41    34    35   ar
    42    35    36   ar
