@<TRIPOS>MOLECULE
4a5w_BMA_B_1.pdb
 11 11 0 0 0
SMALL
GASTEIGER

@<TRIPOS>ATOM
      1  C1        46.1790  -55.6460  -82.4660 C.3   1568  BMA1568     0.1777
      2  C2        47.3830  -56.4740  -81.9710 C.3   1568  BMA1568     0.2141
      3  C3        47.1520  -57.5880  -80.9210 C.3   1568  BMA1568     0.2173
      4  C4        45.7240  -57.5160  -80.2950 C.3   1568  BMA1568     0.2142
      5  C5        45.3910  -56.0530  -79.9930 C.3   1568  BMA1568     0.1810
      6  C6        46.3470  -55.1370  -79.1490 C.3   1568  BMA1568     0.2141
      7  O2        48.5540  -55.7380  -81.6480 O.3   1568  BMA1568    -0.2176
      8  O3        48.2630  -57.3710  -79.9810 O.3   1568  BMA1568    -0.2175
      9  O4        44.7360  -57.9300  -81.2870 O.3   1568  BMA1568    -0.2176
     10  O5        45.3260  -55.3930  -81.3060 O.3   1568  BMA1568    -0.3481
     11  O6        46.7740  -54.0210  -79.9690 O.3   1568  BMA1568    -0.2176
@<TRIPOS>BOND
     1     1     2    1
     2     1    10    1
     3     2     7    1
     4     2     3    1
     5    10     5    1
     6     9     4    1
     7     3     4    1
     8     3     8    1
     9     4     5    1
    10     5     6    1
    11    11     6    1
