@<TRIPOS>MOLECULE
4a5w_FUC_B_1.pdb
 10 10 0 0 0
SMALL
GASTEIGER

@<TRIPOS>ATOM
      1  C1        75.5550  -45.5290  -81.5640 C.3   1005  FUC1005     0.1776
      2  C2        74.2860  -44.8500  -80.9230 C.3   1005  FUC1005     0.2141
      3  C3        73.6680  -45.6890  -79.8210 C.3   1005  FUC1005     0.2172
      4  C4        74.6170  -46.6280  -79.0850 C.3   1005  FUC1005     0.2116
      5  C5        75.5870  -47.4200  -79.9590 C.3   1005  FUC1005     0.1483
      6  C6        76.6240  -48.1480  -79.1010 C.3   1005  FUC1005     0.0349
      7  O2        73.2610  -44.4350  -81.8610 O.3   1005  FUC1005    -0.2176
      8  O3        72.9890  -44.7800  -78.9420 O.3   1005  FUC1005    -0.2175
      9  O4        75.2450  -45.9320  -78.0000 O.3   1005  FUC1005    -0.2177
     10  O5        76.2960  -46.5550  -80.8510 O.3   1005  FUC1005    -0.3508
@<TRIPOS>BOND
     1     7     2    1
     2     1     2    1
     3     1    10    1
     4     2     3    1
     5    10     5    1
     6     5     6    1
     7     5     4    1
     8     3     4    1
     9     3     8    1
    10     4     9    1
