@<TRIPOS>MOLECULE
4a5y_G7X_A_1.pdb
 37 40 0 0 0
SMALL
GASTEIGER

@<TRIPOS>ATOM
      1  CAN       12.2920   43.1380   48.1380 C.ar  1365  G7X1365     0.0042
      2  CAO       10.9300   43.1040   48.4470 C.ar  1365  G7X1365    -0.0041
      3  CAY       10.0290   43.8050   47.6460 C.ar  1365  G7X1365    -0.0218
      4  CAZ        8.5430   43.7870   47.9900 C.3   1365  G7X1365     0.0310
      5  CAX       10.4790   44.5450   46.5560 C.ar  1365  G7X1365    -0.0041
      6  CAW       11.8290   44.5910   46.2450 C.ar  1365  G7X1365     0.0042
      7  CAM       12.7310   43.8590   47.0270 C.ar  1365  G7X1365     0.0536
      8  CAL       14.2130   43.9240   46.6480 C.2   1365  G7X1365     0.2493
      9  OAV       14.8360   44.9190   47.0150 O.2   1365  G7X1365    -0.2699
     10  NAK       14.7920   42.9410   45.8950 N.am  1365  G7X1365    -0.2700
     11  CAU       16.2100   43.1330   45.5350 C.3   1365  G7X1365     0.0956
     12  CBC       16.3910   44.1320   44.3540 C.3   1365  G7X1365     0.0420
     13  CBD       16.0370   45.6150   44.5950 C.3   1365  G7X1365     0.1111
     14  NBE       16.3200   46.3890   43.3570 N.3   1365  G7X1365    -0.1313
     15  CAJ       14.1510   41.6630   45.3950 C.3   1365  G7X1365     0.1426
     16  CAB       14.7940   40.3890   45.9670 C.3   1365  G7X1365     0.0265
     17  CAA       15.0580   40.4750   47.4760 C.3   1365  G7X1365     0.0022
     18  CAC       13.8910   39.1890   45.6780 C.3   1365  G7X1365     0.0022
     19  CAI       14.2600   41.6430   43.8850 C.2   1365  G7X1365     0.1837
     20  NAH       15.4230   41.3340   43.3080 N.2   1365  G7X1365    -0.3929
     21  CAG       15.5970   41.3440   41.9600 C.2   1365  G7X1365     0.1235
     22  CAF       16.8280   41.0360   41.4230 C.2   1365  G7X1365     0.0398
     23  CAE       17.0200   41.0420   40.0430 C.2   1365  G7X1365     0.0596
     24 CLD        18.6190   40.6420   39.4680 Cl    1365  G7X1365    -0.0822
     25  CAP       15.9690   41.3560   39.1650 C.2   1365  G7X1365     0.0078
     26  CAQ       14.7520   41.6690   39.7060 C.2   1365  G7X1365    -0.0094
     27  CAR       14.5730   41.6610   41.0890 C.3   1365  G7X1365     0.1511
     28  CAS       13.3560   41.9840   41.6410 C.2   1365  G7X1365     0.2416
     29  OBA       12.4210   42.2830   40.9100 O.2   1365  G7X1365    -0.2737
     30  NAT       13.1900   41.9690   43.0410 N.am  1365  G7X1365    -0.2313
     31  CBB       11.8970   42.3240   43.6360 C.3   1365  G7X1365     0.1269
     32  CBG       11.1740   41.0950   44.0760 C.ar  1365  G7X1365    -0.0019
     33  CBH       10.7860   40.9700   45.3960 C.ar  1365  G7X1365    -0.0026
     34  CBK       10.1110   39.8190   45.7860 C.ar  1365  G7X1365    -0.0003
     35  CBJ        9.8020   38.8280   44.8630 C.ar  1365  G7X1365    -0.0000
     36  CBI       10.1710   38.9670   43.5320 C.ar  1365  G7X1365    -0.0003
     37  CBF       10.8660   40.1140   43.1390 C.ar  1365  G7X1365    -0.0026
@<TRIPOS>BOND
     1    25    26    2
     2    25    23    1
     3    24    23    1
     4    26    27    1
     5    23    22    2
     6    29    28    2
     7    27    28    1
     8    27    21    1
     9    22    21    1
    10    28    30   am
    11    21    20    2
    12    30    31    1
    13    30    19    1
    14    37    36   ar
    15    37    32   ar
    16    20    19    2
    17    14    13    1
    18    36    35   ar
    19    31    32    1
    20    19    15    1
    21    32    33   ar
    22    12    13    1
    23    12    11    1
    24    35    34   ar
    25    15    10    1
    26    15    16    1
    27    33    34   ar
    28    11    10    1
    29    18    16    1
    30    10     8   am
    31    16    17    1
    32     6     5   ar
    33     6     7   ar
    34     5     3   ar
    35     8     9    2
    36     8     7    1
    37     7     1   ar
    38     3     4    1
    39     3     2   ar
    40     1     2   ar
