@<TRIPOS>MOLECULE
4a5y_ADP_A_1.pdb
 27 29 0 0 0
SMALL
GASTEIGER

@<TRIPOS>ATOM
      1  PB        16.8850   53.8340   38.5080 P.3   601  ADP601      0.5373
      2  O1B       17.3410   52.4020   38.5250 O.3   601  ADP601     -0.1143
      3  O2B       16.6200   54.4200   37.1270 O.2   601  ADP601     -0.2221
      4  O3B       17.8000   54.5280   39.4930 O.3   601  ADP601     -0.1143
      5  PA        15.4140   54.0580   40.8550 P.3   601  ADP601      0.2231
      6  O1A       16.7140   53.4100   41.3300 O.2   601  ADP601     -0.5169
      7  O2A       14.1410   53.5780   41.4640 O.3   601  ADP601     -0.4370
      8  O3A       15.4380   53.9950   39.2450 O.3   601  ADP601     -0.2261
      9  O5'       15.3890   55.6350   41.1860 O.3   601  ADP601     -0.3111
     10  C5'       15.9070   55.9830   42.4790 C.3   601  ADP601      0.1813
     11  C4'       14.8400   56.1750   43.5640 C.3   601  ADP601      0.1821
     12  O4'       13.7340   56.9360   43.0710 O.3   601  ADP601     -0.3135
     13  C3'       14.2430   54.8990   44.1340 C.3   601  ADP601      0.2184
     14  O3'       14.8590   54.6160   45.3800 O.3   601  ADP601     -0.2174
     15  C2'       12.7770   55.2140   44.3830 C.3   601  ADP601      0.2570
     16  O2'       12.4230   55.4470   45.7420 O.3   601  ADP601     -0.2130
     17  C1'       12.5560   56.5680   43.8070 C.3   601  ADP601      0.3186
     18  N9        11.3600   56.4970   42.9470 N.pl3 601  ADP601     -0.1439
     19  C8        11.3650   56.3670   41.6060 C.3   601  ADP601      0.3377
     20  N7        10.0900   56.3810   41.1270 N.2   601  ADP601     -0.2095
     21  C5         9.2660   56.5360   42.1880 C.2   601  ADP601      0.2526
     22  C6         7.8080   56.6290   42.3840 C.2   601  ADP601      0.4393
     23  N6         6.9990   56.5430   41.3110 N.pl3 601  ADP601      0.2180
     24  N1         7.3300   56.7790   43.6480 N.2   601  ADP601      0.0021
     25  C2         8.1700   56.8580   44.7100 C.3   601  ADP601      0.5254
     26  N3         9.5220   56.7780   44.5980 N.2   601  ADP601     -0.0055
     27  C4        10.1130   56.6160   43.3850 C.2   601  ADP601      0.3518
@<TRIPOS>BOND
     1     3     1    2
     2     1     2    1
     3     1     8    1
     4     1     4    1
     5     8     5    1
     6     5     9    1
     7     5     6    2
     8     5     7    1
     9    20    19    1
    10    20    21    2
    11     9    10    1
    12    23    22    1
    13    19    18    1
    14    21    22    1
    15    21    27    1
    16    22    24    2
    17    10    11    1
    18    18    27    1
    19    18    17    1
    20    12    11    1
    21    12    17    1
    22    27    26    2
    23    11    13    1
    24    24    25    1
    25    17    15    1
    26    13    15    1
    27    13    14    1
    28    15    16    1
    29    26    25    1
