@<TRIPOS>MOLECULE
4a61_ANP_A_1.pdb
 44 46 0 0 0
SMALL
GASTEIGER

@<TRIPOS>ATOM
      1  PG         3.8750   38.1100   -9.5260 P.3   500  ANP500      0.4710
      2  O1G        3.7260   38.6300   -8.1130 O.3   500  ANP500     -0.1250
      3  O2G        5.1300   37.3370   -9.4790 O.3   500  ANP500     -0.1250
      4  O3G        2.8010   37.0600   -9.6560 O.2   500  ANP500     -0.2347
      5  PB         4.4360   39.3510  -12.1280 P.3   500  ANP500      0.4495
      6  O1B        5.3870   38.2400  -12.4410 O.3   500  ANP500     -0.1263
      7  O2B        3.2870   39.1460  -13.1070 O.2   500  ANP500     -0.2367
      8  N3B        3.8030   39.3950  -10.5580 N.3   500  ANP500     -0.1200
      9  PA         6.5100   41.1050  -12.8510 P.3   500  ANP500      0.2213
     10  O1A        7.5900   40.5880  -11.9640 O.3   500  ANP500     -0.4371
     11  O2A        6.7960   40.5200  -14.2040 O.2   500  ANP500     -0.5170
     12  O3A        5.0770   40.7710  -12.3360 O.3   500  ANP500     -0.2370
     13  O5'        6.5820   42.7040  -12.9010 O.3   500  ANP500     -0.3245
     14  C5'        6.2480   43.4370  -11.7500 C.3   500  ANP500      0.0836
     15  C4'        6.0480   44.8680  -12.0880 C.3   500  ANP500      0.1131
     16  O4'        7.3440   45.4900  -12.2470 O.3   500  ANP500     -0.3474
     17  C3'        5.2830   45.1520  -13.3380 C.3   500  ANP500      0.1133
     18  O3'        4.2240   46.0590  -13.0860 O.3   500  ANP500     -0.3864
     19  C2'        6.2900   45.6750  -14.2970 C.3   500  ANP500      0.1266
     20  O2'        5.7900   46.5960  -15.1810 O.3   500  ANP500     -0.3849
     21  C1'        7.2680   46.3140  -13.3840 C.3   500  ANP500      0.1617
     22  N9         8.5900   46.4880  -13.9610 N.pl3 500  ANP500     -0.2234
     23  C8         9.1950   45.6850  -14.9260 C.2   500  ANP500      0.1451
     24  N7        10.4540   46.1150  -15.2170 N.2   500  ANP500     -0.3871
     25  C5        10.6920   47.2660  -14.4020 C.2   500  ANP500      0.2211
     26  C6        11.7940   48.1620  -14.2410 C.2   500  ANP500      0.2227
     27  N6        12.9830   47.9840  -15.0020 N.pl3 500  ANP500     -0.3300
     28  N1        11.6510   49.1610  -13.3410 N.2   500  ANP500     -0.3296
     29  C2        10.5330   49.3290  -12.6230 C.1   500  ANP500      0.0930
     30  N3         9.4840   48.5340  -12.7300 N.2   500  ANP500     -0.3287
     31  C4         9.4980   47.4990  -13.5900 C.2   500  ANP500      0.2354
     32 HNB1        2.9640   39.7330  -10.5710 H     500  ANP500      0.1458
     33 H5'1        5.4530   43.0910  -11.3790 H     500  ANP500      0.0591
     34 H5'2        6.9630   43.3580  -11.1040 H     500  ANP500      0.0591
     35  H4'        5.5790   45.2850  -11.3760 H     500  ANP500      0.0647
     36  H3'        4.9240   44.3000  -13.6530 H     500  ANP500      0.0647
     37 HO3'        3.7870   46.2170  -13.8370 H     500  ANP500      0.2100
     38  H2'        6.7060   44.9520  -14.7860 H     500  ANP500      0.0663
     39 HO2'        6.4470   46.9200  -15.6700 H     500  ANP500      0.2101
     40  H1'        6.9170   47.2060  -13.1060 H     500  ANP500      0.0841
     41  H8         8.7630   44.8940  -15.3460 H     500  ANP500      0.1149
     42 HN61       13.6930   48.5320  -14.8690 H     500  ANP500      0.1448
     43 HN62       13.0310   47.3200  -15.6210 H     500  ANP500      0.1448
     44  H2        10.4920   50.0700  -11.9920 H     500  ANP500      0.1751
@<TRIPOS>BOND
     1    39    20    1
     2    43    27    1
     3    41    23    1
     4    24    23    2
     5    24    25    2
     6    20    19    1
     7    27    42    1
     8    27    26    1
     9    23    22    1
    10    38    19    1
    11    25    26    1
    12    25    31    1
    13    19    21    1
    14    19    17    1
    15    26    28    2
    16    11     9    2
    17    22    31    1
    18    22    21    1
    19    37    18    1
    20    36    17    1
    21    31    30    2
    22    21    40    1
    23    21    16    1
    24    28    29    2
    25    17    18    1
    26    17    15    1
    27     7     5    2
    28    13     9    1
    29    13    14    1
    30     9    12    1
    31     9    10    1
    32    30    29    2
    33    29    44    1
    34     6     5    1
    35    12     5    1
    36    16    15    1
    37     5     8    1
    38    15    14    1
    39    15    35    1
    40    14    33    1
    41    14    34    1
    42    32     8    1
    43     8     1    1
    44     4     1    2
    45     1     3    1
    46     1     2    1
