@<TRIPOS>MOLECULE
4a62_ANP_A_1.pdb
 31 33 0 0 0
SMALL
GASTEIGER

@<TRIPOS>ATOM
      1  PG       -49.4280   32.1750  -45.9650 P.3   500  ANP500      0.4884
      2  O1G      -50.8150   31.7910  -45.5020 O.3   500  ANP500     -0.1240
      3  O2G      -48.3100   31.6340  -45.1140 O.3   500  ANP500     -0.1240
      4  O3G      -49.2480   33.6560  -46.1740 O.2   500  ANP500     -0.2331
      5  PB       -48.3620   30.0640  -47.9870 P.3   500  ANP500      0.4669
      6  O1B      -47.6590   29.4960  -46.8050 O.3   500  ANP500     -0.1253
      7  O2B      -49.2230   29.0860  -48.7470 O.2   500  ANP500     -0.2351
      8  N3B      -49.3150   31.4750  -47.5690 N.3   500  ANP500     -0.0163
      9  PA       -45.8610   29.9110  -49.4090 P.3   500  ANP500      0.2220
     10  O1A      -46.1350   28.5200  -49.9240 O.2   500  ANP500     -0.5170
     11  O2A      -44.7820   30.1200  -48.3810 O.3   500  ANP500     -0.4370
     12  O3A      -47.2380   30.6410  -48.9960 O.3   500  ANP500     -0.2360
     13  O5'      -45.3540   30.8550  -50.6010 O.3   500  ANP500     -0.3111
     14  C5'      -46.0350   30.8550  -51.8240 C.3   500  ANP500      0.1813
     15  C4'      -45.6080   32.0960  -52.5730 C.3   500  ANP500      0.1821
     16  O4'      -44.1880   32.1430  -52.7670 O.3   500  ANP500     -0.3135
     17  C3'      -46.2760   32.0740  -53.9280 C.3   500  ANP500      0.2184
     18  O3'      -47.1130   33.2300  -53.9900 O.3   500  ANP500     -0.2174
     19  C2'      -45.1530   32.0830  -54.9410 C.3   500  ANP500      0.2570
     20  O2'      -45.3090   33.1830  -55.8400 O.3   500  ANP500     -0.2130
     21  C1'      -43.8670   32.2670  -54.1450 C.3   500  ANP500      0.3186
     22  N9       -42.8720   31.2440  -54.5140 N.pl3 500  ANP500     -0.1439
     23  C8       -42.9410   29.9120  -54.2690 C.3   500  ANP500      0.3377
     24  N7       -41.8340   29.2830  -54.7380 N.2   500  ANP500     -0.2095
     25  C5       -41.0400   30.2280  -55.2810 C.2   500  ANP500      0.2526
     26  C6       -39.7310   30.2610  -55.9670 C.2   500  ANP500      0.4393
     27  N6       -39.0290   29.1210  -56.1560 N.pl3 500  ANP500      0.2180
     28  N1       -39.2670   31.4650  -56.3890 N.2   500  ANP500      0.0021
     29  C2       -39.9590   32.6130  -56.2060 C.3   500  ANP500      0.5254
     30  N3       -41.1610   32.6530  -55.5970 N.2   500  ANP500     -0.0055
     31  C4       -41.7300   31.5200  -55.1280 C.2   500  ANP500      0.3518
@<TRIPOS>BOND
     1    28    29    1
     2    28    26    2
     3    29    30    1
     4    27    26    1
     5    26    25    1
     6    20    19    1
     7    30    31    2
     8    25    31    1
     9    25    24    2
    10    31    22    1
    11    19    21    1
    12    19    17    1
    13    24    23    1
    14    22    23    1
    15    22    21    1
    16    21    16    1
    17    18    17    1
    18    17    15    1
    19    16    15    1
    20    15    14    1
    21    14    13    1
    22    13     9    1
    23    10     9    2
    24     9    12    1
    25     9    11    1
    26    12     5    1
    27     7     5    2
    28     5     8    1
    29     5     6    1
    30     8     1    1
    31     4     1    2
    32     1     2    1
    33     1     3    1
