@<TRIPOS>MOLECULE
4a69_I0P_C_1.pdb
 28 28 0 0 0
SMALL
GASTEIGER

@<TRIPOS>ATOM
      1  O21       20.3100   52.4910   17.9610 O.2   501  I0P501     -0.2224
      2  P1        19.6570   52.0460   19.2510 P.3   501  I0P501      0.5327
      3  O41       19.0330   50.6630   19.2340 O.3   501  I0P501     -0.1145
      4  O31       18.7730   53.0670   19.9070 O.3   501  I0P501     -0.1145
      5  O11       20.9310   51.8820   20.2400 O.3   501  I0P501     -0.2674
      6  C1        20.7580   51.4820   21.5980 C.3   501  I0P501      0.1891
      7  C6        21.8420   50.4950   22.0290 C.3   501  I0P501      0.1864
      8  O16       21.7480   49.3640   21.1790 O.3   501  I0P501     -0.2675
      9  P6        22.9900   48.8470   20.3080 P.3   501  I0P501      0.5327
     10  O46       24.0380   48.4720   21.3410 O.3   501  I0P501     -0.1145
     11  O26       23.4390   50.0040   19.4740 O.2   501  I0P501     -0.2224
     12  O36       22.4500   47.6690   19.5490 O.3   501  I0P501     -0.1145
     13  C5        21.6570   50.0900   23.4930 C.3   501  I0P501      0.1864
     14  O15       22.6890   49.1870   23.8950 O.3   501  I0P501     -0.2675
     15  P5        22.5220   47.6260   24.2040 P.3   501  I0P501      0.5327
     16  O45       22.8100   47.5020   25.6850 O.3   501  I0P501     -0.1145
     17  O35       21.1080   47.2400   23.8190 O.3   501  I0P501     -0.1145
     18  O25       23.5700   47.0330   23.3090 O.2   501  I0P501     -0.2224
     19  C2        20.7670   52.7340   22.4620 C.3   501  I0P501      0.2146
     20  O12       21.9810   53.4640   22.2100 O.3   501  I0P501     -0.2176
     21  C3        20.6340   52.3600   23.9320 C.3   501  I0P501      0.2146
     22  O13       20.7840   53.5440   24.7010 O.3   501  I0P501     -0.2176
     23  C4        21.6870   51.3410   24.3840 C.3   501  I0P501      0.1891
     24  O14       21.4160   50.9920   25.7360 O.3   501  I0P501     -0.2674
     25  P4        22.0580   51.7350   26.9980 P.3   501  I0P501      0.5327
     26  O24       23.4890   52.0030   26.5980 O.2   501  I0P501     -0.2224
     27  O44       21.2910   53.0250   27.1800 O.3   501  I0P501     -0.1145
     28  O34       21.8130   50.7400   28.1120 O.3   501  I0P501     -0.1145
@<TRIPOS>BOND
     1     1     2    2
     2     3     2    1
     3     2     4    1
     4     2     5    1
     5    11     9    2
     6    12     9    1
     7     5     6    1
     8     9     8    1
     9     9    10    1
    10     8     7    1
    11     6     7    1
    12     6    19    1
    13     7    13    1
    14    20    19    1
    15    19    21    1
    16    18    15    2
    17    13    14    1
    18    13    23    1
    19    17    15    1
    20    14    15    1
    21    21    23    1
    22    21    22    1
    23    15    16    1
    24    23    24    1
    25    24    25    1
    26    26    25    2
    27    25    27    1
    28    25    28    1
