@<TRIPOS>MOLECULE
4a6a_TTP_A_1.pdb
 29 30 0 0 0
SMALL
GASTEIGER

@<TRIPOS>ATOM
      1  PA        16.2640  -24.0430   37.2540 P.3   201  TTP201      0.2189
      2  O1A       16.5810  -25.3590   37.9330 O.3   201  TTP201     -0.4371
      3  O2A       17.0210  -23.8400   35.9470 O.2   201  TTP201     -0.5170
      4  O3A       16.6450  -22.7650   38.1830 O.3   201  TTP201     -0.2700
      5  PB        17.8060  -22.8250   39.3120 P.3   201  TTP201      0.2277
      6  O1B       18.5900  -21.5350   39.2570 O.3   201  TTP201     -0.4368
      7  O2B       18.6460  -24.0730   39.1580 O.2   201  TTP201     -0.5168
      8  O3B       16.9700  -22.8250   40.7000 O.3   201  TTP201     -0.2258
      9  PG        16.5330  -24.1700   41.4820 P.3   201  TTP201      0.5373
     10  O1G       17.3180  -24.1670   42.7920 O.3   201  TTP201     -0.1143
     11  O2G       16.7090  -25.4190   40.6540 O.2   201  TTP201     -0.2221
     12  O3G       15.0520  -24.0000   41.7360 O.3   201  TTP201     -0.1143
     13  O5'       14.6560  -23.8930   37.0420 O.3   201  TTP201     -0.3112
     14  C5'       13.7850  -23.9790   38.1670 C.3   201  TTP201      0.1812
     15  C4'       12.3510  -24.0960   37.6880 C.3   201  TTP201      0.1773
     16  O4'       11.9400  -22.8530   37.1100 O.3   201  TTP201     -0.3339
     17  C3'       12.1550  -25.1050   36.5660 C.3   201  TTP201      0.1857
     18  O3'       12.0360  -26.4590   37.0270 O.3   201  TTP201     -0.2203
     19  C2'       10.9150  -24.5730   35.8360 C.3   201  TTP201      0.0874
     20  C1'       10.9240  -23.0630   36.1100 C.3   201  TTP201      0.2090
     21  N1        11.2370  -22.2380   34.9120 N.am  201  TTP201     -0.1794
     22  C2        10.7440  -20.8990   34.7840 C.1   201  TTP201      0.2844
     23  O2        10.0350  -20.4040   35.6730 O.2   201  TTP201     -0.1918
     24  N3        11.0220  -20.1430   33.7030 N.2   201  TTP201     -0.2455
     25  C4        11.7900  -20.6070   32.6890 C.1   201  TTP201      0.2134
     26  O4        12.0520  -19.8910   31.6860 O.2   201  TTP201     -0.2088
     27  C5        12.3240  -22.0010   32.7920 C.2   201  TTP201      0.0891
     28  C5M       13.1720  -22.6100   31.7170 C.3   201  TTP201      0.0462
     29  C6        12.0190  -22.7530   33.9260 C.2   201  TTP201      0.0877
@<TRIPOS>BOND
     1    26    25    2
     2    28    27    1
     3    25    27    1
     4    25    24    2
     5    27    29    2
     6    24    22    2
     7    29    21    1
     8    22    21   am
     9    22    23    2
    10    21    20    1
    11    19    20    1
    12    19    17    1
    13     3     1    2
    14    20    16    1
    15    17    18    1
    16    17    15    1
    17    13     1    1
    18    13    14    1
    19    16    15    1
    20     1     2    1
    21     1     4    1
    22    15    14    1
    23     4     5    1
    24     7     5    2
    25     6     5    1
    26     5     8    1
    27    11     9    2
    28     8     9    1
    29     9    12    1
    30     9    10    1
