@<TRIPOS>MOLECULE
4a6d_SAM_A_1.pdb
 27 29 0 0 0
SMALL
GASTEIGER

@<TRIPOS>ATOM
      1  N          2.7280   23.2880   38.4310 N.3   1350  SAM1350    -0.1208
      2  CA         2.4380   24.4290   37.5350 C.3   1350  SAM1350     0.1952
      3  C          3.5580   25.4720   37.3390 C.2   1350  SAM1350     0.3819
      4  O          4.3610   25.6200   38.2370 O.co2 1350  SAM1350    -0.2441
      5  OXT        3.6840   26.1850   36.2920 O.co2 1350  SAM1350    -0.2441
      6  CB         1.1420   25.0350   38.0110 C.3   1350  SAM1350     0.0414
      7  CG         1.2580   25.7550   39.3600 C.3   1350  SAM1350     0.0503
      8  SD        -0.3590   26.5280   39.7260 S.3   1350  SAM1350    -0.1761
      9  CE         0.1030   27.6580   40.9740 C.3   1350  SAM1350     0.0590
     10  C5'       -1.1580   25.3400   40.8540 C.3   1350  SAM1350     0.0806
     11  C4'       -1.8150   24.2910   39.9450 C.3   1350  SAM1350     0.1622
     12  O4'       -2.5250   23.4390   40.8260 O.3   1350  SAM1350    -0.3153
     13  C3'       -2.8670   24.9200   38.9520 C.3   1350  SAM1350     0.2168
     14  O3'       -2.6460   24.4700   37.6050 O.3   1350  SAM1350    -0.2175
     15  C2'       -4.2270   24.4660   39.5770 C.3   1350  SAM1350     0.2569
     16  O2'       -5.3350   24.2800   38.6960 O.3   1350  SAM1350    -0.2130
     17  C1'       -3.8130   23.1360   40.2320 C.3   1350  SAM1350     0.3185
     18  N9        -4.7470   22.7090   41.2950 N.pl3 1350  SAM1350    -0.1439
     19  C8        -5.2600   23.5040   42.3170 C.3   1350  SAM1350     0.3377
     20  N7        -6.0410   22.7980   43.0790 N.2   1350  SAM1350    -0.2095
     21  C5        -6.1380   21.5080   42.5690 C.2   1350  SAM1350     0.2526
     22  C6        -6.8240   20.3290   42.9170 C.2   1350  SAM1350     0.4393
     23  N6        -7.5710   20.3170   44.0470 N.pl3 1350  SAM1350     0.2180
     24  N1        -6.6360   19.1850   42.1670 N.2   1350  SAM1350     0.0021
     25  C2        -5.8980   19.1930   41.0480 C.3   1350  SAM1350     0.5254
     26  N3        -5.2440   20.3070   40.6870 N.2   1350  SAM1350    -0.0055
     27  C4        -5.2810   21.4370   41.4210 C.2   1350  SAM1350     0.3518
@<TRIPOS>BOND
     1     5     3   ar
     2     3     2    1
     3     3     4   ar
     4     2     6    1
     5     2     1    1
     6    14    13    1
     7     6     7    1
     8    16    15    1
     9    13    15    1
    10    13    11    1
    11     7     8    1
    12    15    17    1
    13     8    10    1
    14     8     9    1
    15    11    12    1
    16    11    10    1
    17    17    12    1
    18    17    18    1
    19    26    25    1
    20    26    27    2
    21    25    24    1
    22    18    27    1
    23    18    19    1
    24    27    21    1
    25    24    22    2
    26    19    20    1
    27    21    22    1
    28    21    20    2
    29    22    23    1
