@<TRIPOS>MOLECULE
4a6e_SAM_A_1.pdb
 27 29 0 0 0
SMALL
GASTEIGER

@<TRIPOS>ATOM
      1  N          3.0870   23.3030   40.5680 N.3   1349  SAM1349    -0.1208
      2  CA         2.7700   24.4860   39.6960 C.3   1349  SAM1349     0.1952
      3  C          3.8760   25.5420   39.6610 C.2   1349  SAM1349     0.3819
      4  O          4.6680   25.6810   40.6120 O.co2 1349  SAM1349    -0.2441
      5  OXT        3.9660   26.2920   38.6540 O.co2 1349  SAM1349    -0.2441
      6  CB         1.4410   25.1240   40.0200 C.3   1349  SAM1349     0.0414
      7  CG         1.5790   25.8060   41.3860 C.3   1349  SAM1349     0.0503
      8  SD         0.0610   26.6440   41.9630 S.3   1349  SAM1349    -0.1761
      9  CE         0.7500   27.6060   43.1980 C.3   1349  SAM1349     0.0590
     10  C5'       -0.8090   25.4670   43.0350 C.3   1349  SAM1349     0.0806
     11  C4'       -1.5160   24.3940   42.2090 C.3   1349  SAM1349     0.1622
     12  O4'       -2.2590   23.5640   43.1390 O.3   1349  SAM1349    -0.3153
     13  C3'       -2.5100   25.0540   41.2240 C.3   1349  SAM1349     0.2168
     14  O3'       -2.2580   24.4570   39.9720 O.3   1349  SAM1349    -0.2175
     15  C2'       -3.9220   24.7220   41.8200 C.3   1349  SAM1349     0.2569
     16  O2'       -4.8920   24.4640   40.8030 O.3   1349  SAM1349    -0.2130
     17  C1'       -3.5850   23.3810   42.5360 C.3   1349  SAM1349     0.3185
     18  N9        -4.5090   22.9530   43.5770 N.pl3 1349  SAM1349    -0.1439
     19  C8        -4.9940   23.7260   44.6000 C.3   1349  SAM1349     0.3377
     20  N7        -5.7990   23.0040   45.3430 N.2   1349  SAM1349    -0.2095
     21  C5        -5.8690   21.7200   44.8870 C.2   1349  SAM1349     0.2526
     22  C6        -6.5410   20.5430   45.3190 C.2   1349  SAM1349     0.4393
     23  N6        -7.3180   20.5240   46.4430 N.pl3 1349  SAM1349     0.2180
     24  N1        -6.3740   19.4400   44.5870 N.2   1349  SAM1349     0.0021
     25  C2        -5.5850   19.4440   43.4570 C.3   1349  SAM1349     0.5254
     26  N3        -4.8930   20.5050   43.0230 N.2   1349  SAM1349    -0.0055
     27  C4        -5.0200   21.6620   43.7220 C.2   1349  SAM1349     0.3518
@<TRIPOS>BOND
     1     5     3   ar
     2     3     2    1
     3     3     4   ar
     4     2     6    1
     5     2     1    1
     6    14    13    1
     7     6     7    1
     8    16    15    1
     9    13    15    1
    10    13    11    1
    11     7     8    1
    12    15    17    1
    13     8    10    1
    14     8     9    1
    15    11    10    1
    16    11    12    1
    17    17    12    1
    18    17    18    1
    19    26    25    1
    20    26    27    2
    21    25    24    1
    22    18    27    1
    23    18    19    1
    24    27    21    1
    25    24    22    2
    26    19    20    1
    27    21    22    1
    28    21    20    2
    29    22    23    1
