@<TRIPOS>MOLECULE
4a6e_ASE_A_1.pdb
 16 17 0 0 0
SMALL
GASTEIGER

@<TRIPOS>ATOM
      1  C1         0.8750   30.6770   44.0930 C.2   1350  ASE1350     0.1922
      2  C2         1.9730   31.1210   43.3590 C.2   1350  ASE1350     0.0256
      3  C3         1.8870   32.4420   42.8760 C.3   1350  ASE1350     0.0851
      4  C4        -0.2890   31.4560   44.3580 C.2   1350  ASE1350     0.0429
      5  C5        -0.3470   32.7690   43.8810 C.2   1350  ASE1350     0.0186
      6  C6         0.7230   33.2960   43.1350 C.2   1350  ASE1350     0.0667
      7  C7         2.8160   33.2690   42.0830 C.2   1350  ASE1350    -0.0140
      8  C8         2.2320   34.5000   41.9220 C.2   1350  ASE1350     0.0907
      9  N9         0.9770   34.5460   42.5310 N.2   1350  ASE1350    -0.2481
     10  O10        0.9320   29.4400   44.6090 O.2   1350  ASE1350    -0.2869
     11  C11        4.1780   32.7880   41.6920 C.3   1350  ASE1350     0.0477
     12  C12        5.1300   33.2390   42.8800 C.3   1350  ASE1350     0.1195
     13  N13        5.3410   34.7040   42.8190 N.am  1350  ASE1350    -0.2051
     14  C14        5.0120   35.5340   43.9060 C.2   1350  ASE1350     0.2419
     15  C15        5.2210   37.0400   43.7440 C.3   1350  ASE1350     0.0964
     16  O16        4.5440   35.1010   45.0110 O.2   1350  ASE1350    -0.2733
@<TRIPOS>BOND
     1    11     7    1
     2    11    12    1
     3     8     7    2
     4     8     9    1
     5     7     3    1
     6     9     6    2
     7    13    12    1
     8    13    14   am
     9     3     6    1
    10     3     2    1
    11     6     5    1
    12     2     1    2
    13    15    14    1
    14     5     4    2
    15    14    16    2
    16     1     4    1
    17     1    10    1
