@<TRIPOS>MOLECULE
4a6f_SEP_A_1.pdb
 13 12 0 0 0
SMALL
GASTEIGER

@<TRIPOS>ATOM
      1  N         16.3130  -30.0820    1.9080 N.4   1585  SEP1585     0.5941
      2  CA        15.3010  -29.0220    1.4250 C.3   1585  SEP1585     0.2924
      3  CB        15.7250  -28.3730    0.1180 C.3   1585  SEP1585     0.2393
      4  OG        16.7120  -27.4180    0.3950 O.3   1585  SEP1585    -0.1607
      5  C         13.8700  -29.4100    1.3640 C.2   1585  SEP1585     0.3745
      6  O         13.4060  -30.3700    2.0290 O.2   1585  SEP1585    -0.2438
      7  OXT       12.9440  -28.5950    0.6200 O.3   1585  SEP1585    -0.4762
      8  P         17.8200  -27.8510    1.3550 P.3   1585  SEP1585     1.1382
      9  O1P       17.3780  -28.4250    2.7470 O.3   1585  SEP1585     0.4732
     10  O2P       18.6780  -28.9320    0.7260 O.2   1585  SEP1585     0.3558
     11  O3P       18.4180  -26.7310    1.6540 O.3   1585  SEP1585    -0.0005
     12  HA        15.3180  -28.2000    2.1680 H     1585  SEP1585     0.1184
     13  HXT       13.5730  -27.8460    0.2350 H     1585  SEP1585     0.2953
@<TRIPOS>UNITY_ATOM_ATTR
1 1
charge 1
9 1
charge 1
10 1
charge 1
@<TRIPOS>BOND
     1     3     4    1
     2     3     2    1
     3    13     7    1
     4     4     8    1
     5     7     5    1
     6    10     8    2
     7     8    11    1
     8     8     9    1
     9     5     2    1
    10     5     6    2
    11     2     1    1
    12     2    12    1
