@<TRIPOS>MOLECULE
4a6g_AME_A_1.pdb
 12 11 0 0 0
SMALL
GASTEIGER

@<TRIPOS>ATOM
      1  CT2       36.1870   -5.4980  -60.1960 C.3   1369  AME1369     0.0555
      2  CT1       34.8270   -6.1330  -60.3220 C.3   1369  AME1369     0.2259
      3  OT        34.1470   -5.9600  -59.0870 O.3   1369  AME1369    -0.2036
      4  CB        33.7670   -9.1070  -61.7750 C.3   1369  AME1369     0.0372
      5  CG        33.1860   -8.0180  -62.6450 C.3   1369  AME1369     0.0593
      6  SD        33.6480   -8.5870  -64.2250 S.3   1369  AME1369    -0.1393
      7  CE        34.0790   -7.2890  -65.3180 C.3   1369  AME1369     0.0692
      8  C         35.0850   -9.7850  -59.8530 C.3   1369  AME1369     0.4414
      9  O         35.9650   -9.3740  -58.8140 O.2   1369  AME1369    -0.2654
     10  OXT       35.8970  -10.3710  -60.8610 O.2   1369  AME1369    -0.2654
     11  N         35.1680   -7.4990  -60.5750 N.3   1369  AME1369    -0.1826
     12  CA        34.2800   -8.6220  -60.4270 C.3   1369  AME1369     0.1679
@<TRIPOS>BOND
     1     7     6    1
     2     6     5    1
     3     5     4    1
     4     4    12    1
     5    10     8    1
     6    11    12    1
     7    11     2    1
     8    12     8    1
     9     2     1    1
    10     2     3    1
    11     8     9    1
