@<TRIPOS>MOLECULE
4a6h_I4C_A_1.pdb
 16 16 0 0 0
SMALL
GASTEIGER

@<TRIPOS>ATOM
      1  C1        17.6410  -26.9170   22.4950 C.3   1584  I4C1584     0.2175
      2  C2        18.1840  -27.6130   21.1830 C.3   1584  I4C1584     0.2174
      3  C3        17.6090  -28.8680   20.5160 C.3   1584  I4C1584     0.2148
      4  C4        16.1260  -28.8130   20.4140 C.3   1584  I4C1584     0.1919
      5  C5        15.4960  -28.1190   21.7410 C.3   1584  I4C1584     0.2148
      6  C6        16.1540  -27.0650   22.7050 C.3   1584  I4C1584     0.2174
      7  O1        18.4070  -25.8210   23.0780 O.3   1584  I4C1584    -0.2175
      8  O2        18.8680  -26.7060   20.3520 O.3   1584  I4C1584    -0.2175
      9  O3        18.1390  -29.0100   19.2140 O.3   1584  I4C1584    -0.2176
     10  O4        15.4810  -29.9150   19.7590 O.3   1584  I4C1584    -0.2673
     11  O5        13.9710  -28.1390   21.9010 O.3   1584  I4C1584    -0.2176
     12  O6        15.6740  -27.0310   24.0150 O.3   1584  I4C1584    -0.2175
     13  P4        14.6330  -29.9160   18.4840 P.3   1584  I4C1584     0.5327
     14  O41       14.8840  -28.7680   17.5800 O.2   1584  I4C1584    -0.2224
     15  O42       13.2070  -29.9400   18.8000 O.3   1584  I4C1584    -0.1145
     16  O43       14.9060  -31.1880   17.8030 O.3   1584  I4C1584    -0.1145
@<TRIPOS>BOND
     1    14    13    2
     2    16    13    1
     3    13    15    1
     4    13    10    1
     5     9     3    1
     6    10     4    1
     7     8     2    1
     8     4     3    1
     9     4     5    1
    10     3     2    1
    11     2     1    1
    12     5    11    1
    13     5     6    1
    14     1     6    1
    15     1     7    1
    16     6    12    1
