@<TRIPOS>MOLECULE
4a6j_ANP_A_1.pdb
 31 33 0 0 0
SMALL
GASTEIGER

@<TRIPOS>ATOM
      1  PG        10.9970    5.1460 -125.5040 P.3   500  ANP500      0.4884
      2  O1G       11.3210    3.7840 -126.0760 O.2   500  ANP500     -0.2331
      3  O2G       11.9310    5.6080 -124.4170 O.3   500  ANP500     -0.1240
      4  O3G        9.5680    5.2880 -125.0520 O.3   500  ANP500     -0.1240
      5  PB        12.4590    7.3560 -127.1350 P.3   500  ANP500      0.4669
      6  O1B       13.4690    7.2930 -126.0450 O.3   500  ANP500     -0.1253
      7  O2B       13.0110    7.1780 -128.5270 O.2   500  ANP500     -0.2351
      8  N3B       11.1450    6.2220 -126.8800 N.3   500  ANP500     -0.0163
      9  PA        12.4760   10.2210 -126.8330 P.3   500  ANP500      0.2220
     10  O1A       13.5730   10.4130 -127.8500 O.2   500  ANP500     -0.5170
     11  O2A       12.7590   10.4860 -125.3780 O.3   500  ANP500     -0.4370
     12  O3A       11.7410    8.8030 -127.0550 O.3   500  ANP500     -0.2360
     13  O5'       11.2720   11.2420 -127.1150 O.3   500  ANP500     -0.3111
     14  C5'       10.7820   11.3950 -128.4160 C.3   500  ANP500      0.1813
     15  C4'        9.4350   12.0700 -128.3110 C.3   500  ANP500      0.1821
     16  O4'        9.5180   13.3320 -127.6340 O.3   500  ANP500     -0.3135
     17  C3'        8.9240   12.3110 -129.7130 C.3   500  ANP500      0.2184
     18  O3'        7.7100   11.5710 -129.8380 O.3   500  ANP500     -0.2174
     19  C2'        8.7370   13.8070 -129.8300 C.3   500  ANP500      0.2570
     20  O2'        7.3940   14.1080 -130.2160 O.3   500  ANP500     -0.2130
     21  C1'        8.9970   14.3770 -128.4420 C.3   500  ANP500      0.3186
     22  N9         9.9680   15.4850 -128.5020 N.pl3 500  ANP500     -0.1439
     23  C8        11.2850   15.3980 -128.8130 C.3   500  ANP500      0.3377
     24  N7        11.8700   16.6220 -128.7520 N.2   500  ANP500     -0.2095
     25  C5        10.9160   17.5000 -128.3840 C.2   500  ANP500      0.2526
     26  C6        10.8380   18.9560 -128.1440 C.2   500  ANP500      0.4393
     27  N6        11.9380   19.7310 -128.2770 N.pl3 500  ANP500      0.2180
     28  N1         9.6360   19.4760 -127.7850 N.2   500  ANP500      0.0021
     29  C2         8.5280   18.7120 -127.6480 C.3   500  ANP500      0.5254
     30  N3         8.5270   17.3810 -127.8600 N.2   500  ANP500     -0.0055
     31  C4         9.6640   16.7430 -128.2190 C.2   500  ANP500      0.3518
@<TRIPOS>BOND
     1    20    19    1
     2    18    17    1
     3    19    17    1
     4    19    21    1
     5    17    15    1
     6    23    24    1
     7    23    22    1
     8    24    25    2
     9     7     5    2
    10    22    21    1
    11    22    31    1
    12    21    16    1
    13    14    15    1
    14    14    13    1
    15    25    31    1
    16    25    26    1
    17    15    16    1
    18    27    26    1
    19    31    30    2
    20    26    28    2
    21    30    29    1
    22    10     9    2
    23    28    29    1
    24     5    12    1
    25     5     8    1
    26     5     6    1
    27    13     9    1
    28    12     9    1
    29     8     1    1
    30     9    11    1
    31     2     1    2
    32     1     4    1
    33     1     3    1
