@<TRIPOS>MOLECULE
4a6k_I4D_A_1.pdb
 16 16 0 0 0
SMALL
GASTEIGER

@<TRIPOS>ATOM
      1  O5        17.8430  -27.6680   24.5530 O.3   1585  I4D1585    -0.2176
      2  C5        17.2560  -27.1380   23.3550 C.3   1585  I4D1585     0.2148
      3  C6        16.4550  -28.2870   22.7260 C.3   1585  I4D1585     0.2174
      4  O6        15.3290  -28.5590   23.5530 O.3   1585  I4D1585    -0.2175
      5  C4        18.4340  -26.6720   22.5020 C.3   1585  I4D1585     0.1919
      6  O4        19.1630  -25.5910   23.1440 O.3   1585  I4D1585    -0.2673
      7  P4        20.8250  -25.4980   23.2240 P.3   1585  I4D1585     0.5327
      8  O43       21.1140  -24.0280   22.8810 O.3   1585  I4D1585    -0.1145
      9  O42       21.0740  -25.9380   24.6720 O.3   1585  I4D1585    -0.1145
     10  O41       21.4360  -26.4120   22.1470 O.2   1585  I4D1585    -0.2224
     11  C3        18.0310  -26.3790   21.0610 C.3   1585  I4D1585     0.2148
     12  O3        19.1890  -26.4970   20.1990 O.3   1585  I4D1585    -0.2176
     13  C2        17.0540  -27.3870   20.4420 C.3   1585  I4D1585     0.2174
     14  O2        17.8390  -28.4010   19.7920 O.3   1585  I4D1585    -0.2175
     15  C1        15.9360  -27.9310   21.3580 C.3   1585  I4D1585     0.2175
     16  O1        15.2860  -29.0210   20.7080 O.3   1585  I4D1585    -0.2175
@<TRIPOS>BOND
     1    14    13    1
     2    12    11    1
     3    13    11    1
     4    13    15    1
     5    16    15    1
     6    11     5    1
     7    15     3    1
     8    10     7    2
     9     5     6    1
    10     5     2    1
    11     3     2    1
    12     3     4    1
    13     8     7    1
    14     6     7    1
    15     7     9    1
    16     2     1    1
