@<TRIPOS>MOLECULE
4a6l_P43_A_1.pdb
 30 33 0 0 0
SMALL
GASTEIGER

@<TRIPOS>ATOM
      1  C1        -9.4230   53.1060   -7.0260 C.1   1263  P431263    -0.0225
      2  C2        -4.0660   62.0940   -3.6050 C.ar  1263  P431263    -0.0006
      3  C3        -3.9650   60.6810   -3.3970 C.ar  1263  P431263    -0.0043
      4  C4        -4.2740   59.7400   -4.4610 C.ar  1263  P431263    -0.0227
      5  C5        -4.6730   60.1830   -5.8050 C.ar  1263  P431263    -0.0071
      6  C6        -4.7880   61.5820   -6.0040 C.ar  1263  P431263    -0.0035
      7  C7        -4.4620   62.5210   -4.9300 C.ar  1263  P431263    -0.0028
      8  C8        -5.2310   62.1600   -7.3660 C.3   1263  P431263     0.1356
      9  N9        -4.5720   61.5100   -8.4650 N.3   1263  P431263    -0.1262
     10  C10       -4.1680   58.2980   -4.1550 C.3   1263  P431263     0.0257
     11  C11       -3.4080   57.4960   -5.2680 C.3   1263  P431263     0.0259
     12  C12       -3.2390   56.0470   -4.7870 C.3   1263  P431263     0.0941
     13  N13       -4.6460   55.5340   -4.5640 N.am  1263  P431263    -0.2736
     14  C15       -5.5860   57.7600   -3.6330 C.3   1263  P431263     0.0259
     15  C14       -5.4500   56.2240   -3.3570 C.3   1263  P431263     0.0941
     16  C16       -5.1590   54.5850   -5.3760 C.2   1263  P431263     0.2838
     17  O17       -4.4630   54.0930   -6.3640 O.2   1263  P431263    -0.2666
     18  C18       -6.5540   54.0650   -5.1590 C.ar  1263  P431263     0.1995
     19  O19       -7.2930   53.8650   -6.2900 O.2   1263  P431263    -0.4407
     20  C20       -8.5150   53.3660   -5.9610 C.ar  1263  P431263     0.1873
     21  C21       -8.6190   53.2380   -4.6030 C.ar  1263  P431263     0.0495
     22  C22       -7.2990   53.7050   -4.0540 C.ar  1263  P431263     0.0460
     23  C23      -10.2070   52.8750   -7.8910 C.1   1263  P431263    -0.0545
     24  C24      -11.1420   52.5970   -8.9210 C.ar  1263  P431263     0.0695
     25  C25      -10.7080   52.3590  -10.3220 C.ar  1263  P431263     0.0105
     26  C26      -11.7140   52.0080  -11.3520 C.ar  1263  P431263     0.0008
     27  C27      -13.0780   51.9280  -10.8890 C.ar  1263  P431263     0.0023
     28  C28      -13.5100   52.1430   -9.4810 C.ar  1263  P431263     0.0303
     29  C29      -12.5310   52.5040   -8.4830 C.ar  1263  P431263     0.1477
     30  F30      -12.9100   52.7190   -7.1430 F     1263  P431263    -0.2035
@<TRIPOS>BOND
     1    26    27   ar
     2    26    25   ar
     3    27    28   ar
     4    25    24   ar
     5    28    29   ar
     6    24    29   ar
     7    24    23    1
     8    29    30    1
     9     9     8    1
    10    23     1    3
    11     8     6    1
    12     1    20    1
    13    17    16    2
    14    19    20   ar
    15    19    18   ar
    16     6     5   ar
    17     6     7   ar
    18    20    21   ar
    19     5     4   ar
    20    16    18    1
    21    16    13   am
    22    11    12    1
    23    11    10    1
    24    18    22   ar
    25     7     2   ar
    26    12    13    1
    27    21    22   ar
    28    13    15    1
    29     4    10    1
    30     4     3   ar
    31    10    14    1
    32    14    15    1
    33     2     3   ar
