@<TRIPOS>MOLECULE
4a6n_T1C_A_1.pdb
 42 45 0 0 0
SMALL
GASTEIGER

@<TRIPOS>ATOM
      1  C94       -4.5330   15.4470   30.0650 C.3   392  T1C392      0.0175
      2  C93       -5.9440   15.2430   29.4360 C.3   392  T1C392      0.0601
      3  C95       -6.7340   14.1340   30.1550 C.3   392  T1C392      0.0175
      4  C96       -6.7490   16.5620   29.4650 C.3   392  T1C392      0.0175
      5  N92       -5.7630   14.8400   28.0180 N.3   392  T1C392     -0.2113
      6  C92       -5.0640   13.5380   27.8600 C.3   392  T1C392      0.1756
      7  C91       -3.9350   13.6030   26.8150 C.2   392  T1C392      0.2634
      8  O91       -3.8470   14.5830   26.0870 O.2   392  T1C392     -0.2714
      9  N9        -3.1260   12.5310   26.7820 N.am  392  T1C392     -0.1747
     10  C9        -2.0770   12.3050   25.9460 C.ar  392  T1C392      0.1135
     11  C8        -0.9850   13.1630   25.8090 C.ar  392  T1C392      0.0340
     12  C7         0.0880   12.8370   24.9460 C.ar  392  T1C392      0.0455
     13  N7         1.1290   13.6790   24.7650 N.pl3 392  T1C392     -0.3043
     14  C71        2.3910   13.0890   25.2220 C.3   392  T1C392      0.1122
     15  C72        0.9320   15.0510   25.2890 C.3   392  T1C392      0.1122
     16  C61        0.1000   11.6280   24.2070 C.ar  392  T1C392     -0.0023
     17  C6         1.2620   11.2230   23.2300 C.3   392  T1C392      0.0324
     18  C51        0.7670   10.4380   21.9850 C.3   392  T1C392      0.0330
     19  C5         1.8700    9.8530   21.0650 C.3   392  T1C392      0.0100
     20  C41        1.1930    9.1050   19.8850 C.3   392  T1C392      0.0649
     21  C4         2.1190    8.6600   18.6850 C.3   392  T1C392      0.1235
     22  N4         1.5740    9.0440   17.3760 N.3   392  T1C392     -0.2651
     23  C43        1.8600   10.4860   17.3090 C.3   392  T1C392      0.0900
     24  C42        2.2320    8.3050   16.2700 C.3   392  T1C392      0.0900
     25  C3         2.8070    7.2680   18.7640 C.2   392  T1C392      0.1948
     26  O3         3.8020    7.0530   17.8200 O.2   392  T1C392     -0.2897
     27  C2         2.5200    6.3560   19.8270 C.2   392  T1C392      0.1300
     28  C21        3.2840    4.9600   20.0960 C.2   392  T1C392      0.2899
     29  O21        4.2060    4.5890   19.3730 O.2   392  T1C392     -0.2665
     30  N21        2.9130    4.1830   21.1550 N.am  392  T1C392     -0.0835
     31  C1         1.4960    6.7040   20.7140 C.2   392  T1C392      0.2148
     32  O1         1.3410    5.9510   21.6810 O.2   392  T1C392     -0.2880
     33  C1C        0.5170    7.9210   20.4690 C.3   392  T1C392      0.2367
     34  O1C       -0.3870    7.4060   19.4810 O.3   392  T1C392     -0.2098
     35  C12       -0.4120    8.2450   21.6670 C.2   392  T1C392      0.2066
     36  O12       -1.3910    7.3560   21.9690 O.2   392  T1C392     -0.2885
     37  C1B       -0.2560    9.3920   22.4340 C.2   392  T1C392      0.0543
     38  C11       -1.0200    9.5690   23.6090 C.2   392  T1C392      0.1973
     39  O11       -1.9030    8.7470   23.8210 O.2   392  T1C392     -0.2867
     40  C1A       -0.9890   10.7580   24.3740 C.ar  392  T1C392      0.0762
     41  C10       -2.0570   11.0960   25.2410 C.ar  392  T1C392      0.2136
     42  O10       -3.1130   10.2430   25.3970 O.3   392  T1C392     -0.2851
@<TRIPOS>BOND
     1    24    22    1
     2    23    22    1
     3    22    21    1
     4    26    25    1
     5    21    25    1
     6    21    20    1
     7    25    27    2
     8    29    28    2
     9    34    33    1
    10    27    28    1
    11    27    31    1
    12    20    33    1
    13    20    19    1
    14    28    30   am
    15    33    31    1
    16    33    35    1
    17    31    32    2
    18    19    18    1
    19    35    36    1
    20    35    37    2
    21    18    37    1
    22    18    17    1
    23    37    38    1
    24    17    16    1
    25    38    39    2
    26    38    40    1
    27    16    40   ar
    28    16    12   ar
    29    40    41   ar
    30    13    12    1
    31    13    14    1
    32    13    15    1
    33    12    11   ar
    34    41    42    1
    35    41    10   ar
    36    11    10   ar
    37    10     9    1
    38     8     7    2
    39     9     7   am
    40     7     6    1
    41     6     5    1
    42     5     2    1
    43     2     4    1
    44     2     1    1
    45     2     3    1
