@<TRIPOS>MOLECULE
4a6o_NDG_A_1.pdb
 14 14 0 0 0
SMALL
GASTEIGER

@<TRIPOS>ATOM
      1  C1       -37.3960   18.1660  -23.3320 C.3   2344  NDG2344     0.1665
      2  C2       -37.4310   17.2630  -24.5840 C.3   2344  NDG2344     0.1576
      3  C3       -36.3450   16.1790  -24.5330 C.3   2344  NDG2344     0.2069
      4  C4       -34.9510   16.7200  -24.1700 C.3   2344  NDG2344     0.2134
      5  C5       -34.9650   17.8460  -23.1160 C.3   2344  NDG2344     0.1809
      6  C6       -33.6520   18.6250  -23.2930 C.3   2344  NDG2344     0.2141
      7  C7       -39.8480   17.2190  -25.1510 C.2   2344  NDG2344     0.2420
      8  C8       -41.0890   16.3240  -25.2140 C.3   2344  NDG2344     0.0964
      9  N2       -38.7440   16.6040  -24.7210 N.am  2344  NDG2344    -0.2019
     10  O3       -36.2690   15.5350  -25.8070 O.3   2344  NDG2344    -0.2184
     11  O4       -34.1590   15.6350  -23.6760 O.3   2344  NDG2344    -0.2176
     12  O        -36.0790   18.7800  -23.2160 O.3   2344  NDG2344    -0.3489
     13  O6       -33.6610   19.7940  -22.4700 O.3   2344  NDG2344    -0.2176
     14  O7       -39.9150   18.4070  -25.4680 O.2   2344  NDG2344    -0.2733
@<TRIPOS>BOND
     1    10     3    1
     2    14     7    2
     3     8     7    1
     4     7     9   am
     5     9     2    1
     6     2     3    1
     7     2     1    1
     8     3     4    1
     9     4    11    1
    10     4     5    1
    11     1    12    1
    12     6     5    1
    13     6    13    1
    14    12     5    1
