@<TRIPOS>MOLECULE
4a6o_GAL_A_1.pdb
 12 12 0 0 0
SMALL
GASTEIGER

@<TRIPOS>ATOM
      1  C1       -39.4260   16.4530  -19.0790 C.3   2345  GAL2345     0.3024
      2  C2       -37.8980   16.5630  -19.2060 C.3   2345  GAL2345     0.2434
      3  C3       -37.4820   17.9350  -19.7690 C.3   2345  GAL2345     0.2199
      4  C4       -38.2420   18.2900  -21.0640 C.3   2345  GAL2345     0.2144
      5  C5       -39.7480   18.1460  -20.7320 C.3   2345  GAL2345     0.1836
      6  C6       -40.6800   18.5970  -21.8670 C.3   2345  GAL2345     0.2142
      7  O1       -39.7830   15.1290  -18.6760 O.3   2345  GAL2345    -0.1869
      8  O2       -37.2980   16.3690  -17.9240 O.3   2345  GAL2345    -0.2148
      9  O3       -36.0720   17.9500  -19.9990 O.3   2345  GAL2345    -0.2174
     10  O4       -37.8030   17.4310  -22.1430 O.3   2345  GAL2345    -0.2176
     11  O5       -40.0460   16.7750  -20.3500 O.3   2345  GAL2345    -0.3236
     12  O6       -41.5940   19.5770  -21.3660 O.3   2345  GAL2345    -0.2176
@<TRIPOS>BOND
     1    10     4    1
     2     6    12    1
     3     6     5    1
     4     4     5    1
     5     4     3    1
     6     5    11    1
     7    11     1    1
     8     9     3    1
     9     3     2    1
    10     2     1    1
    11     2     8    1
    12     1     7    1
