@<TRIPOS>MOLECULE
4a6r_TA8_A_1.pdb
 20 19 0 0 0
SMALL
GASTEIGER

@<TRIPOS>ATOM
      1  O42       30.6000   11.4460   17.4860 O.co2 1460  TA81460    -0.2457
      2  O41       32.7820   11.5200   17.6240 O.co2 1460  TA81460    -0.2457
      3  C4        31.6920   12.0310   17.2530 C.2   1460  TA81460     0.3649
      4  C41       31.7090   13.3480   16.5580 C.3   1460  TA81460     0.1146
      5  C32       32.5450   14.4020   17.2130 C.3   1460  TA81460     0.0231
      6  C3        30.8800   15.4350   18.6210 C.2   1460  TA81460     0.3643
      7  O31       29.9820   15.0140   19.3840 O.co2 1460  TA81460    -0.2457
      8  O32       30.6760   16.4360   17.8630 O.co2 1460  TA81460    -0.2457
      9  C22       33.2160   15.6070   19.3060 C.3   1460  TA81460     0.0225
     10  C2        35.5270   15.9210   20.1360 C.2   1460  TA81460     0.3643
     11  O21       35.6340   17.0650   19.6230 O.co2 1460  TA81460    -0.2457
     12  O22       36.2950   15.5860   21.0750 O.co2 1460  TA81460    -0.2457
     13  C10       36.5440   12.8620   20.7820 C.3   1460  TA81460     0.0118
     14  C11       35.5450   13.6920   21.5240 C.3   1460  TA81460     0.1040
     15  C12       34.3210   13.9140   20.6960 C.3   1460  TA81460     0.0225
     16  C1        35.2150   13.1120   22.8520 C.2   1460  TA81460     0.3643
     17  O12       35.9690   13.3540   23.8330 O.co2 1460  TA81460    -0.2457
     18  O11       34.1870   12.3940   22.9940 O.co2 1460  TA81460    -0.2457
     19  C21       34.5120   14.9440   19.6380 C.3   1460  TA81460     0.1045
     20  C31       32.1950   14.7360   18.6300 C.3   1460  TA81460     0.1045
@<TRIPOS>BOND
     1     4     5    1
     2     4     3    1
     3     5    20    1
     4     3     1   ar
     5     3     2   ar
     6     8     6   ar
     7     6    20    1
     8     6     7   ar
     9    20     9    1
    10     9    19    1
    11    11    10   ar
    12    19    10    1
    13    19    15    1
    14    10    12   ar
    15    15    14    1
    16    13    14    1
    17    14    16    1
    18    16    18   ar
    19    16    17   ar
