@<TRIPOS>MOLECULE
4a6s_GS9_A_1.pdb
 22 24 0 0 0
SMALL
GASTEIGER

@<TRIPOS>ATOM
      1  O2        11.9220   14.0320   68.5930 O.3   1123  GS91123    -0.2167
      2  C2        12.3860   14.1540   67.2590 C.3   1123  GS91123     0.2223
      3  C3        12.8210   12.7760   66.7370 C.3   1123  GS91123     0.2181
      4  O3        11.6700   11.9540   66.8610 O.3   1123  GS91123    -0.2175
      5  C4        13.2930   12.8730   65.2840 C.3   1123  GS91123     0.2143
      6  O4        12.1530   13.1410   64.4550 O.3   1123  GS91123    -0.2176
      7  C1        13.6040   15.0270   67.2280 C.3   1123  GS91123     0.1995
      8  O5        13.8860   15.1620   65.8200 O.3   1123  GS91123    -0.3394
      9  C5        14.3530   13.9840   65.1440 C.3   1123  GS91123     0.1820
     10  C6        14.6070   14.4570   63.7160 C.3   1123  GS91123     0.2142
     11  O6        15.7550   15.3480   63.7350 O.3   1123  GS91123    -0.2176
     12  S1        13.2460   16.6800   67.9720 S.3   1123  GS91123    -0.0825
     13  C7        14.7050   17.2410   68.3540 C.ar  1123  GS91123     0.0275
     14  C80       14.7730   18.3620   69.2040 C.ar  1123  GS91123     0.0062
     15  C8        15.8780   16.5940   67.9130 C.ar  1123  GS91123     0.0062
     16  C9        17.1240   17.0760   68.2910 C.ar  1123  GS91123     0.0005
     17  C10       18.3000   16.4530   67.8610 C.ar  1123  GS91123     0.0000
     18  C11       19.5280   17.0070   68.2720 C.ar  1123  GS91123     0.0000
     19  C12       19.6160   18.1260   69.1140 C.ar  1123  GS91123     0.0000
     20  C13       18.4660   18.7900   69.5590 C.ar  1123  GS91123     0.0000
     21  C14       17.2100   18.2790   69.1510 C.ar  1123  GS91123     0.0000
     22  C90       16.0120   18.8910   69.5790 C.ar  1123  GS91123     0.0005
@<TRIPOS>BOND
     1    10    11    1
     2    10     9    1
     3     6     5    1
     4     9     5    1
     5     9     8    1
     6     5     3    1
     7     8     7    1
     8     3     4    1
     9     3     2    1
    10     7     2    1
    11     7    12    1
    12     2     1    1
    13    17    18   ar
    14    17    16   ar
    15    15    16   ar
    16    15    13   ar
    17    12    13    1
    18    18    19   ar
    19    16    21   ar
    20    13    14   ar
    21    19    20   ar
    22    21    20   ar
    23    21    22   ar
    24    14    22   ar
