@<TRIPOS>MOLECULE
4a6t_PLP_A_1.pdb
 24 24 0 0 0
SMALL
GASTEIGER

@<TRIPOS>ATOM
      1  N1       -26.2600  -12.5780  -48.7240 N.2   1288  PLP1288    -0.4163
      2  C2       -26.6170  -13.6420  -49.4840 C.2   1288  PLP1288     0.1288
      3  C2A      -27.2800  -13.4530  -50.8210 C.3   1288  PLP1288    -0.0075
      4  C3       -26.3510  -15.0160  -49.0070 C.2   1288  PLP1288     0.1497
      5  O3       -26.7090  -16.0860  -49.7550 O.2   1288  PLP1288    -0.5039
      6  C4       -25.6930  -15.2110  -47.6990 C.2   1288  PLP1288    -0.0092
      7  C4A      -25.4130  -16.6350  -47.2330 C.3   1288  PLP1288    -0.0231
      8  C5       -25.3570  -13.9550  -46.9600 C.3   1288  PLP1288     0.0828
      9  C6       -25.6700  -12.7140  -47.5240 C.2   1288  PLP1288     0.0695
     10  C5A      -24.7030  -13.9510  -45.5960 C.3   1288  PLP1288     0.0757
     11  O4P      -23.4430  -14.6070  -45.5760 O.3   1288  PLP1288    -0.2823
     12  P        -22.8790  -15.2090  -44.1830 P.3   1288  PLP1288     0.5319
     13  O1P      -23.8100  -16.3600  -43.8910 O.3   1288  PLP1288    -0.1145
     14  O2P      -21.4580  -15.6130  -44.5080 O.2   1288  PLP1288    -0.2224
     15  O3P      -22.9990  -14.1050  -43.1640 O.3   1288  PLP1288    -0.1145
     16 H2A1      -27.9110  -14.2790  -51.0220 H     1288  PLP1288     0.0304
     17 H2A2      -27.8570  -12.5640  -50.8060 H     1288  PLP1288     0.0304
     18 H2A3      -26.5410  -13.3810  -51.5750 H     1288  PLP1288     0.0304
     19  HO3      -27.6080  -16.3540  -49.5240 H     1288  PLP1288     0.2923
     20  H4A      -24.6790  -16.6200  -46.4240 H     1288  PLP1288     0.0315
     21  H6       -25.4180  -11.8190  -46.9690 H     1288  PLP1288     0.0932
     22 H5A1      -24.5710  -12.9170  -45.2690 H     1288  PLP1288     0.0579
     23 H5A2      -25.3690  -14.4380  -44.8820 H     1288  PLP1288     0.0579
     24 H4A1      -26.3310  -17.0860  -46.8510 H     1288  PLP1288     0.0315
@<TRIPOS>BOND
     1    18     3    1
     2    16     3    1
     3     3    17    1
     4     3     2    1
     5     5    19    1
     6     5     4    1
     7     2     4    1
     8     2     1    2
     9     4     6    2
    10     1     9    2
    11     6     7    1
    12     6     8    1
    13     9    21    1
    14     9     8    1
    15     7    24    1
    16     7    20    1
    17     8    10    1
    18    10    11    1
    19    10    22    1
    20    10    23    1
    21    11    12    1
    22    14    12    2
    23    12    13    1
    24    12    15    1
