@<TRIPOS>MOLECULE
4a6v_IKY_A_1.pdb
 19 20 0 0 0
SMALL
GASTEIGER

@<TRIPOS>ATOM
      1  FAC       10.5040   -1.6960   -1.5380 F     1268  IKY1268    -0.1659
      2  CAS       11.6750   -1.1510   -1.4130 C.3   1268  IKY1268     0.4188
      3  FAD       12.4820   -1.9550   -2.0270 F     1268  IKY1268    -0.1659
      4  FAE       11.9530   -1.1320   -0.1170 F     1268  IKY1268    -0.1659
      5  CAR       11.7390    0.1700   -2.0570 C.ar  1268  IKY1268     0.0770
      6  CAI       12.8510    0.4890   -2.8530 C.ar  1268  IKY1268     0.0040
      7  CAG       12.8130    1.6820   -3.5610 C.ar  1268  IKY1268    -0.0001
      8  CAF       11.7670    2.5920   -3.4630 C.ar  1268  IKY1268     0.0002
      9  CAH       10.6530    2.3090   -2.6970 C.ar  1268  IKY1268     0.0057
     10  CAP       10.6610    1.0900   -1.9690 C.ar  1268  IKY1268     0.0699
     11  CAQ        9.5270    0.9470   -1.0370 C.2   1268  IKY1268     0.2775
     12  NAK        9.5080    0.5620    0.1950 N.2   1268  IKY1268    -0.3664
     13  OAM        8.3340    1.3870   -1.3780 O.2   1268  IKY1268    -0.4438
     14  CAJ        7.5060    1.2120   -0.2100 C.3   1268  IKY1268     0.2684
     15  CAO        8.3550    0.6580    0.7020 C.2   1268  IKY1268     0.1789
     16  CAN        7.9790    0.3060    2.1010 C.2   1268  IKY1268     0.1400
     17  OAA        6.7950    0.1110    2.4090 O.2   1268  IKY1268    -0.5344
     18  NAL        8.9210    0.1730    3.1010 N.am  1268  IKY1268    -0.1959
     19  OAB        8.5090   -0.1150    4.3330 O.3   1268  IKY1268    -0.4023
@<TRIPOS>BOND
     1     7     8   ar
     2     7     6   ar
     3     8     9   ar
     4     6     5   ar
     5     9    10   ar
     6     5    10   ar
     7     5     2    1
     8     3     2    1
     9    10    11    1
    10     1     2    1
    11     2     4    1
    12    13    11    1
    13    13    14    1
    14    11    12    2
    15    14    15    1
    16    12    15    2
    17    15    16    1
    18    16    17    2
    19    16    18   am
    20    18    19    1
