@<TRIPOS>MOLECULE
4a6w_5C1_A_1.pdb
 16 17 0 0 0
SMALL
GASTEIGER

@<TRIPOS>ATOM
      1  CAA       -1.9840   -0.4470    8.1340 C.ar  1265  5C11265     0.2530
      2  OAB        1.2690    0.3000    9.6770 O.3   1265  5C11265    -0.4022
      3  CAC       -3.8560   -1.2130    7.3880 C.ar  1265  5C11265     0.1396
      4  CAD       -4.1080   -0.7990    8.6510 C.ar  1265  5C11265     0.1671
      5  CAE       -0.5470   -0.1410    8.2650 C.2   1265  5C11265     0.1652
      6  CAF       -5.3710   -0.8280    9.4480 C.ar  1265  5C11265     0.0468
      7  CAG       -5.6910    0.1970   10.3560 C.ar  1265  5C11265     0.0606
      8  CAH       -6.7860    0.1230   11.2020 C.ar  1265  5C11265     0.0115
      9  CAI       -7.4700   -1.0620   11.2050 C.ar  1265  5C11265     0.0009
     10  NAI       -2.6460   -0.9900    7.1670 N.ar  1265  5C11265    -0.2050
     11  CAJ       -7.1900   -2.1130   10.3470 C.ar  1265  5C11265     0.0002
     12  CAK       -6.1000   -2.0130    9.5260 C.ar  1265  5C11265     0.0039
     13  NAL       -0.0210    0.1010    9.5600 N.am  1265  5C11265    -0.1937
     14  OAN       -2.8260   -0.2970    9.1060 O.2   1265  5C11265    -0.4330
     15  OAO        0.2030   -0.2140    7.2920 O.2   1265  5C11265    -0.5328
     16 CL         -4.7400    1.6060   10.4630 Cl    1265  5C11265    -0.0821
@<TRIPOS>BOND
     1    10     3   ar
     2    10     1   ar
     3    15     5    2
     4     3     4   ar
     5     1     5    1
     6     1    14   ar
     7     5    13   am
     8     4    14   ar
     9     4     6    1
    10     6    12   ar
    11     6     7   ar
    12    12    11   ar
    13    13     2    1
    14    11     9   ar
    15     7    16    1
    16     7     8   ar
    17     8     9   ar
