@<TRIPOS>MOLECULE
4a6x_ATP_A_1.pdb
 31 33 0 0 0
SMALL
GASTEIGER

@<TRIPOS>ATOM
      1  PG         0.6790    4.3710   12.5620 P.3   351  ATP351      0.5373
      2  O1G        1.7700    3.4500   12.1120 O.3   351  ATP351     -0.1143
      3  O2G        0.4940    5.6020   11.7270 O.2   351  ATP351     -0.2221
      4  O3G        0.7790    4.6310   14.0500 O.3   351  ATP351     -0.1143
      5  PB        -1.3330    2.6860   11.2530 P.3   351  ATP351      0.2277
      6  O1B       -0.2530    1.9500   10.5110 O.3   351  ATP351     -0.4368
      7  O2B       -2.2890    3.5670   10.4970 O.2   351  ATP351     -0.5168
      8  O3B       -0.7020    3.5280   12.4910 O.3   351  ATP351     -0.2258
      9  PA        -2.0810   -0.0170   11.9010 P.3   351  ATP351      0.2189
     10  O1A       -0.8310   -0.5110   12.5640 O.3   351  ATP351     -0.4371
     11  O2A       -2.3650   -0.3500   10.4490 O.2   351  ATP351     -0.5170
     12  O3A       -2.2040    1.5910   12.0660 O.3   351  ATP351     -0.2700
     13  O5'       -3.3550   -0.5160   12.7390 O.3   351  ATP351     -0.3112
     14  C5'       -3.2690   -0.8220   14.1230 C.3   351  ATP351      0.1813
     15  C4'       -4.6480   -1.3300   14.5110 C.3   351  ATP351      0.1821
     16  O4'       -4.9710   -2.4790   13.7280 O.3   351  ATP351     -0.3135
     17  C3'       -4.7210   -1.8350   15.9390 C.3   351  ATP351      0.2184
     18  O3'       -5.0060   -0.7850   16.8590 O.3   351  ATP351     -0.2174
     19  C2'       -5.8510   -2.8360   15.8930 C.3   351  ATP351      0.2570
     20  O2'       -7.0830   -2.1270   16.0690 O.3   351  ATP351     -0.2130
     21  C1'       -5.8180   -3.3610   14.4710 C.3   351  ATP351      0.3186
     22  N9        -5.2490   -4.7260   14.4010 N.pl3 351  ATP351     -0.1439
     23  C8        -3.9370   -5.0330   14.3460 C.3   351  ATP351      0.3377
     24  N7        -3.7520   -6.3710   14.2730 N.2   351  ATP351     -0.2095
     25  C5        -4.9690   -6.9430   14.2770 C.2   351  ATP351      0.2526
     26  C6        -5.4870   -8.3250   14.2220 C.2   351  ATP351      0.4393
     27  N6        -4.6440   -9.3780   14.1440 N.pl3 351  ATP351      0.2180
     28  N1        -6.8270   -8.4940   14.2490 N.2   351  ATP351      0.0021
     29  C2        -7.6670   -7.4470   14.3290 C.3   351  ATP351      0.5254
     30  N3        -7.2680   -6.1610   14.3850 N.2   351  ATP351     -0.0055
     31  C4        -5.9500   -5.8600   14.3650 C.2   351  ATP351      0.3518
@<TRIPOS>BOND
     1    11     9    2
     2     7     5    2
     3     6     5    1
     4     5    12    1
     5     5     8    1
     6     3     1    2
     7     9    12    1
     8     9    10    1
     9     9    13    1
    10     2     1    1
    11     8     1    1
    12     1     4    1
    13    13    14    1
    14    16    21    1
    15    16    15    1
    16    14    15    1
    17    27    26    1
    18    26    28    2
    19    26    25    1
    20    28    29    1
    21    24    25    2
    22    24    23    1
    23    25    31    1
    24    29    30    1
    25    23    22    1
    26    31    30    2
    27    31    22    1
    28    22    21    1
    29    21    19    1
    30    15    17    1
    31    19    17    1
    32    19    20    1
    33    17    18    1
