@<TRIPOS>MOLECULE
4a6z_HEM_A_1.pdb
 43 50 0 0 0
SMALL
GASTEIGER

@<TRIPOS>ATOM
      1  CHA      -14.3090    0.2430    1.0930 C.2   1295  HEM1295     0.0000
      2  CHB      -10.2300    0.3660    3.7290 C.2   1295  HEM1295     0.0000
      3  CHC       -8.9790    4.5190    1.5700 C.2   1295  HEM1295     0.0000
      4  CHD      -12.8030    4.1720   -1.4140 C.2   1295  HEM1295     0.0000
      5  C1A      -13.3130   -0.0760    1.9810 C.2   1295  HEM1295     0.0000
      6  C2A      -13.2980   -1.2460    2.8310 C.2   1295  HEM1295     0.0000
      7  C3A      -12.1790   -1.2170    3.5700 C.2   1295  HEM1295     0.0000
      8  C4A      -11.4390   -0.0270    3.2000 C.2   1295  HEM1295     0.0000
      9  CMA      -11.7290   -2.2580    4.6280 C.3   1295  HEM1295     0.0000
     10  CAA      -14.4200   -2.2980    2.8480 C.3   1295  HEM1295     0.0000
     11  CBA      -14.2450   -3.3420    1.7500 C.3   1295  HEM1295     0.0000
     12  CGA      -15.4640   -4.2320    1.7670 C.2   1295  HEM1295     0.0000
     13  O1A      -15.6820   -4.9520    2.7690 O.co2 1295  HEM1295     0.0000
     14  O2A      -16.2410   -4.2150    0.7830 O.co2 1295  HEM1295     0.0000
     15  C1B       -9.5550    1.5310    3.4240 C.ar  1295  HEM1295     0.0000
     16  C2B       -8.3680    2.0250    4.0900 C.ar  1295  HEM1295     0.0000
     17  C3B       -8.0160    3.1850    3.5010 C.ar  1295  HEM1295     0.0000
     18  C4B       -8.9760    3.4480    2.4360 C.ar  1295  HEM1295     0.0000
     19  CMB       -7.6640    1.3190    5.2730 C.3   1295  HEM1295     0.0000
     20  CAB       -6.8110    4.1020    3.8340 C.2   1295  HEM1295     0.0000
     21  CBB       -6.2550    4.1710    5.0500 C.2   1295  HEM1295     0.0000
     22  C1C       -9.8450    4.7320    0.5070 C.2   1295  HEM1295     0.0000
     23  C2C       -9.6620    5.6940   -0.5620 C.2   1295  HEM1295     0.0000
     24  C3C      -10.7200    5.6070   -1.4080 C.2   1295  HEM1295     0.0000
     25  C4C      -11.5970    4.5790   -0.8790 C.2   1295  HEM1295     0.0000
     26  CMC       -8.4250    6.6080   -0.6480 C.3   1295  HEM1295     0.0000
     27  CAC      -11.0000    6.3940   -2.7150 C.2   1295  HEM1295     0.0000
     28  CBC      -10.7510    7.6990   -2.8600 C.2   1295  HEM1295     0.0000
     29  C1D      -13.6060    3.1620   -0.9380 C.ar  1295  HEM1295     0.0000
     30  C2D      -14.9670    2.9200   -1.3750 C.ar  1295  HEM1295     0.0000
     31  C3D      -15.4330    1.7030   -0.5970 C.ar  1295  HEM1295     0.0000
     32  C4D      -14.3110    1.3170    0.2320 C.ar  1295  HEM1295     0.0000
     33  CMD      -15.7930    3.7060   -2.3970 C.3   1295  HEM1295     0.0000
     34  CAD      -16.8010    1.0150   -0.6650 C.3   1295  HEM1295     0.0000
     35  CBD      -16.7040   -0.0950   -1.7060 C.3   1295  HEM1295     0.0000
     36  CGD      -18.0170   -0.8350   -1.8210 C.2   1295  HEM1295     0.0000
     37  O1D      -18.0460   -1.8590   -2.5430 O.co2 1295  HEM1295     0.0000
     38  O2D      -19.0270   -0.3870   -1.2210 O.co2 1295  HEM1295     0.0000
     39  NA       -12.1560    0.6390    2.2220 N.2   1295  HEM1295     0.0000
     40  NB        -9.8960    2.4240    2.4260 N.ar  1295  HEM1295     0.0000
     41  NC       -11.0240    4.0690    0.2730 N.2   1295  HEM1295     0.0000
     42  ND       -13.2550    2.1890    0.0080 N.ar  1295  HEM1295     0.0000
     43 FE        -11.6970    2.4620    1.3830 Fe    1295  HEM1295     0.0000
@<TRIPOS>BOND
     1    28    27    2
     2    27    24    1
     3    37    36   ar
     4    33    30    1
     5    36    35    1
     6    36    38   ar
     7    35    34    1
     8     4    29    2
     9     4    25    1
    10    24    25    1
    11    24    23    2
    12    30    29   ar
    13    30    31   ar
    14    29    42   ar
    15    25    41    2
    16    34    31    1
    17    26    23    1
    18    31    32   ar
    19    23    22    1
    20    42    32   ar
    21    42    43    1
    22    32     1    2
    23    41    22    1
    24    41    43    1
    25    22     3    2
    26    14    12   ar
    27     1     5    1
    28    43    39    1
    29    43    40    1
    30     3    18    1
    31    11    12    1
    32    11    10    1
    33    12    13   ar
    34     5    39    2
    35     5     6    1
    36    39     8    1
    37    40    18   ar
    38    40    15   ar
    39    18    17   ar
    40     6    10    1
    41     6     7    2
    42     8     7    1
    43     8     2    2
    44    15     2    1
    45    15    16   ar
    46    17    20    1
    47    17    16   ar
    48     7     9    1
    49    20    21    2
    50    16    19    1
