@<TRIPOS>MOLECULE
4a71_HEM_A_1.pdb
 43 50 0 0 0
SMALL
GASTEIGER

@<TRIPOS>ATOM
      1  CHA      -14.3370    0.3400    1.2940 C.2   1295  HEM1295     0.0000
      2  CHB      -10.2730    0.4870    3.9820 C.2   1295  HEM1295     0.0000
      3  CHC       -9.0120    4.6050    1.7600 C.2   1295  HEM1295     0.0000
      4  CHD      -12.8100    4.2590   -1.2170 C.2   1295  HEM1295     0.0000
      5  C1A      -13.3480    0.0320    2.2010 C.2   1295  HEM1295     0.0000
      6  C2A      -13.3410   -1.1290    3.0660 C.2   1295  HEM1295     0.0000
      7  C3A      -12.2260   -1.0970    3.8180 C.2   1295  HEM1295     0.0000
      8  C4A      -11.4810    0.0910    3.4410 C.2   1295  HEM1295     0.0000
      9  CMA      -11.7900   -2.1320    4.8850 C.3   1295  HEM1295     0.0000
     10  CAA      -14.4510   -2.1940    3.1020 C.3   1295  HEM1295     0.0000
     11  CBA      -14.3110   -3.2080    1.9650 C.3   1295  HEM1295     0.0000
     12  CGA      -15.5100   -4.1150    2.0290 C.2   1295  HEM1295     0.0000
     13  O1A      -15.7090   -4.8160    3.0620 O.co2 1295  HEM1295     0.0000
     14  O2A      -16.2970   -4.1220    1.0530 O.co2 1295  HEM1295     0.0000
     15  C1B       -9.5950    1.6390    3.6510 C.ar  1295  HEM1295     0.0000
     16  C2B       -8.4070    2.1440    4.3030 C.ar  1295  HEM1295     0.0000
     17  C3B       -8.0410    3.2860    3.6930 C.ar  1295  HEM1295     0.0000
     18  C4B       -9.0140    3.5430    2.6380 C.ar  1295  HEM1295     0.0000
     19  CMB       -7.7070    1.4380    5.4780 C.3   1295  HEM1295     0.0000
     20  CAB       -6.8320    4.1930    4.0320 C.2   1295  HEM1295     0.0000
     21  CBB       -6.3440    4.2830    5.2760 C.2   1295  HEM1295     0.0000
     22  C1C       -9.8610    4.8180    0.6850 C.2   1295  HEM1295     0.0000
     23  C2C       -9.6660    5.7710   -0.4020 C.2   1295  HEM1295     0.0000
     24  C3C      -10.7290    5.6810   -1.2350 C.2   1295  HEM1295     0.0000
     25  C4C      -11.6120    4.6630   -0.6890 C.2   1295  HEM1295     0.0000
     26  CMC       -8.4370    6.6980   -0.5450 C.3   1295  HEM1295     0.0000
     27  CAC      -11.0020    6.4540   -2.5560 C.2   1295  HEM1295     0.0000
     28  CBC      -10.7110    7.7490   -2.7440 C.2   1295  HEM1295     0.0000
     29  C1D      -13.6120    3.2470   -0.7450 C.ar  1295  HEM1295     0.0000
     30  C2D      -14.9620    3.0100   -1.2040 C.ar  1295  HEM1295     0.0000
     31  C3D      -15.4500    1.7950   -0.4320 C.ar  1295  HEM1295     0.0000
     32  C4D      -14.3430    1.4070    0.4220 C.ar  1295  HEM1295     0.0000
     33  CMD      -15.7550    3.8270   -2.2420 C.3   1295  HEM1295     0.0000
     34  CAD      -16.8400    1.1520   -0.5630 C.3   1295  HEM1295     0.0000
     35  CBD      -16.7200   -0.1040   -1.4290 C.3   1295  HEM1295     0.0000
     36  CGD      -18.0570   -0.7870   -1.6210 C.2   1295  HEM1295     0.0000
     37  O1D      -18.0930   -1.8170   -2.3500 O.co2 1295  HEM1295     0.0000
     38  O2D      -19.0780   -0.3140   -1.0460 O.co2 1295  HEM1295     0.0000
     39  NA       -12.1920    0.7480    2.4510 N.2   1295  HEM1295     0.0000
     40  NB        -9.9380    2.5220    2.6410 N.ar  1295  HEM1295     0.0000
     41  NC       -11.0460    4.1610    0.4580 N.2   1295  HEM1295     0.0000
     42  ND       -13.2810    2.2850    0.2130 N.ar  1295  HEM1295     0.0000
     43 FE        -11.7240    2.5650    1.5720 Fe    1295  HEM1295     0.0000
@<TRIPOS>BOND
     1    28    27    2
     2    27    24    1
     3    37    36   ar
     4    33    30    1
     5    36    35    1
     6    36    38   ar
     7    35    34    1
     8    24    25    1
     9    24    23    2
    10     4    29    2
    11     4    25    1
    12    30    29   ar
    13    30    31   ar
    14    29    42   ar
    15    25    41    2
    16    34    31    1
    17    26    23    1
    18    31    32   ar
    19    23    22    1
    20    42    32   ar
    21    42    43    1
    22    32     1    2
    23    41    22    1
    24    41    43    1
    25    22     3    2
    26    14    12   ar
    27     1     5    1
    28    43    39    1
    29    43    40    1
    30     3    18    1
    31    11    12    1
    32    11    10    1
    33    12    13   ar
    34     5    39    2
    35     5     6    1
    36    39     8    1
    37    18    40   ar
    38    18    17   ar
    39    40    15   ar
    40     6    10    1
    41     6     7    2
    42     8     7    1
    43     8     2    2
    44    15     2    1
    45    15    16   ar
    46    17    20    1
    47    17    16   ar
    48     7     9    1
    49    20    21    2
    50    16    19    1
