@<TRIPOS>MOLECULE
4a72_PLP_C_1.pdb
 15 15 0 0 0
SMALL
GASTEIGER

@<TRIPOS>ATOM
      1  N1       -27.1720  -30.3190    9.2630 N.ar  1288  PLP1288    -0.2452
      2  C2       -27.3260  -31.3880    8.4480 C.ar  1288  PLP1288     0.0978
      3  C2A      -28.1340  -31.2700    7.1830 C.3   1288  PLP1288     0.0555
      4  C3       -26.6950  -32.6820    8.7970 C.ar  1288  PLP1288     0.2049
      5  O3       -26.8390  -33.7650    7.9860 O.3   1288  PLP1288    -0.2857
      6  C4       -25.9100  -32.7590   10.0500 C.ar  1288  PLP1288     0.0182
      7  C4A      -25.2380  -34.0610   10.4370 C.3   1288  PLP1288     0.0342
      8  C5       -25.8140  -31.5080   10.8520 C.ar  1288  PLP1288     0.0261
      9  C6       -26.4630  -30.3580   10.4040 C.ar  1288  PLP1288     0.0965
     10  C5A      -25.0520  -31.4310   12.1560 C.3   1288  PLP1288     0.1815
     11  O4P      -23.7080  -31.8880   12.0390 O.3   1288  PLP1288    -0.2653
     12  P        -22.8910  -32.2810   13.3740 P.3   1288  PLP1288     0.5329
     13  O1P      -23.6050  -33.5170   13.8670 O.3   1288  PLP1288    -0.1145
     14  O2P      -21.4820  -32.5180   12.8820 O.2   1288  PLP1288    -0.2224
     15  O3P      -23.0400  -31.0920   14.2920 O.3   1288  PLP1288    -0.1145
@<TRIPOS>BOND
     1     3     2    1
     2     5     4    1
     3     2     4   ar
     4     2     1   ar
     5     4     6   ar
     6     1     9   ar
     7     6     7    1
     8     6     8   ar
     9     9     8   ar
    10     8    10    1
    11    11    10    1
    12    11    12    1
    13    14    12    2
    14    12    13    1
    15    12    15    1
