@<TRIPOS>MOLECULE
4a74_ANP_A_1.pdb
 31 33 0 0 0
SMALL
GASTEIGER

@<TRIPOS>ATOM
      1  N1        26.6550   -8.0320  -13.9870 N.2   1351  ANP1351     0.0021
      2  C2        27.5550   -6.8150  -14.1760 C.3   1351  ANP1351     0.5254
      3  N3        27.0140   -5.5880  -14.3680 N.2   1351  ANP1351    -0.0055
      4  C4        25.5470   -5.4280  -14.3940 C.2   1351  ANP1351     0.3518
      5  C5        24.7660   -6.5070  -14.2290 C.2   1351  ANP1351     0.2526
      6  C6        25.3770   -7.9020  -14.0170 C.2   1351  ANP1351     0.4393
      7  N6        24.4890   -9.0470  -13.8480 N.pl3 1351  ANP1351     0.2180
      8  N7        23.3360   -6.1270  -14.2950 N.2   1351  ANP1351    -0.2095
      9  C8        23.2590   -4.8510  -14.4900 C.3   1351  ANP1351     0.3377
     10  N9        24.6620   -4.2610  -14.5700 N.pl3 1351  ANP1351    -0.1439
     11  PA        22.4530    0.4970  -11.8160 P.3   1351  ANP1351     0.2220
     12  PB        21.6430    3.2590  -11.3000 P.3   1351  ANP1351     0.4669
     13  PG        19.5920    4.9450  -12.5960 P.3   1351  ANP1351     0.4884
     14  C1'       24.8520   -2.8430  -14.8200 C.3   1351  ANP1351     0.3186
     15  O1A       21.2010    0.0570  -12.4140 O.2   1351  ANP1351    -0.5170
     16  O1B       20.6360    2.5820  -10.4620 O.3   1351  ANP1351    -0.1253
     17  O3G       19.8400    6.1500  -11.8090 O.3   1351  ANP1351    -0.1240
     18  C2'       25.9470   -2.2960  -15.5170 C.3   1351  ANP1351     0.2570
     19  O2'       25.9860   -2.7200  -16.8590 O.3   1351  ANP1351    -0.2130
     20  O2A       22.5780    0.1160  -10.4060 O.3   1351  ANP1351    -0.4370
     21  O2B       22.4310    4.2460  -10.5570 O.2   1351  ANP1351    -0.2351
     22  O2G       19.2480    5.2850  -13.9850 O.2   1351  ANP1351    -0.2331
     23  O3'       26.4860   -0.2820  -15.2470 O.3   1351  ANP1351    -0.2174
     24  O3A       22.6230    2.1310  -11.9950 O.3   1351  ANP1351    -0.2360
     25  N3B       21.0100    4.0110  -12.6930 N.3   1351  ANP1351    -0.0163
     26  O1G       18.4550    4.1910  -12.0670 O.3   1351  ANP1351    -0.1240
     27  C4'       24.6130   -0.9460  -14.5540 C.3   1351  ANP1351     0.1821
     28  O4'       24.8280   -2.0580  -13.7650 O.3   1351  ANP1351    -0.3135
     29  C5'       24.4380    0.2790  -13.7120 C.3   1351  ANP1351     0.1813
     30  O5'       23.7530   -0.2230  -12.5520 O.3   1351  ANP1351    -0.3111
     31  C3'       25.5890   -1.0180  -15.4510 C.3   1351  ANP1351     0.2184
@<TRIPOS>BOND
     1    19    18    1
     2    18    31    1
     3    18    14    1
     4    31    23    1
     5    31    27    1
     6    14    10    1
     7    14    28    1
     8    10     9    1
     9    10     4    1
    10    27    28    1
    11    27    29    1
    12     9     8    1
    13     4     3    2
    14     4     5    1
    15     3     2    1
    16     8     5    2
    17     5     6    1
    18     2     1    1
    19     6     1    2
    20     6     7    1
    21    22    13    2
    22    29    30    1
    23    25    13    1
    24    25    12    1
    25    13    26    1
    26    13    17    1
    27    30    11    1
    28    15    11    2
    29    24    11    1
    30    24    12    1
    31    11    20    1
    32    12    21    2
    33    12    16    1
