@<TRIPOS>MOLECULE
4a78_HEM_A_1.pdb
 43 50 0 0 0
SMALL
GASTEIGER

@<TRIPOS>ATOM
      1  CHA      -14.3190    0.4640    1.0580 C.2   1295  HEM1295     0.0000
      2  CHB      -10.1940    0.3730    3.7110 C.2   1295  HEM1295     0.0000
      3  CHC       -8.8810    4.6700    1.7330 C.2   1295  HEM1295     0.0000
      4  CHD      -12.6550    4.3720   -1.3610 C.2   1295  HEM1295     0.0000
      5  C1A      -13.3450    0.0770    1.9390 C.2   1295  HEM1295     0.0000
      6  C2A      -13.3680   -1.0990    2.7490 C.2   1295  HEM1295     0.0000
      7  C3A      -12.2310   -1.1300    3.5150 C.2   1295  HEM1295     0.0000
      8  C4A      -11.4390    0.0300    3.1880 C.2   1295  HEM1295     0.0000
      9  CMA      -11.7790   -2.1990    4.5430 C.3   1295  HEM1295     0.0000
     10  CAA      -14.5470   -2.0970    2.7020 C.3   1295  HEM1295     0.0000
     11  CBA      -14.1850   -3.1860    1.7060 C.3   1295  HEM1295     0.0000
     12  CGA      -15.3520   -4.1160    1.5830 C.2   1295  HEM1295     0.0000
     13  O1A      -15.6040   -4.8400    2.5420 O.co2 1295  HEM1295     0.0000
     14  O2A      -16.0380   -4.1500    0.5400 O.co2 1295  HEM1295     0.0000
     15  C1B       -9.5120    1.5680    3.4920 C.ar  1295  HEM1295     0.0000
     16  C2B       -8.3730    2.0900    4.2210 C.ar  1295  HEM1295     0.0000
     17  C3B       -8.0130    3.2880    3.6820 C.ar  1295  HEM1295     0.0000
     18  C4B       -8.9130    3.5550    2.5700 C.ar  1295  HEM1295     0.0000
     19  CMB       -7.7510    1.3430    5.4320 C.3   1295  HEM1295     0.0000
     20  CAB       -6.8730    4.2830    4.0500 C.2   1295  HEM1295     0.0000
     21  CBB       -6.1930    4.3000    5.1960 C.2   1295  HEM1295     0.0000
     22  C1C       -9.6990    4.9180    0.6250 C.2   1295  HEM1295     0.0000
     23  C2C       -9.5050    5.8950   -0.4230 C.2   1295  HEM1295     0.0000
     24  C3C      -10.5720    5.7860   -1.2930 C.2   1295  HEM1295     0.0000
     25  C4C      -11.4580    4.7670   -0.7940 C.2   1295  HEM1295     0.0000
     26  CMC       -8.2570    6.8130   -0.5090 C.3   1295  HEM1295     0.0000
     27  CAC      -10.8880    6.5530   -2.5890 C.2   1295  HEM1295     0.0000
     28  CBC      -10.7080    7.8780   -2.6400 C.2   1295  HEM1295     0.0000
     29  C1D      -13.5370    3.3970   -0.9250 C.ar  1295  HEM1295     0.0000
     30  C2D      -14.9320    3.2220   -1.3540 C.ar  1295  HEM1295     0.0000
     31  C3D      -15.4260    1.9890   -0.5970 C.ar  1295  HEM1295     0.0000
     32  C4D      -14.3060    1.5490    0.2080 C.ar  1295  HEM1295     0.0000
     33  CMD      -15.7640    4.0450   -2.3710 C.3   1295  HEM1295     0.0000
     34  CAD      -16.8280    1.3640   -0.6440 C.3   1295  HEM1295     0.0000
     35  CBD      -16.7440    0.1370   -1.5340 C.3   1295  HEM1295     0.0000
     36  CGD      -18.1110   -0.4910   -1.5860 C.2   1295  HEM1295     0.0000
     37  O1D      -18.1840   -1.6250   -2.1480 O.co2 1295  HEM1295     0.0000
     38  O2D      -19.0870    0.1300   -1.0790 O.co2 1295  HEM1295     0.0000
     39  NA       -12.1530    0.7300    2.2000 N.2   1295  HEM1295     0.0000
     40  NB        -9.8110    2.4990    2.5030 N.ar  1295  HEM1295     0.0000
     41  NC       -10.8860    4.2680    0.3620 N.2   1295  HEM1295     0.0000
     42  ND       -13.2210    2.3940   -0.0240 N.ar  1295  HEM1295     0.0000
     43 FE        -11.6380    2.5550    1.3830 Fe    1295  HEM1295     0.0000
@<TRIPOS>BOND
     1    28    27    2
     2    27    24    1
     3    33    30    1
     4    37    36   ar
     5    36    35    1
     6    36    38   ar
     7    35    34    1
     8     4    29    2
     9     4    25    1
    10    30    29   ar
    11    30    31   ar
    12    24    25    1
    13    24    23    2
    14    29    42   ar
    15    25    41    2
    16    34    31    1
    17    31    32   ar
    18    26    23    1
    19    23    22    1
    20    42    32   ar
    21    42    43    1
    22    32     1    2
    23    41    22    1
    24    41    43    1
    25    14    12   ar
    26    22     3    2
    27     1     5    1
    28    43    39    1
    29    43    40    1
    30    12    11    1
    31    12    13   ar
    32    11    10    1
    33     3    18    1
    34     5    39    2
    35     5     6    1
    36    39     8    1
    37    40    18   ar
    38    40    15   ar
    39    18    17   ar
    40    10     6    1
    41     6     7    2
    42     8     7    1
    43     8     2    2
    44    15     2    1
    45    15    16   ar
    46     7     9    1
    47    17    20    1
    48    17    16   ar
    49    20    21    2
    50    16    19    1
