@<TRIPOS>MOLECULE
4a79_P1B_A_1.pdb
 25 27 0 0 0
SMALL
GASTEIGER

@<TRIPOS>ATOM
      1  O4        52.2780  152.2830   26.7790 O.2   601  P1B601     -0.2125
      2  C4        52.5720  153.3300   26.2080 C.1   601  P1B601      0.2022
      3  N3        53.3420  153.3640   25.1010 N.2   601  P1B601     -0.2557
      4  C5        52.0760  154.6880   26.7090 C.3   601  P1B601      0.1865
      5  S1        53.0010  155.8100   25.6460 S.3   601  P1B601      0.0093
      6  C2        53.7950  154.5860   24.7540 C.1   601  P1B601      0.2450
      7  O2        54.6650  154.8090   23.9110 O.2   601  P1B601     -0.2017
      8  C6        52.4870  154.8770   28.1570 C.3   601  P1B601      0.0562
      9  C21       47.7110  159.8210   34.4310 C.ar  601  P1B601     -0.0015
     10  C7        51.7280  156.0320   28.8090 C.ar  601  P1B601     -0.0199
     11  C12       52.2920  157.3110   28.8940 C.ar  601  P1B601     -0.0011
     12  C11       51.5680  158.3380   29.5100 C.ar  601  P1B601      0.0366
     13  C10       50.2960  158.0790   30.0320 C.ar  601  P1B601      0.1385
     14  C9        49.7470  156.8010   29.9390 C.ar  601  P1B601      0.0366
     15  C8        50.4640  155.7810   29.3360 C.ar  601  P1B601     -0.0011
     16  O13       49.5390  159.0360   30.6360 O.3   601  P1B601     -0.4750
     17  C14       49.8700  160.4280   30.4310 C.3   601  P1B601      0.2117
     18  C15       48.7700  161.2710   31.0830 C.3   601  P1B601      0.0931
     19  C24       49.1750  158.7930   37.1220 C.3   601  P1B601      0.0051
     20  C23       48.6370  160.1880   36.7830 C.3   601  P1B601      0.0279
     21  C20       48.6360  160.4470   35.2650 C.ar  601  P1B601     -0.0030
     22  C19       49.5700  161.3230   34.7060 C.ar  601  P1B601      0.0941
     23  N18       49.5900  161.5590   33.3970 N.ar  601  P1B601     -0.2484
     24  C22       47.7420  160.0890   33.0660 C.ar  601  P1B601      0.0145
     25  C17       48.7050  160.9710   32.5720 C.ar  601  P1B601      0.0627
@<TRIPOS>BOND
     1     7     6    2
     2     6     3    2
     3     6     5    1
     4     3     2    2
     5     5     4    1
     6     2     4    1
     7     2     1    2
     8     4     8    1
     9     8    10    1
    10    10    11   ar
    11    10    15   ar
    12    11    12   ar
    13    15    14   ar
    14    12    13   ar
    15    14    13   ar
    16    13    16    1
    17    17    16    1
    18    17    18    1
    19    18    25    1
    20    25    24   ar
    21    25    23   ar
    22    24     9   ar
    23    23    22   ar
    24     9    21   ar
    25    22    21   ar
    26    21    20    1
    27    20    19    1
