@<TRIPOS>MOLECULE
4a7a_RGZ_A_1.pdb
 19 20 0 0 0
SMALL
GASTEIGER

@<TRIPOS>ATOM
      1  N16       48.1640  160.4240   32.2530 N.3   601  RGZ601     -0.2126
      2  C16       47.0810  159.9120   31.3970 C.3   601  RGZ601      0.1076
      3  C15       49.4420  160.9950   31.7900 C.3   601  RGZ601      0.1359
      4  C14       50.3450  159.9280   31.1530 C.3   601  RGZ601      0.2241
      5  O13       49.5820  158.9230   30.4240 O.3   601  RGZ601     -0.4739
      6  C10       50.3000  157.9170   29.8420 C.ar  601  RGZ601      0.1386
      7  C9        49.7360  156.6450   29.7910 C.ar  601  RGZ601      0.0366
      8  C8        50.4240  155.5950   29.1930 C.ar  601  RGZ601     -0.0011
      9  C11       51.5610  158.1410   29.2820 C.ar  601  RGZ601      0.0366
     10  C12       52.2560  157.0880   28.6850 C.ar  601  RGZ601     -0.0011
     11  C7        51.6810  155.8130   28.6360 C.ar  601  RGZ601     -0.0199
     12  C6        52.4350  154.6380   28.0010 C.3   601  RGZ601      0.0562
     13  C5        52.0160  154.4360   26.5560 C.3   601  RGZ601      0.1865
     14  S1        52.9250  155.6590   25.5600 S.3   601  RGZ601      0.0093
     15  C2        53.5800  154.3350   24.6570 C.1   601  RGZ601      0.2450
     16  O2        54.4750  154.5180   23.8320 O.2   601  RGZ601     -0.2017
     17  N3        53.0880  153.1170   24.8850 N.2   601  RGZ601     -0.2557
     18  C4        52.4630  153.0610   26.0630 C.1   601  RGZ601      0.2022
     19  O4        52.2710  152.0180   26.6830 O.2   601  RGZ601     -0.2125
@<TRIPOS>BOND
     1    16    15    2
     2    15    17    2
     3    15    14    1
     4    17    18    2
     5    14    13    1
     6    18    13    1
     7    18    19    2
     8    13    12    1
     9    12    11    1
    10    11    10   ar
    11    11     8   ar
    12    10     9   ar
    13     8     7   ar
    14     9     6   ar
    15     7     6   ar
    16     6     5    1
    17     5     4    1
    18     4     3    1
    19     2     1    1
    20     3     1    1
