@<TRIPOS>MOLECULE
4a7b_3W4_B_1.pdb
 35 39 0 0 0
SMALL
GASTEIGER

@<TRIPOS>ATOM
      1  C1        56.2430  -14.3100   22.9080 C.ar  1000  3W41000     0.0114
      2  C2        55.4310  -13.4410   23.6000 C.ar  1000  3W41000     0.0381
      3  C3        55.7920  -13.0380   24.8750 C.ar  1000  3W41000     0.1453
      4  C4        56.9490  -13.4700   25.4910 C.ar  1000  3W41000     0.0381
      5  C5        57.7610  -14.3430   24.7980 C.ar  1000  3W41000     0.0114
      6  C6        57.4060  -14.7520   23.5220 C.ar  1000  3W41000     0.0419
      7  C7        58.3170  -15.6510   22.8700 C.1   1000  3W41000    -0.0620
      8  C8        59.1570  -16.3660   22.3670 C.1   1000  3W41000    -0.0562
      9  C9        60.2630  -17.1520   21.8170 C.3   1000  3W41000     0.1939
     10  C10       61.1390  -17.7420   22.9390 C.3   1000  3W41000     0.1155
     11  N1        62.5450  -17.3910   22.6120 N.3   1000  3W41000    -0.2698
     12  C11       62.9330  -17.9890   21.2950 C.3   1000  3W41000     0.0723
     13  C12       62.0620  -17.3710   20.1880 C.3   1000  3W41000     0.0209
     14  C13       61.0760  -16.3720   20.7870 C.3   1000  3W41000     0.0438
     15  C14       61.8980  -15.2780   21.4440 C.3   1000  3W41000     0.0209
     16  C15       62.7440  -15.8940   22.5700 C.3   1000  3W41000     0.0723
     17  O1        59.7120  -18.2070   21.0910 O.3   1000  3W41000    -0.2110
     18  O2        55.0250  -12.1380   25.6070 O.3   1000  3W41000    -0.4535
     19  C16       53.6650  -12.2620   25.8240 C.ar  1000  3W41000     0.1453
     20  C17       52.9890  -13.4600   25.7220 C.ar  1000  3W41000     0.0376
     21  C18       51.6350  -13.4680   25.9590 C.ar  1000  3W41000     0.0077
     22  C19       50.9990  -12.3000   26.3220 C.ar  1000  3W41000     0.0552
     23  C20       51.6620  -11.1100   26.4300 C.ar  1000  3W41000     0.0077
     24  C21       53.0190  -11.0950   26.1630 C.ar  1000  3W41000     0.0376
     25  C22       49.5620  -12.3460   26.6200 C.2   1000  3W41000     0.2648
     26  O3        49.1130  -11.6560   27.5280 O.2   1000  3W41000    -0.2684
     27  N2        48.8920  -13.2740   25.8430 N.am  1000  3W41000    -0.2016
     28  C23       47.4620  -13.4790   25.8420 C.3   1000  3W41000     0.1192
     29  C24       46.5290  -12.2520   25.6370 C.3   1000  3W41000     0.0253
     30  C25       45.0040  -12.4750   25.6820 C.3   1000  3W41000     0.0271
     31  C26       44.6660  -13.1650   26.9760 C.3   1000  3W41000     0.1509
     32  S1        45.4290  -14.7750   26.8400 S.O2  1000  3W41000    -0.0083
     33  O4        45.1920  -15.1770   25.4540 O.2   1000  3W41000    -0.1729
     34  O5        45.2300  -15.6200   28.0050 O.2   1000  3W41000    -0.1729
     35  C27       47.1550  -14.4340   26.9760 C.3   1000  3W41000     0.1723
@<TRIPOS>BOND
     1    13    14    1
     2    13    12    1
     3    14    15    1
     4    14     9    1
     5    17     9    1
     6    12    11    1
     7    15    16    1
     8     9     8    1
     9     9    10    1
    10     8     7    3
    11    16    11    1
    12    11    10    1
    13     7     6    1
    14     1     6   ar
    15     1     2   ar
    16     6     5   ar
    17     2     3   ar
    18     5     4   ar
    19     3     4   ar
    20     3    18    1
    21    33    32    2
    22    18    19    1
    23    29    30    1
    24    29    28    1
    25    30    31    1
    26    20    19   ar
    27    20    21   ar
    28    19    24   ar
    29    28    27    1
    30    28    35    1
    31    27    25   am
    32    21    22   ar
    33    24    23   ar
    34    22    23   ar
    35    22    25    1
    36    25    26    2
    37    32    31    1
    38    32    35    1
    39    32    34    2
