@<TRIPOS>MOLECULE
4a7b_3W5_A_1.pdb
 35 39 0 0 0
SMALL
GASTEIGER

@<TRIPOS>ATOM
      1  C1        23.9110   14.2050   12.7810 C.ar  1000  3W51000     0.0114
      2  C2        24.2880   13.6590   13.9850 C.ar  1000  3W51000     0.0381
      3  C3        23.3660   12.9000   14.6890 C.ar  1000  3W51000     0.1453
      4  C4        22.0840   12.6880   14.2450 C.ar  1000  3W51000     0.0381
      5  C5        21.7000   13.2360   13.0350 C.ar  1000  3W51000     0.0114
      6  C6        22.6330   13.9790   12.3350 C.ar  1000  3W51000     0.0419
      7  C7        22.1850   14.4810   11.1120 C.1   1000  3W51000    -0.0620
      8  C8        21.8400   14.8780   10.0370 C.1   1000  3W51000    -0.0562
      9  C9        21.3920   15.2990    8.7370 C.3   1000  3W51000     0.1939
     10  C10       19.8850   15.0890    8.7540 C.3   1000  3W51000     0.1155
     11  N1        19.5190   14.2480    7.5690 N.3   1000  3W51000    -0.2698
     12  C11       19.8790   14.9550    6.2870 C.3   1000  3W51000     0.0723
     13  C12       21.4000   15.0780    6.2760 C.3   1000  3W51000     0.0209
     14  C13       22.0220   14.5120    7.5660 C.3   1000  3W51000     0.0438
     15  C14       21.6320   13.0120    7.6580 C.3   1000  3W51000     0.0209
     16  C15       20.0880   12.8560    7.6960 C.3   1000  3W51000     0.0723
     17  O1        21.7950   16.6640    8.6780 O.3   1000  3W51000    -0.2110
     18  O2        23.6460   12.3080   15.8780 O.3   1000  3W51000    -0.4535
     19  C16       24.2550   12.9870   16.9000 C.ar  1000  3W51000     0.1453
     20  C21       24.3350   14.3600   17.0040 C.ar  1000  3W51000     0.0376
     21  C20       24.9580   14.9150   18.1110 C.ar  1000  3W51000     0.0077
     22  C19       25.4850   14.1000   19.0830 C.ar  1000  3W51000     0.0552
     23  C18       25.4220   12.7390   18.9790 C.ar  1000  3W51000     0.0077
     24  C17       24.7890   12.1780   17.8800 C.ar  1000  3W51000     0.0376
     25  C22       26.2000   14.6530   20.2400 C.2   1000  3W51000     0.2648
     26  O3        26.2290   14.0410   21.3000 O.2   1000  3W51000    -0.2684
     27  N2        26.8850   15.8210   19.8930 N.am  1000  3W51000    -0.2016
     28  C23       27.3570   16.8950   20.7520 C.3   1000  3W51000     0.1192
     29  C24       26.4420   17.2620   21.8930 C.3   1000  3W51000     0.0253
     30  C25       26.9780   18.4060   22.7550 C.3   1000  3W51000     0.0271
     31  C26       28.0140   17.8530   23.7070 C.3   1000  3W51000     0.1509
     32  S1        29.3260   17.5900   22.5720 S.O2  1000  3W51000    -0.0083
     33  O5        30.4500   16.8140   23.0920 O.2   1000  3W51000    -0.1729
     34  O4        29.3980   18.9400   22.0280 O.2   1000  3W51000    -0.1729
     35  C27       28.7340   16.5410   21.2380 C.3   1000  3W51000     0.1723
@<TRIPOS>BOND
     1    13    12    1
     2    13    14    1
     3    12    11    1
     4    14    15    1
     5    14     9    1
     6    11    16    1
     7    11    10    1
     8    15    16    1
     9    17     9    1
    10     9    10    1
    11     9     8    1
    12     8     7    3
    13     7     6    1
    14     6     1   ar
    15     6     5   ar
    16     1     2   ar
    17     5     4   ar
    18     2     3   ar
    19     4     3   ar
    20     3    18    1
    21    18    19    1
    22    19    20   ar
    23    19    24   ar
    24    20    21   ar
    25    24    23   ar
    26    21    22   ar
    27    23    22   ar
    28    22    25    1
    29    27    25   am
    30    27    28    1
    31    25    26    2
    32    28    35    1
    33    28    29    1
    34    35    32    1
    35    29    30    1
    36    34    32    2
    37    32    33    2
    38    32    31    1
    39    30    31    1
