@<TRIPOS>MOLECULE
4a7c_E46_A_1.pdb
 28 31 0 0 0
SMALL
GASTEIGER

@<TRIPOS>ATOM
      1  FAA      -45.7690   -2.1330    2.1850 F     1306  E461306    -0.1328
      2  CBB      -45.9770   -1.3950    1.1070 C.3   1306  E461306     0.5753
      3  FAB      -46.6310   -0.3020    1.4530 F     1306  E461306    -0.1328
      4  FAC      -46.6500   -2.0170    0.1560 F     1306  E461306    -0.1328
      5  OAT      -44.6990   -1.0480    0.6290 O.3   1306  E461306    -0.4044
      6  CAU      -44.1440   -1.5640   -0.5060 C.ar  1306  E461306     0.1481
      7  CAI      -42.8300   -1.9780   -0.4390 C.ar  1306  E461306     0.0538
      8  CAE      -44.8400   -1.6370   -1.6970 C.ar  1306  E461306     0.0373
      9  CAD      -44.1850   -2.1480   -2.8040 C.ar  1306  E461306     0.0045
     10  CAF      -42.8610   -2.5620   -2.7090 C.ar  1306  E461306     0.0169
     11  CAW      -42.1400   -2.4950   -1.5210 C.ar  1306  E461306     0.0789
     12  NBA      -40.8720   -2.8880   -1.4370 N.pl3 1306  E461306    -0.1528
     13  NAP      -40.2180   -3.4010   -2.5500 N.pl3 1306  E461306    -0.0381
     14  NAO      -38.9420   -3.6920   -2.0310 N.2   1306  E461306    -0.1391
     15  CAX      -38.9100   -3.3660   -0.7150 C.2   1306  E461306     0.1476
     16  CAH      -37.8960   -3.4630    0.2130 C.2   1306  E461306     0.0288
     17  CAG      -38.1230   -3.0500    1.5120 C.2   1306  E461306     0.0509
     18  CAY      -40.1400   -2.8490   -0.3240 C.2   1306  E461306     0.2265
     19  NAQ      -40.3490   -2.4470    0.9570 N.2   1306  E461306    -0.3671
     20  CAV      -39.3540   -2.5400    1.8830 C.2   1306  E461306     0.2009
     21  NAS      -39.4880   -2.1430    3.1760 N.pl3 1306  E461306    -0.2097
     22  CAN      -40.7280   -1.6640    3.7530 C.3   1306  E461306     0.1149
     23  CAZ      -41.6080   -2.8530    4.1150 C.3   1306  E461306     0.0246
     24  CAL      -42.5280   -2.4540    5.2740 C.3   1306  E461306     0.0206
     25  CAM      -40.7370   -4.0560    4.4920 C.3   1306  E461306     0.0206
     26  CAK      -41.5990   -5.2410    4.9270 C.3   1306  E461306     0.0888
     27  NAR      -42.9960   -4.8470    4.9880 N.3   1306  E461306    -0.2180
     28  CAJ      -43.3730   -3.6440    5.7230 C.3   1306  E461306     0.0888
@<TRIPOS>BOND
     1     9    10   ar
     2     9     8   ar
     3    10    11   ar
     4    13    14    1
     5    13    12    1
     6    14    15    2
     7     8     6   ar
     8    11    12    1
     9    11     7   ar
    10    12    18    1
    11    15    18    1
    12    15    16    1
    13     6     7   ar
    14     6     5    1
    15    18    19    2
    16     4     2    1
    17    16    17    2
    18     5     2    1
    19    19    20    2
    20     2     3    1
    21     2     1    1
    22    17    20    1
    23    20    21    1
    24    21    22    1
    25    22    23    1
    26    23    25    1
    27    23    24    1
    28    25    26    1
    29    26    27    1
    30    27    28    1
    31    24    28    1
