@<TRIPOS>MOLECULE
4a7f_ADP_A_1.pdb
 27 29 0 0 0
SMALL
GASTEIGER

@<TRIPOS>ATOM
      1  PB       156.0800  161.5260  215.0310 P.3   376  ADP376      0.5373
      2  O1B      156.2370  162.1670  213.7160 O.2   376  ADP376     -0.2221
      3  O2B      155.7090  162.5870  216.0170 O.3   376  ADP376     -0.1143
      4  O3B      155.2080  160.2470  215.0640 O.3   376  ADP376     -0.1143
      5  PA       159.0130  161.4130  214.9830 P.3   376  ADP376      0.2231
      6  O1A      159.4130  160.8860  213.6660 O.2   376  ADP376     -0.5169
      7  O2A      159.1910  162.8850  215.1520 O.3   376  ADP376     -0.4370
      8  O3A      157.5400  161.0130  215.3870 O.3   376  ADP376     -0.2261
      9  O5'      159.9280  160.6140  216.0260 O.3   376  ADP376     -0.3111
     10  C5'      159.7890  160.9620  217.4480 C.3   376  ADP376      0.1813
     11  C4'      160.1420  159.6900  218.2250 C.3   376  ADP376      0.1821
     12  O4'      161.4940  159.3080  217.8470 O.3   376  ADP376     -0.3135
     13  C3'      160.1360  159.9310  219.7600 C.3   376  ADP376      0.2184
     14  O3'      159.5890  158.7290  220.3560 O.3   376  ADP376     -0.2174
     15  C2'      161.6370  159.9970  220.0770 C.3   376  ADP376      0.2570
     16  O2'      161.9580  159.5820  221.4170 O.3   376  ADP376     -0.2130
     17  C1'      162.2570  159.1530  218.9990 C.3   376  ADP376      0.3186
     18  N9       163.6630  159.4060  218.7360 N.pl3 376  ADP376     -0.1439
     19  C8       164.2660  160.5770  218.4020 C.3   376  ADP376      0.3377
     20  N7       165.5660  160.5370  218.2650 N.2   376  ADP376     -0.2095
     21  C5       165.8270  159.2560  218.4970 C.2   376  ADP376      0.2526
     22  C6       167.0370  158.5860  218.5130 C.2   376  ADP376      0.4393
     23  N6       168.2050  159.1880  218.2520 N.pl3 376  ADP376      0.2180
     24  N1       166.9830  157.2960  218.8090 N.2   376  ADP376      0.0021
     25  C2       165.7880  156.6420  219.0850 C.3   376  ADP376      0.5254
     26  N3       164.5900  157.2130  219.1070 N.2   376  ADP376     -0.0055
     27  C4       164.7110  158.5170  218.8020 C.2   376  ADP376      0.3518
@<TRIPOS>BOND
     1     6     5    2
     2     2     1    2
     3     5     7    1
     4     5     8    1
     5     5     9    1
     6     1     4    1
     7     1     8    1
     8     1     3    1
     9     9    10    1
    10    10    11    1
    11    12    11    1
    12    12    17    1
    13    11    13    1
    14    23    22    1
    15    20    19    1
    16    20    21    2
    17    19    18    1
    18    21    22    1
    19    21    27    1
    20    22    24    2
    21    18    27    1
    22    18    17    1
    23    27    26    2
    24    24    25    1
    25    17    15    1
    26    25    26    1
    27    13    15    1
    28    13    14    1
    29    15    16    1
