@<TRIPOS>MOLECULE
4a7g_12I_A_1.pdb
 17 19 0 0 0
SMALL
GASTEIGER

@<TRIPOS>ATOM
      1  N1        15.4030   -7.6540   22.6840 N.2   1000  12I1000    -0.2225
      2  C2        14.5760   -6.8970   23.3770 C.3   1000  12I1000     0.3915
      3  C3        15.9290   -8.7820   23.2400 C.2   1000  12I1000     0.0696
      4  N3        14.0710   -8.4530   26.6060 N.pl3 1000  12I1000    -0.1880
      5  C4        15.5700   -9.1450   24.6230 C.2   1000  12I1000     0.0954
      6  N4        13.2040   -8.9850   29.2400 N.3   1000  12I1000    -0.2645
      7  C5        16.1240  -10.2900   25.1670 C.2   1000  12I1000     0.0082
      8  C6        16.9960  -11.0720   24.4250 C.2   1000  12I1000    -0.0039
      9  C7        17.3620  -10.7320   23.1300 C.2   1000  12I1000    -0.0198
     10  C8        14.6490   -8.2540   25.3450 C.2   1000  12I1000     0.3220
     11  C9        13.6530   -7.3210   27.4220 C.3   1000  12I1000     0.2197
     12  C10       13.5700   -7.6340   28.9090 C.3   1000  12I1000     0.1237
     13  C11       13.6360  -10.0950   28.3620 C.3   1000  12I1000     0.1237
     14  C12       13.4850   -9.7610   26.8820 C.3   1000  12I1000     0.2197
     15  C13       12.8330   -9.1740   30.6460 C.3   1000  12I1000     0.0898
     16  C17       16.8330   -9.5850   22.5530 C.3   1000  12I1000     0.0717
     17  N9        14.2130   -7.1880   24.6570 N.2   1000  12I1000    -0.0366
@<TRIPOS>BOND
     1    16     9    1
     2    16     3    1
     3     1     3    2
     4     1     2    1
     5     9     8    2
     6     3     5    1
     7     2    17    1
     8     8     7    1
     9     5     7    2
    10     5    10    1
    11    17    10    2
    12    10     4    1
    13     4    14    1
    14     4    11    1
    15    14    13    1
    16    11    12    1
    17    13     6    1
    18    12     6    1
    19     6    15    1
