@<TRIPOS>MOLECULE
4a7h_ADP_A_1.pdb
 27 29 0 0 0
SMALL
GASTEIGER

@<TRIPOS>ATOM
      1  PB       156.8980  161.4320  218.6630 P.3   376  ADP376      0.5373
      2  O1B      157.1030  162.6730  217.8990 O.3   376  ADP376     -0.1143
      3  O2B      156.2420  161.7920  219.9570 O.3   376  ADP376     -0.1143
      4  O3B      156.2540  160.2560  217.8890 O.2   376  ADP376     -0.2221
      5  PA       159.7940  161.5990  219.1160 P.3   376  ADP376      0.2231
      6  O1A      160.4300  161.8670  217.8140 O.2   376  ADP376     -0.5169
      7  O2A      159.7040  162.7770  220.0270 O.3   376  ADP376     -0.4370
      8  O3A      158.3700  160.9290  218.9820 O.3   376  ADP376     -0.2261
      9  O5'      160.6990  160.4510  219.7710 O.3   376  ADP376     -0.3111
     10  C5'      160.3350  159.9970  221.1220 C.3   376  ADP376      0.1813
     11  C4'      160.7990  158.5400  221.2100 C.3   376  ADP376      0.1821
     12  O4'      162.2310  158.5210  220.9540 O.3   376  ADP376     -0.3135
     13  C3'      160.5700  157.9460  222.6290 C.3   376  ADP376      0.2184
     14  O3'      160.1640  156.5700  222.4300 O.3   376  ADP376     -0.2174
     15  C2'      161.9920  157.9600  223.2110 C.3   376  ADP376      0.2570
     16  O2'      162.2150  156.9370  224.1980 O.3   376  ADP376     -0.2130
     17  C1'      162.8660  157.8530  221.9940 C.3   376  ADP376      0.3186
     18  N9       164.2330  158.3190  222.1620 N.pl3 376  ADP376     -0.1439
     19  C8       164.6680  159.5370  222.5760 C.3   376  ADP376      0.3377
     20  N7       165.9640  159.6800  222.6850 N.2   376  ADP376     -0.2095
     21  C5       166.4040  158.4910  222.2910 C.2   376  ADP376      0.2526
     22  C6       167.6980  158.0110  222.1970 C.2   376  ADP376      0.4393
     23  N6       168.7730  158.7540  222.4960 N.pl3 376  ADP376      0.2180
     24  N1       167.8250  156.7550  221.7940 N.2   376  ADP376      0.0021
     25  C2       166.7300  155.9590  221.4760 C.3   376  ADP376      0.5254
     26  N3       165.4600  156.3360  221.5550 N.2   376  ADP376     -0.0055
     27  C4       165.3980  157.6140  221.9700 C.2   376  ADP376      0.3518
@<TRIPOS>BOND
     1     6     5    2
     2     4     1    2
     3     2     1    1
     4     1     8    1
     5     1     3    1
     6     8     5    1
     7     5     9    1
     8     5     7    1
     9     9    10    1
    10    12    11    1
    11    12    17    1
    12    10    11    1
    13    11    13    1
    14    25    26    1
    15    25    24    1
    16    26    27    2
    17    24    22    2
    18    27    18    1
    19    27    21    1
    20    17    18    1
    21    17    15    1
    22    18    19    1
    23    22    21    1
    24    22    23    1
    25    21    20    2
    26    14    13    1
    27    19    20    1
    28    13    15    1
    29    15    16    1
