@<TRIPOS>MOLECULE
4a7i_A7I_B_1.pdb
 24 25 0 0 0
SMALL
GASTEIGER

@<TRIPOS>ATOM
      1  C15       48.8000    5.0580   57.9920 C.3   1246  A7I1246     0.0367
      2  C16       47.9210    3.9930   58.6530 C.3   1246  A7I1246     0.0735
      3  N17       48.6840    2.7400   58.7880 N.3   1246  A7I1246    -0.2739
      4  C20       47.9740    1.7030   59.5570 C.3   1246  A7I1246     0.0576
      5  C22       46.5940    1.3730   58.9790 C.3   1246  A7I1246     0.0173
      6  C21       47.8650    2.1050   61.0300 C.3   1246  A7I1246     0.0173
      7  C18       49.0770    2.2100   57.4720 C.3   1246  A7I1246     0.0735
      8  C19       50.0050    3.2140   56.7840 C.3   1246  A7I1246     0.0367
      9  C14       49.3150    4.5720   56.6340 C.3   1246  A7I1246     0.1001
     10  N13       50.2770    5.5330   56.0740 N.3   1246  A7I1246    -0.0834
     11  S12       49.5530    6.8010   55.3470 S.O2  1246  A7I1246     0.0591
     12  O23       48.1420    6.5140   54.9290 O.2   1246  A7I1246    -0.1561
     13  O24       49.6660    8.0690   56.1400 O.2   1246  A7I1246    -0.1561
     14  C10       50.5080    7.0700   53.8090 C.3   1246  A7I1246     0.1938
     15  C9        50.0170    8.2340   52.9450 C.3   1246  A7I1246     0.1425
     16  N8        48.7140    7.9160   52.3410 N.am  1246  A7I1246    -0.1993
     17  C7        47.5880    8.5030   52.7340 C.2   1246  A7I1246     0.2709
     18  O25       47.5220    9.3430   53.6300 O.2   1246  A7I1246    -0.2678
     19  C3        46.3230    8.0600   51.9950 C.ar  1246  A7I1246     0.0853
     20  C2        46.2680    7.4030   50.8370 C.ar  1246  A7I1246     0.0125
     21  C1        45.0330    7.1270   50.4040 C.ar  1246  A7I1246     0.0186
     22  C5        44.0490    7.5540   51.1960 C.ar  1246  A7I1246     0.0871
     23 CL6        42.3550    7.2980   50.9520 Cl    1246  A7I1246    -0.0752
     24  S4        44.7300    8.3470   52.5500 S.2   1246  A7I1246    -0.0709
@<TRIPOS>BOND
     1    21    20   ar
     2    21    22   ar
     3    20    19   ar
     4    23    22    1
     5    22    24   ar
     6    19    24   ar
     7    19    17    1
     8    16    17   am
     9    16    15    1
    10    17    18    2
    11    15    14    1
    12    14    11    1
    13    12    11    2
    14    11    10    1
    15    11    13    2
    16    10     9    1
    17     9     8    1
    18     9     1    1
    19     8     7    1
    20     7     3    1
    21     1     2    1
    22     2     3    1
    23     3     4    1
    24     5     4    1
    25     4     6    1
