@<TRIPOS>MOLECULE
4a7j_III_B_1.pdb
 50 49 0 0 0
SMALL
GASTEIGER

@<TRIPOS>ATOM
      1  N         -7.2080   16.7500   27.7920 N.3     1  ALA1       -0.1231
      2  CA        -6.5850   16.2920   26.5250 C.3     1  ALA1        0.1694
      3  C         -5.0760   16.1840   26.6920 C.2     1  ALA1        0.2592
      4  O         -4.5400   16.3480   27.7840 O.2     1  ALA1       -0.2718
      5  CB        -6.9160   17.2740   25.3880 C.3     1  ALA1        0.0304
      6  N         -4.4000   15.8910   25.5820 N.am    2  ARG2       -0.1966
      7  CA        -2.9540   15.7750   25.5330 C.3     2  ARG2        0.1729
      8  CB        -2.5520   15.5480   24.0820 C.3     2  ARG2        0.0348
      9  CG        -1.0630   15.5080   23.8280 C.3     2  ARG2        0.0492
     10  CD        -0.7780   15.4510   22.3160 C.3     2  ARG2        0.2203
     11  NE        -1.3110   14.2630   21.6450 N.pl3   2  ARG2       -0.0923
     12  CZ        -0.5150   13.1960   21.4340 C.cat   2  ARG2        0.4545
     13  NH1        0.7490   13.2400   21.8500 N.pl3   2  ARG2       -0.0883
     14  CQ1        1.6430   12.0960   21.6170 C.3     2  ARG2        0.2668
     15  NH2       -0.9870   12.1530   20.7740 N.pl3   2  ARG2       -0.0883
     16  CQ2       -2.3440   12.1070   20.3150 C.3     2  ARG2        0.2668
     17  C         -2.2790   17.0710   26.0460 C.2     2  ARG2        0.2617
     18  O         -1.1310   17.0420   26.4980 O.2     2  ARG2       -0.2715
     19  N         -3.0030   18.1870   25.9710 N.am    3  THR3       -0.1937
     20  CA        -2.4790   19.4880   26.3950 C.3     3  THR3        0.2028
     21  C         -2.3490   19.6790   27.9020 C.2     3  THR3        0.2642
     22  O         -1.8180   20.6830   28.3680 O.2     3  THR3       -0.2714
     23  CB        -3.3360   20.6260   25.8230 C.3     3  THR3        0.1808
     24  OG1       -4.6940   20.4660   26.2520 O.3     3  THR3       -0.2208
     25  CG2       -3.2840   20.5970   24.2980 C.3     3  THR3        0.0379
     26  N         -2.8450   18.7160   28.6700 N.am    4  LYS4       -0.1963
     27  CA        -2.7350   18.7720   30.1210 C.3     4  LYS4        0.1728
     28  C         -1.9390   17.5650   30.5880 C.2     4  LYS4        0.2616
     29  O         -1.9260   16.5180   29.9220 O.2     4  LYS4       -0.2715
     30  CB        -4.1180   18.7600   30.7790 C.3     4  LYS4        0.0311
     31  CG        -4.9480   19.9980   30.5220 C.3     4  LYS4        0.0038
     32  CD        -6.2970   19.8740   31.2270 C.3     4  LYS4        0.0206
     33  CE        -7.0980   21.1630   31.1560 C.3     4  LYS4        0.1093
     34  NZ        -8.4530   21.0100   31.7460 N.3     4  LYS4       -0.1314
     35  N         -1.2780   17.7110   31.7290 N.am    5  GLN5       -0.1963
     36  CA        -0.4630   16.6460   32.2790 C.3     5  GLN5        0.1733
     37  C         -1.3090   15.6160   33.0050 C.2     5  GLN5        0.2617
     38  O         -2.0930   15.9560   33.8840 O.2     5  GLN5       -0.2715
     39  CB         0.5710   17.2320   33.2320 C.3     5  GLN5        0.0408
     40  CG         1.5240   16.2230   33.8360 C.3     5  GLN5        0.0908
     41  CD         2.4040   16.8290   34.9230 C.2     5  GLN5        0.2608
     42  OE1        2.6440   18.0460   34.9520 O.2     5  GLN5       -0.2717
     43  NE2        2.9030   15.9800   35.8170 N.am    5  GLN5       -0.0878
     44  N         -1.1450   14.3560   32.6260 N.am    6  THR6       -0.1951
     45  CA        -1.8740   13.2550   33.2350 C.3     6  THR6        0.1897
     46  C         -0.9300   12.2330   33.8610 C.2     6  THR6        0.2313
     47  O          0.2920   12.4740   33.8430 O.2     6  THR6       -0.2863
     48  CB        -2.7650   12.5180   32.2070 C.3     6  THR6        0.1794
     49  OG1       -2.3370   12.8540   30.8780 O.3     6  THR6       -0.2208
     50  CG2       -4.2230   12.9050   32.4010 C.3     6  THR6        0.0378
@<TRIPOS>BOND
     1    16    15    1
     2    15    12    1
     3    12    11    1
     4    12    13    2
     5    14    13    1
     6    11    10    1
     7    10     9    1
     8     9     8    1
     9     8     7    1
    10    25    23    1
    11     5     2    1
    12     7     6    1
    13     7    17    1
    14     6     3   am
    15    23    24    1
    16    23    20    1
    17    19    17   am
    18    19    20    1
    19    17    18    2
    20    20    21    1
    21     2     3    1
    22     2     1    1
    23     3     4    2
    24    21    22    2
    25    21    26   am
    26    26    27    1
    27    29    28    2
    28    27    28    1
    29    27    30    1
    30    31    30    1
    31    31    32    1
    32    28    35   am
    33    49    48    1
    34    33    32    1
    35    33    34    1
    36    35    36    1
    37    48    50    1
    38    48    45    1
    39    36    37    1
    40    36    39    1
    41    44    37   am
    42    44    45    1
    43    37    38    2
    44    39    40    1
    45    45    46    1
    46    40    41    1
    47    47    46    2
    48    41    42    2
    49    41    43   am
