@<TRIPOS>MOLECULE
4a7l_ADP_A_1.pdb
 27 29 0 0 0
SMALL
GASTEIGER

@<TRIPOS>ATOM
      1  PB       156.7050  161.6660  216.6910 P.3   376  ADP376      0.5373
      2  O1B      156.9150  162.6380  215.6070 O.2   376  ADP376     -0.2221
      3  O2B      156.3700  162.4290  217.9320 O.3   376  ADP376     -0.1143
      4  O3B      155.7740  160.4740  216.3640 O.3   376  ADP376     -0.1143
      5  PA       159.6310  161.4230  216.6220 P.3   376  ADP376      0.2231
      6  O1A      160.0270  161.2640  215.2110 O.2   376  ADP376     -0.5169
      7  O2A      159.8760  162.7800  217.1940 O.3   376  ADP376     -0.4370
      8  O3A      158.1340  161.0010  216.8940 O.3   376  ADP376     -0.2261
      9  O5'      160.4900  160.3210  217.4040 O.3   376  ADP376     -0.3111
     10  C5'      160.3440  160.2670  218.8660 C.3   376  ADP376      0.1813
     11  C4'      160.6220  158.8140  219.2590 C.3   376  ADP376      0.1821
     12  O4'      161.9610  158.4840  218.7940 O.3   376  ADP376     -0.3135
     13  C3'      160.6020  158.6180  220.8010 C.3   376  ADP376      0.2184
     14  O3'      159.9890  157.3270  221.0370 O.3   376  ADP376     -0.2174
     15  C2'      162.1000  158.5190  221.1280 C.3   376  ADP376      0.2570
     16  O2'      162.3780  157.7320  222.3000 O.3   376  ADP376     -0.2130
     17  C1'      162.6960  157.9780  219.8590 C.3   376  ADP376      0.3186
     18  N9       164.1170  158.2230  219.6810 N.pl3 376  ADP376     -0.1439
     19  C8       164.7810  159.4080  219.6870 C.3   376  ADP376      0.3377
     20  N7       166.0790  159.3420  219.5480 N.2   376  ADP376     -0.2095
     21  C5       166.2750  158.0360  219.4160 C.2   376  ADP376      0.2526
     22  C6       167.4520  157.3280  219.2480 C.2   376  ADP376      0.4393
     23  N6       168.6510  157.9200  219.1680 N.pl3 376  ADP376      0.2180
     24  N1       167.3320  156.0110  219.1730 N.2   376  ADP376      0.0021
     25  C2       166.1020  155.3670  219.2530 C.3   376  ADP376      0.5254
     26  N3       164.9330  155.9690  219.4300 N.2   376  ADP376     -0.0055
     27  C4       165.1200  157.2990  219.5000 C.2   376  ADP376      0.3518
@<TRIPOS>BOND
     1     6     5    2
     2     2     1    2
     3     4     1    1
     4     5     8    1
     5     5     7    1
     6     5     9    1
     7     1     8    1
     8     1     3    1
     9     9    10    1
    10    12    11    1
    11    12    17    1
    12    10    11    1
    13    23    22    1
    14    24    22    2
    15    24    25    1
    16    22    21    1
    17    25    26    1
    18    11    13    1
    19    21    27    1
    20    21    20    2
    21    26    27    2
    22    27    18    1
    23    20    19    1
    24    18    19    1
    25    18    17    1
    26    17    15    1
    27    13    14    1
    28    13    15    1
    29    15    16    1
