@<TRIPOS>MOLECULE
4a7m_HEM_A_1.pdb
 43 50 0 0 0
SMALL
GASTEIGER

@<TRIPOS>ATOM
      1  CHA      -14.3800    0.3710    0.9190 C.2   1295  HEM1295     0.0000
      2  CHB      -10.3540    0.4420    3.6210 C.2   1295  HEM1295     0.0000
      3  CHC       -8.9910    4.5800    1.5570 C.2   1295  HEM1295     0.0000
      4  CHD      -12.7960    4.3030   -1.4650 C.2   1295  HEM1295     0.0000
      5  C1A      -13.4040    0.0220    1.8180 C.2   1295  HEM1295     0.0000
      6  C2A      -13.4040   -1.1720    2.6530 C.2   1295  HEM1295     0.0000
      7  C3A      -12.2800   -1.1660    3.3910 C.2   1295  HEM1295     0.0000
      8  C4A      -11.5580    0.0490    3.0800 C.2   1295  HEM1295     0.0000
      9  CMA      -11.8480   -2.2270    4.4460 C.3   1295  HEM1295     0.0000
     10  CAA      -14.5130   -2.2370    2.6210 C.3   1295  HEM1295     0.0000
     11  CBA      -14.2950   -3.2260    1.4760 C.3   1295  HEM1295     0.0000
     12  CGA      -15.4650   -4.2030    1.4590 C.2   1295  HEM1295     0.0000
     13  O1A      -15.6990   -4.8960    2.4900 O.co2 1295  HEM1295     0.0000
     14  O2A      -16.2010   -4.2970    0.4430 O.co2 1295  HEM1295     0.0000
     15  C1B       -9.6590    1.5860    3.3270 C.ar  1295  HEM1295     0.0000
     16  C2B       -8.4470    1.9970    3.9920 C.ar  1295  HEM1295     0.0000
     17  C3B       -8.0570    3.1640    3.4390 C.ar  1295  HEM1295     0.0000
     18  C4B       -9.0110    3.4870    2.3910 C.ar  1295  HEM1295     0.0000
     19  CMB       -7.7890    1.2050    5.1360 C.3   1295  HEM1295     0.0000
     20  CAB       -6.8140    4.0060    3.8040 C.2   1295  HEM1295     0.0000
     21  CBB       -6.4260    4.1730    5.0760 C.2   1295  HEM1295     0.0000
     22  C1C       -9.8470    4.7960    0.5000 C.2   1295  HEM1295     0.0000
     23  C2C       -9.6550    5.8000   -0.5380 C.2   1295  HEM1295     0.0000
     24  C3C      -10.7010    5.7400   -1.3920 C.2   1295  HEM1295     0.0000
     25  C4C      -11.5890    4.6840   -0.9200 C.2   1295  HEM1295     0.0000
     26  CMC       -8.4150    6.7190   -0.5880 C.3   1295  HEM1295     0.0000
     27  CAC      -10.9340    6.5900   -2.6740 C.2   1295  HEM1295     0.0000
     28  CBC      -10.6050    7.8810   -2.7890 C.2   1295  HEM1295     0.0000
     29  C1D      -13.6370    3.3050   -1.0450 C.ar  1295  HEM1295     0.0000
     30  C2D      -14.9920    3.0960   -1.5140 C.ar  1295  HEM1295     0.0000
     31  C3D      -15.4750    1.8730   -0.7630 C.ar  1295  HEM1295     0.0000
     32  C4D      -14.3710    1.4560    0.0750 C.ar  1295  HEM1295     0.0000
     33  CMD      -15.7850    3.9270   -2.5350 C.3   1295  HEM1295     0.0000
     34  CAD      -16.8400    1.2020   -0.8640 C.3   1295  HEM1295     0.0000
     35  CBD      -16.7440    0.0380   -1.8650 C.3   1295  HEM1295     0.0000
     36  CGD      -18.0530   -0.7290   -1.9330 C.2   1295  HEM1295     0.0000
     37  O1D      -18.0820   -1.8010   -2.6140 O.co2 1295  HEM1295     0.0000
     38  O2D      -19.0620   -0.2820   -1.3510 O.co2 1295  HEM1295     0.0000
     39  NA       -12.2480    0.7240    2.1030 N.2   1295  HEM1295     0.0000
     40  NB        -9.9800    2.5230    2.3520 N.ar  1295  HEM1295     0.0000
     41  NC       -11.0310    4.1550    0.2300 N.2   1295  HEM1295     0.0000
     42  ND       -13.3170    2.3310   -0.0970 N.ar  1295  HEM1295     0.0000
     43 FE        -11.7060    2.5120    1.2440 Fe    1295  HEM1295     0.0000
@<TRIPOS>BOND
     1    28    27    2
     2    27    24    1
     3    37    36   ar
     4    33    30    1
     5    36    35    1
     6    36    38   ar
     7    35    34    1
     8    30    29   ar
     9    30    31   ar
    10     4    29    2
    11     4    25    1
    12    24    25    1
    13    24    23    2
    14    29    42   ar
    15    25    41    2
    16    34    31    1
    17    31    32   ar
    18    26    23    1
    19    23    22    1
    20    42    32   ar
    21    42    43    1
    22    32     1    2
    23    41    22    1
    24    41    43    1
    25    14    12   ar
    26    22     3    2
    27     1     5    1
    28    43    39    1
    29    43    40    1
    30    12    11    1
    31    12    13   ar
    32    11    10    1
    33     3    18    1
    34     5    39    2
    35     5     6    1
    36    39     8    1
    37    40    18   ar
    38    40    15   ar
    39    18    17   ar
    40    10     6    1
    41     6     7    2
    42     8     7    1
    43     8     2    2
    44    15     2    1
    45    15    16   ar
    46     7     9    1
    47    17    20    1
    48    17    16   ar
    49    20    21    2
    50    16    19    1
