@<TRIPOS>MOLECULE
4a7n_ADP_A_1.pdb
 27 29 0 0 0
SMALL
GASTEIGER

@<TRIPOS>ATOM
      1  PB       159.1760  134.6710  201.5510 P.3   376  ADP376      0.5373
      2  O1B      159.7780  133.7000  202.4770 O.3   376  ADP376     -0.1143
      3  O2B      158.6900  133.9230  200.3520 O.2   376  ADP376     -0.2221
      4  O3B      158.1670  135.6680  202.1720 O.3   376  ADP376     -0.1143
      5  PA       161.9640  135.4130  201.0050 P.3   376  ADP376      0.2231
      6  O1A      162.6410  135.5710  202.3040 O.3   376  ADP376     -0.4370
      7  O2A      162.2820  134.1480  200.2790 O.2   376  ADP376     -0.5169
      8  O3A      160.3970  135.5820  201.1000 O.3   376  ADP376     -0.2261
      9  O5'      162.4370  136.6830  200.1520 O.3   376  ADP376     -0.3111
     10  C5'      161.9540  136.7810  198.7660 C.3   376  ADP376      0.1813
     11  C4'      161.9030  138.2780  198.4480 C.3   376  ADP376      0.1821
     12  O4'      163.2430  138.8120  198.6380 O.3   376  ADP376     -0.3135
     13  C3'      161.5010  138.5410  196.9700 C.3   376  ADP376      0.2184
     14  O3'      160.6540  139.7160  196.9830 O.3   376  ADP376     -0.2174
     15  C2'      162.8500  138.9130  196.3360 C.3   376  ADP376      0.2570
     16  O2'      162.7250  139.7910  195.2030 O.3   376  ADP376     -0.2130
     17  C1'      163.6270  139.4880  197.4860 C.3   376  ADP376      0.3186
     18  N9       165.0710  139.4840  197.3310 N.pl3 376  ADP376     -0.1439
     19  C8       165.8950  138.4330  197.0790 C.3   376  ADP376      0.3377
     20  N7       167.1630  138.7150  196.9380 N.2   376  ADP376     -0.2095
     21  C5       167.1760  140.0280  197.1360 C.2   376  ADP376      0.2526
     22  C6       168.2330  140.9200  197.1050 C.2   376  ADP376      0.4393
     23  N6       169.4970  140.5420  196.8720 N.pl3 376  ADP376      0.2180
     24  N1       167.9270  142.1910  197.3160 N.2   376  ADP376      0.0021
     25  C2       166.6260  142.6160  197.5600 C.3   376  ADP376      0.5254
     26  N3       165.5560  141.8300  197.5900 N.2   376  ADP376     -0.0055
     27  C4       165.9300  140.5580  197.3680 C.2   376  ADP376      0.3518
@<TRIPOS>BOND
     1    16    15    1
     2    15    13    1
     3    15    17    1
     4    23    22    1
     5    20    19    1
     6    20    21    2
     7    13    14    1
     8    13    11    1
     9    19    18    1
    10    22    21    1
    11    22    24    2
    12    21    27    1
    13    24    25    1
    14    18    27    1
    15    18    17    1
    16    27    26    2
    17    17    12    1
    18    25    26    1
    19    11    12    1
    20    11    10    1
    21    10     9    1
    22     9     5    1
    23     7     5    2
    24     3     1    2
    25     5     8    1
    26     5     6    1
    27     8     1    1
    28     1     4    1
    29     1     2    1
