@<TRIPOS>MOLECULE
4a7o_ADP_A_1.pdb
 27 29 0 0 0
SMALL
GASTEIGER

@<TRIPOS>ATOM
      1  PB         8.3090   11.2560   31.4860 P.3   351  ADP351      0.5373
      2  O1B        8.9580   12.4180   30.6620 O.3   351  ADP351     -0.1143
      3  O2B        7.3930   10.3930   30.5650 O.2   351  ADP351     -0.2221
      4  O3B        9.3900   10.3960   32.0600 O.3   351  ADP351     -0.1143
      5  PA         7.5510   11.8020   34.1200 P.3   351  ADP351      0.2231
      6  O1A        8.8720   12.4930   34.5190 O.2   351  ADP351     -0.5169
      7  O2A        7.5230   10.3730   34.5660 O.3   351  ADP351     -0.4370
      8  O3A        7.3790   11.8990   32.5660 O.3   351  ADP351     -0.2261
      9  O5'        6.3310   12.4940   34.7620 O.3   351  ADP351     -0.3111
     10  C5'        6.0060   13.7870   34.4270 C.3   351  ADP351      0.1813
     11  C4'        4.7870   14.2670   35.1270 C.3   351  ADP351      0.1821
     12  O4'        4.4190   13.6030   36.3940 O.3   351  ADP351     -0.3135
     13  C3'        4.5180   15.7660   35.2540 C.3   351  ADP351      0.2184
     14  O3'        4.0120   16.4670   34.1790 O.3   351  ADP351     -0.2174
     15  C2'        4.0090   15.9730   36.6490 C.3   351  ADP351      0.2570
     16  O2'        2.9440   16.8040   36.9190 O.3   351  ADP351     -0.2130
     17  C1'        4.1710   14.6390   37.3760 C.3   351  ADP351      0.3186
     18  N9         4.3380   14.3630   38.7700 N.pl3 351  ADP351     -0.1439
     19  C8         5.5590   14.1950   39.3640 C.3   351  ADP351      0.3377
     20  N7         5.3350   13.9650   40.6630 N.2   351  ADP351     -0.2095
     21  C5         3.9730   13.9960   40.8720 C.2   351  ADP351      0.2526
     22  C6         3.2250   13.8260   42.0040 C.2   351  ADP351      0.4393
     23  N6         3.9090   13.5820   43.2230 N.pl3 351  ADP351      0.2180
     24  N1         1.8360   13.9010   41.9510 N.2   351  ADP351      0.0021
     25  C2         1.2090   14.1560   40.7540 C.3   351  ADP351      0.5254
     26  N3         1.9470   14.3260   39.6330 N.2   351  ADP351     -0.0055
     27  C4         3.3610   14.2410   39.7060 C.2   351  ADP351      0.3518
@<TRIPOS>BOND
     1     3     1    2
     2     2     1    1
     3     1     4    1
     4     1     8    1
     5     8     5    1
     6     5     6    2
     7     5     7    1
     8     5     9    1
     9    14    13    1
    10    10     9    1
    11    10    11    1
    12    11    13    1
    13    11    12    1
    14    13    15    1
    15    12    17    1
    16    15    16    1
    17    15    17    1
    18    17    18    1
    19    18    19    1
    20    18    27    1
    21    19    20    1
    22    26    27    2
    23    26    25    1
    24    27    21    1
    25    20    21    2
    26    25    24    1
    27    21    22    1
    28    24    22    2
    29    22    23    1
