@<TRIPOS>MOLECULE
4a7p_NAD_A_1.pdb
 44 48 0 0 0
SMALL
GASTEIGER

@<TRIPOS>ATOM
      1  PA        -1.0110   72.7010  210.7040 P.3   501  NAD501      0.2189
      2  O1A       -0.1780   72.6530  209.3890 O.2   501  NAD501     -0.5170
      3  O2A       -2.3290   73.4780  210.4280 O.3   501  NAD501     -0.4371
      4  O5B       -1.3040   71.2320  211.1990 O.3   501  NAD501     -0.3112
      5  C5B       -2.2480   71.0030  212.2000 C.3   501  NAD501      0.1813
      6  C4B       -3.0210   69.7360  211.8530 C.3   501  NAD501      0.1821
      7  O4B       -3.6510   69.1880  212.9990 O.3   501  NAD501     -0.3135
      8  C3B       -4.0400   69.9760  210.7830 C.3   501  NAD501      0.2184
      9  O3B       -3.7280   69.2850  209.6220 O.3   501  NAD501     -0.2174
     10  C2B       -5.3150   69.5070  211.3470 C.3   501  NAD501      0.2570
     11  O2B       -6.0050   68.7290  210.4460 O.3   501  NAD501     -0.2130
     12  C1B       -4.9060   68.7170  212.5470 C.3   501  NAD501      0.3186
     13  N9A       -5.8990   68.7730  213.6180 N.pl3 501  NAD501     -0.1439
     14  C8A       -6.5020   69.9050  214.1260 C.3   501  NAD501      0.3377
     15  N7A       -7.3640   69.5620  215.1030 N.2   501  NAD501     -0.2095
     16  C5A       -7.3570   68.1780  215.2700 C.2   501  NAD501      0.2526
     17  C6A       -8.0280   67.2950  216.1090 C.2   501  NAD501      0.4393
     18  N6A       -8.9750   67.7960  217.0710 N.pl3 501  NAD501      0.2180
     19  N1A       -7.7930   65.9750  216.0210 N.2   501  NAD501      0.0021
     20  C2A       -6.9090   65.4700  215.1280 C.3   501  NAD501      0.5254
     21  N3A       -6.2300   66.3100  214.2870 N.2   501  NAD501     -0.0055
     22  C4A       -6.4290   67.6460  214.3340 C.2   501  NAD501      0.3518
     23  O3        -0.1890   73.4440  211.8060 O.3   501  NAD501     -0.2703
     24  PN         1.3180   73.0540  212.0420 P.3   501  NAD501      0.2189
     25  O1N        2.2300   73.8080  211.1240 O.2   501  NAD501     -0.5170
     26  O2N        1.5840   71.6420  211.6250 O.3   501  NAD501     -0.4371
     27  O5D        1.6960   73.2900  213.5490 O.3   501  NAD501     -0.3112
     28  C5D        0.7770   72.9670  214.5490 C.3   501  NAD501      0.1813
     29  C4D        1.2170   73.5980  215.8580 C.3   501  NAD501      0.1799
     30  O4D        2.5980   73.4550  216.0710 O.3   501  NAD501     -0.3327
     31  C3D        0.8890   75.0630  215.9490 C.3   501  NAD501      0.2158
     32  O3D        0.4350   75.4380  217.1910 O.3   501  NAD501     -0.2175
     33  C2D        2.1940   75.7030  215.6190 C.3   501  NAD501      0.2309
     34  O2D        2.3320   76.9630  216.1600 O.3   501  NAD501     -0.2158
     35  C1D        3.1640   74.7370  216.1950 C.3   501  NAD501      0.2263
     36  N1N        4.4690   74.7910  215.5800 N.pl3 501  NAD501     -0.2787
     37  C2N        4.5670   74.9720  214.1770 C.3   501  NAD501      0.1244
     38  C3N        5.8090   75.0280  213.5660 C.2   501  NAD501      0.0544
     39  C7N        5.8890   75.2220  212.0680 C.2   501  NAD501      0.2818
     40  O7N        6.9440   75.5920  211.5760 O.2   501  NAD501     -0.2670
     41  N7N        4.7580   74.9840  211.2130 N.am  501  NAD501     -0.0839
     42  C4N        6.9810   74.9070  214.3470 C.2   501  NAD501      0.0033
     43  C5N        6.8890   74.7270  215.7430 C.2   501  NAD501      0.0157
     44  C6N        5.6420   74.6700  216.3570 C.2   501  NAD501      0.0633
@<TRIPOS>BOND
     1     2     1    2
     2     9     8    1
     3     3     1    1
     4    11    10    1
     5     1     4    1
     6     1    23    1
     7     8    10    1
     8     8     6    1
     9    25    24    2
    10     4     5    1
    11    41    39   am
    12    10    12    1
    13    40    39    2
    14    26    24    1
    15    23    24    1
    16     6     5    1
    17     6     7    1
    18    24    27    1
    19    39    38    1
    20    12     7    1
    21    12    13    1
    22    27    28    1
    23    38    37    1
    24    38    42    2
    25    13    14    1
    26    13    22    1
    27    14    15    1
    28    37    36    1
    29    21    22    2
    30    21    20    1
    31    22    16    1
    32    42    43    1
    33    28    29    1
    34    15    16    2
    35    20    19    1
    36    16    17    1
    37    36    35    1
    38    36    44    1
    39    33    31    1
    40    33    34    1
    41    33    35    1
    42    43    44    2
    43    29    31    1
    44    29    30    1
    45    31    32    1
    46    19    17    2
    47    30    35    1
    48    17    18    1
