@<TRIPOS>MOLECULE
4a7q_4MQ_A_1.pdb
 18 20 0 0 0
SMALL
GASTEIGER

@<TRIPOS>ATOM
      1  N1        -0.2290    1.2900   33.4300 N.2   1000  4MQ1000    -0.2221
      2  C2        -0.8530    2.4760   33.2850 C.3   1000  4MQ1000     0.3912
      3  C3        -0.9430    0.1550   33.5900 C.2   1000  4MQ1000     0.0735
      4  N3        -4.4400    1.7600   33.4160 N.pl3 1000  4MQ1000    -0.1924
      5  C4        -2.4270    0.1930   33.6090 C.3   1000  4MQ1000     0.1669
      6  N4        -7.4570    1.6690   33.9270 N.3   1000  4MQ1000    -0.2679
      7  C5        -3.0930   -1.0270   33.7840 C.2   1000  4MQ1000    -0.0085
      8  C6        -2.4050   -2.2220   33.9320 C.2   1000  4MQ1000    -0.0036
      9  C7        -1.0180   -2.2390   33.9240 C.2   1000  4MQ1000     0.0009
     10  C8        -3.0520    1.5450   33.4250 C.2   1000  4MQ1000     0.3063
     11  C9        -5.3660    0.7350   33.8430 C.3   1000  4MQ1000     0.2194
     12  C10       -6.6110    0.9280   33.0190 C.3   1000  4MQ1000     0.1236
     13  C17       -0.2960   -1.0630   33.7410 C.2   1000  4MQ1000     0.0153
     14  C12       -5.0300    3.0240   33.0020 C.3   1000  4MQ1000     0.2035
     15  N9        -2.2070    2.6000   33.2790 N.2   1000  4MQ1000    -0.0404
     16  C13       -8.4660    0.9590   34.6940 C.3   1000  4MQ1000     0.0897
     17  C15       -7.3120    3.1200   34.0560 C.3   1000  4MQ1000     0.0765
     18  C16       -5.8370    3.4940   34.2020 C.3   1000  4MQ1000     0.0681
@<TRIPOS>BOND
     1    14     4    1
     2    14    18    1
     3    12    11    1
     4    12     6    1
     5    15     2    1
     6    15    10    2
     7     2     1    1
     8     4    10    1
     9     4    11    1
    10    10     5    1
    11     1     3    2
    12     3     5    1
    13     3    13    1
    14     5     7    1
    15    13     9    2
    16     7     8    2
    17     9     8    1
    18     6    17    1
    19     6    16    1
    20    17    18    1
