@<TRIPOS>MOLECULE
4a7s_5UD_A_1.pdb
 18 19 0 0 0
SMALL
GASTEIGER

@<TRIPOS>ATOM
      1  F5        18.0740   -1.2960   34.1950 F     1159  5UD1159    -0.1891
      2  C5        16.7850   -1.0660   33.9810 C.2   1159  5UD1159     0.2499
      3  C4        15.8630   -2.2130   33.9690 C.1   1159  5UD1159     0.2454
      4  O4        16.3150   -3.3550   34.1770 O.2   1159  5UD1159    -0.2062
      5  N3        14.5650   -2.0130   33.7450 N.2   1159  5UD1159    -0.2430
      6  C2        14.1040   -0.7720   33.5360 C.1   1159  5UD1159     0.2846
      7  O2        12.8780   -0.6310   33.3260 O.2   1159  5UD1159    -0.1918
      8  C6        16.2930    0.2080   33.7400 C.2   1159  5UD1159     0.1222
      9  N1        14.9760    0.3630   33.5310 N.am  1159  5UD1159    -0.1744
     10  C1'       14.4080    1.6930   33.2530 C.3   1159  5UD1159     0.2401
     11  C2'       13.5520    2.2180   34.3900 C.3   1159  5UD1159     0.2319
     12  O2'       12.1840    2.1730   33.9490 O.3   1159  5UD1159    -0.2157
     13  O3'       14.3520    3.8210   36.0590 O.3   1159  5UD1159    -0.2175
     14  C4'       15.3470    3.7860   33.8490 C.3   1159  5UD1159     0.1829
     15  O4'       15.4190    2.6700   32.9640 O.3   1159  5UD1159    -0.3318
     16  C5'       16.5990    3.8000   34.7150 C.3   1159  5UD1159     0.2142
     17  O5'       17.7780    3.7920   33.9020 O.3   1159  5UD1159    -0.2176
     18  C3'       14.0720    3.6260   34.6680 C.3   1159  5UD1159     0.2159
@<TRIPOS>BOND
     1    15    10    1
     2    15    14    1
     3    10     9    1
     4    10    11    1
     5     7     6    2
     6     9     6   am
     7     9     8    1
     8     6     5    2
     9     8     2    2
    10     5     3    2
    11    14    18    1
    12    14    16    1
    13    17    16    1
    14    12    11    1
    15     3     2    1
    16     3     4    2
    17     2     1    1
    18    11    18    1
    19    18    13    1
