@<TRIPOS>MOLECULE
4a7t_5FW_A_1.pdb
 15 15 0 0 0
SMALL
GASTEIGER

@<TRIPOS>ATOM
      1  CAI       -1.3960    0.5150   33.3680 C.3   1000  5FW1000     0.0188
      2  CAG       -0.6010    1.5710   34.1240 C.3   1000  5FW1000     0.0730
      3  CAJ       -0.9880    2.9820   33.6840 C.3   1000  5FW1000     0.0188
      4  NAD        0.8220    1.3680   33.9270 N.3   1000  5FW1000    -0.2164
      5  CAF        1.4770    0.1100   34.2860 C.3   1000  5FW1000     0.1260
      6  CAE        2.9140    0.3340   34.7490 C.3   1000  5FW1000     0.1916
      7  OAA        3.4640    1.3920   33.9570 O.3   1000  5FW1000    -0.2167
      8  CAH        3.7170   -0.9060   34.5600 C.ar  1000  5FW1000     0.0125
      9  CAK        4.7790   -0.8900   33.6440 C.ar  1000  5FW1000     0.0436
     10  CAL        3.4300   -2.0790   35.2940 C.ar  1000  5FW1000     0.0017
     11  CAN        4.1760   -3.2550   35.1020 C.ar  1000  5FW1000     0.0452
     12  CAO        5.2470   -3.2750   34.2000 C.ar  1000  5FW1000     0.2342
     13  OAC        5.9990   -4.3980   33.9710 O.3   1000  5FW1000    -0.2831
     14  CAM        5.5430   -2.0400   33.4260 C.ar  1000  5FW1000     0.2340
     15  OAB        6.5760   -2.0310   32.5620 O.3   1000  5FW1000    -0.2832
@<TRIPOS>BOND
     1    15    14    1
     2     1     2    1
     3    14     9   ar
     4    14    12   ar
     5     9     8   ar
     6     3     2    1
     7     4     2    1
     8     4     5    1
     9     7     6    1
    10    13    12    1
    11    12    11   ar
    12     5     6    1
    13     8     6    1
    14     8    10   ar
    15    11    10   ar
