@<TRIPOS>MOLECULE
4a7u_ALE_A_1.pdb
 13 13 0 0 0
SMALL
GASTEIGER

@<TRIPOS>ATOM
      1  C1        14.5670   -9.4690   31.4430 C.ar  1000  ALE1000     0.0125
      2  C2        15.2570  -10.6520   31.6720 C.ar  1000  ALE1000     0.0436
      3  C3        16.4690  -10.6880   32.3630 C.ar  1000  ALE1000     0.2340
      4  C4        17.0020   -9.5130   32.8670 C.ar  1000  ALE1000     0.2342
      5  C5        16.3260   -8.3280   32.6630 C.ar  1000  ALE1000     0.0452
      6  C6        15.1220   -8.3050   31.9630 C.ar  1000  ALE1000     0.0017
      7  O1        17.1060  -11.8880   32.4880 O.3   1000  ALE1000    -0.2832
      8  O2        18.1840   -9.5660   33.5340 O.3   1000  ALE1000    -0.2831
      9  O3        12.3890   -8.4290   30.9720 O.3   1000  ALE1000    -0.2167
     10  C9        12.9280   -9.5250   26.8390 C.3   1000  ALE1000     0.1076
     11  N1        12.5290   -9.4250   28.2570 N.3   1000  ALE1000    -0.2135
     12  C8        13.7080   -9.3850   29.1410 C.3   1000  ALE1000     0.1261
     13  C7        13.3290   -9.4480   30.6450 C.3   1000  ALE1000     0.1916
@<TRIPOS>BOND
     1    10    11    1
     2    11    12    1
     3    12    13    1
     4    13     9    1
     5    13     1    1
     6     1     2   ar
     7     1     6   ar
     8     2     3   ar
     9     6     5   ar
    10     3     7    1
    11     3     4   ar
    12     5     4   ar
    13     4     8    1
