@<TRIPOS>MOLECULE
4a7v_LDP_A_1.pdb
 11 11 0 0 0
SMALL
GASTEIGER

@<TRIPOS>ATOM
      1  C7         2.1940   -2.0640   36.1900 C.3   1000  LDP1000     0.0469
      2  C1         3.2790   -2.0890   35.3480 C.ar  1000  LDP1000    -0.0173
      3  C4         5.4680   -2.1150   33.6030 C.ar  1000  LDP1000     0.2342
      4  C2         4.0540   -3.2500   35.2260 C.ar  1000  LDP1000     0.0412
      5  C6         3.6100   -0.9490   34.5940 C.ar  1000  LDP1000    -0.0007
      6  C5         4.7060   -0.9370   33.7120 C.ar  1000  LDP1000     0.0451
      7  C3         5.1600   -3.2670   34.3640 C.ar  1000  LDP1000     0.2339
      8  O1         5.9360   -4.3650   34.2040 O.3   1000  LDP1000    -0.2832
      9  O2         6.5630   -2.1610   32.8330 O.3   1000  LDP1000    -0.2831
     10  C8         2.5820   -1.2250   37.4020 C.3   1000  LDP1000     0.1140
     11  N1         2.6970   -2.1010   38.5840 N.3   1000  LDP1000    -0.1310
@<TRIPOS>BOND
     1     9     3    1
     2     3     6   ar
     3     3     7   ar
     4     6     5   ar
     5     8     7    1
     6     7     4   ar
     7     5     2   ar
     8     4     2   ar
     9     2     1    1
    10     1    10    1
    11    10    11    1
