@<TRIPOS>MOLECULE
4a7w_GTP_A_1.pdb
 32 34 0 0 0
SMALL
GASTEIGER

@<TRIPOS>ATOM
      1  PG        73.6350   36.2980   -4.7020 P.3   1241  GTP1241     0.5373
      2  O1G       72.6460   35.1990   -4.4080 O.3   1241  GTP1241    -0.1143
      3  O2G       75.0380   35.7610   -4.5420 O.3   1241  GTP1241    -0.1143
      4  O3G       73.4150   36.8560   -6.0920 O.2   1241  GTP1241    -0.2221
      5  O3B       73.3350   37.4310   -3.5930 O.3   1241  GTP1241    -0.2258
      6  PB        74.2020   38.7770   -3.4020 P.3   1241  GTP1241     0.2277
      7  O1B       75.0100   39.1230   -4.6270 O.2   1241  GTP1241    -0.5168
      8  O2B       75.1130   38.6020   -2.2110 O.3   1241  GTP1241    -0.4368
      9  O3A       73.0600   39.9010   -3.2420 O.3   1241  GTP1241    -0.2700
     10  PA        72.5780   40.4950   -1.8240 P.3   1241  GTP1241     0.2189
     11  O1A       72.0880   39.4080   -0.9010 O.3   1241  GTP1241    -0.4371
     12  O2A       71.5190   41.5520   -2.0520 O.2   1241  GTP1241    -0.5170
     13  O5'       73.9040   41.1920   -1.2190 O.3   1241  GTP1241    -0.3112
     14  C5'       74.5280   42.3200   -1.8030 C.3   1241  GTP1241     0.1813
     15  C4'       75.8410   42.5860   -1.0700 C.3   1241  GTP1241     0.1799
     16  O4'       75.4960   42.8690    0.2770 O.3   1241  GTP1241    -0.3326
     17  C3'       76.7420   41.3600   -1.0660 C.3   1241  GTP1241     0.2158
     18  O3'       78.0820   41.7710   -1.0610 O.3   1241  GTP1241    -0.2175
     19  C2'       76.4440   40.7260    0.2720 C.3   1241  GTP1241     0.2310
     20  O2'       77.5170   39.9730    0.7870 O.3   1241  GTP1241    -0.2158
     21  C1'       76.1310   41.9410    1.1390 C.3   1241  GTP1241     0.2293
     22  N9        75.3010   41.5000    2.2810 N.pl3 1241  GTP1241    -0.2354
     23  C8        74.0940   40.8520    2.2440 C.3   1241  GTP1241     0.2246
     24  N7        73.7000   40.6140    3.5150 N.2   1241  GTP1241    -0.2322
     25  C5        74.6430   41.1040    4.3650 C.2   1241  GTP1241     0.2182
     26  C6        74.7540   41.1290    5.7550 C.1   1241  GTP1241     0.2372
     27  O6        73.8790   40.6390    6.4780 O.2   1241  GTP1241    -0.2069
     28  N1        75.8650   41.7140    6.3260 N.2   1241  GTP1241    -0.2485
     29  C2        76.8570   42.2540    5.5310 C.1   1241  GTP1241     0.2531
     30  N2        77.9250   42.8160    6.0880 N.pl3 1241  GTP1241    -0.0226
     31  N3        76.7400   42.2300    4.1580 N.2   1241  GTP1241    -0.3074
     32  C4        75.6540   41.6620    3.5910 C.2   1241  GTP1241     0.2300
@<TRIPOS>BOND
     1     4     1    2
     2     1     3    1
     3     1     2    1
     4     1     5    1
     5     7     6    2
     6     5     6    1
     7     6     9    1
     8     6     8    1
     9     9    10    1
    10    12    10    2
    11    10    13    1
    12    10    11    1
    13    14    13    1
    14    14    15    1
    15    15    17    1
    16    15    16    1
    17    17    18    1
    18    17    19    1
    19    19    20    1
    20    19    21    1
    21    16    21    1
    22    21    22    1
    23    23    22    1
    24    23    24    1
    25    22    32    1
    26    24    25    2
    27    32    31    2
    28    32    25    1
    29    31    29    2
    30    25    26    1
    31    29    30    1
    32    29    28    2
    33    26    28    2
    34    26    27    2
