@<TRIPOS>MOLECULE
4a7x_UDP_B_1.pdb
 25 26 0 0 0
SMALL
GASTEIGER

@<TRIPOS>ATOM
      1  N1       121.5550   18.4690   50.4060 N.am  1241  UDP1241    -0.1996
      2  C2       121.7730   17.4540   51.3490 C.1   1241  UDP1241     0.2802
      3  N3       120.8800   16.4130   51.5120 N.2   1241  UDP1241    -0.2497
      4  C4       119.7330   16.3450   50.7390 C.1   1241  UDP1241     0.1941
      5  C5       119.5010   17.3440   49.7930 C.3   1241  UDP1241     0.1579
      6  C6       120.4990   18.2830   49.5310 C.3   1241  UDP1241     0.1249
      7  O2       122.7680   17.4390   52.0560 O.2   1241  UDP1241    -0.1922
      8  O4       118.9370   15.4090   50.8930 O.2   1241  UDP1241    -0.2133
      9  C1'      122.5340   19.5960   50.2280 C.3   1241  UDP1241     0.2361
     10  C2'      123.7610   19.1100   49.4630 C.3   1241  UDP1241     0.2316
     11  O2'      124.9490   19.5540   50.0960 O.3   1241  UDP1241    -0.2157
     12  C3'      123.6110   19.6810   48.0600 C.3   1241  UDP1241     0.2158
     13  C4'      122.5020   20.7320   48.1140 C.3   1241  UDP1241     0.1799
     14  O4'      122.0280   20.6910   49.4670 O.3   1241  UDP1241    -0.3322
     15  O3'      124.8130   20.2370   47.5890 O.3   1241  UDP1241    -0.2175
     16  C5'      121.3990   20.3700   47.0940 C.3   1241  UDP1241     0.1813
     17  O5'      121.2430   21.2130   45.9580 O.3   1241  UDP1241    -0.3111
     18  PA       121.7400   20.9360   44.3970 P.3   1241  UDP1241     0.2231
     19  O1A      123.2300   20.8720   44.3770 O.3   1241  UDP1241    -0.4370
     20  O2A      121.2310   21.9680   43.4600 O.2   1241  UDP1241    -0.5169
     21  O3A      121.2390   19.5440   43.8310 O.3   1241  UDP1241    -0.2261
     22  PB       122.0360   19.1880   42.4780 P.3   1241  UDP1241     0.5373
     23  O1B      123.2220   18.3490   42.8210 O.3   1241  UDP1241    -0.1143
     24  O2B      122.5680   20.4430   41.8710 O.3   1241  UDP1241    -0.1143
     25  O3B      121.1530   18.4450   41.5160 O.2   1241  UDP1241    -0.2221
@<TRIPOS>BOND
     1    25    22    2
     2    24    22    1
     3    22    23    1
     4    22    21    1
     5    20    18    2
     6    21    18    1
     7    19    18    1
     8    18    17    1
     9    17    16    1
    10    16    13    1
    11    15    12    1
    12    12    13    1
    13    12    10    1
    14    13    14    1
    15    10    11    1
    16    10     9    1
    17    14     9    1
    18     6     5    1
    19     6     1    1
    20     5     4    1
    21     9     1    1
    22     1     2   am
    23     4     8    2
    24     4     3    2
    25     2     3    2
    26     2     7    2
