@<TRIPOS>MOLECULE
4a7y_NHF_A_1.pdb
 11 11 0 0 0
SMALL
GASTEIGER

@<TRIPOS>ATOM
      1  O4         9.4860  -21.8790   17.4530 O.3   953  NHF953     -0.2172
      2  C6        10.5700  -24.4760   17.6740 C.3   953  NHF953      0.2141
      3  C5         9.1730  -24.2530   17.0970 C.3   953  NHF953      0.1818
      4  C4         8.6080  -22.9710   17.7470 C.3   953  NHF953      0.2189
      5  O3         6.4260  -22.5370   18.4660 O.3   953  NHF953     -0.2122
      6  C3         7.1890  -22.6220   17.2860 C.3   953  NHF953      0.2437
      7  C2         6.5840  -23.7680   16.4690 C.2   953  NHF953      0.2131
      8  C1         6.9150  -25.0630   16.9530 C.3   953  NHF953      0.2089
      9  O2         5.8600  -23.5740   15.4610 O.2   953  NHF953     -0.2907
     10  O6        11.4660  -23.5550   17.0490 O.3   953  NHF953     -0.2176
     11  O5         8.3130  -25.3810   17.3490 O.3   953  NHF953     -0.3429
@<TRIPOS>BOND
     1     9     7    2
     2     7     8    1
     3     7     6    1
     4     8    11    1
     5    10     2    1
     6     3    11    1
     7     3     2    1
     8     3     4    1
     9     6     4    1
    10     6     5    1
    11     1     4    1
