@<TRIPOS>MOLECULE
4a7z_AY9_A_1.pdb
 10 10 0 0 0
SMALL
GASTEIGER

@<TRIPOS>ATOM
      1  C1       -18.1680  -51.4420   67.7510 C.3   954  AY9954      0.2146
      2  C2       -19.2570  -51.5640   66.9230 C.2   954  AY9954      0.2411
      3  C3       -20.4720  -51.9220   67.4790 C.2   954  AY9954      0.2308
      4  C4       -20.5940  -52.1520   68.8460 C.2   954  AY9954      0.0506
      5  C5       -19.4530  -51.9340   69.6270 C.3   954  AY9954      0.1739
      6  C6       -19.3050  -52.6360   70.9240 C.3   954  AY9954      0.2161
      7  O2       -19.1550  -51.4250   65.7050 O.2   954  AY9954     -0.2853
      8  O3       -21.5300  -52.0000   66.6570 O.2   954  AY9954     -0.2837
      9  O5       -18.2460  -52.2360   68.9280 O.3   954  AY9954     -0.3407
     10  O6       -20.2640  -53.6790   70.9250 O.3   954  AY9954     -0.2173
@<TRIPOS>BOND
     1     7     2    2
     2     8     3    1
     3     2     3    1
     4     2     1    1
     5     3     4    2
     6     1     9    1
     7     4     5    1
     8     9     5    1
     9     5     6    1
    10     6    10    1
