@<TRIPOS>MOLECULE
4a80_2AN_A_1.pdb
 21 23 0 0 0
SMALL
GASTEIGER

@<TRIPOS>ATOM
      1  C1         5.0250    4.3730    9.9570 C.ar  1160  2AN1160     0.0717
      2  C2         4.4490    5.6070    9.6070 C.ar  1160  2AN1160     0.0165
      3  C3         4.9560    6.3760    8.5650 C.ar  1160  2AN1160     0.0013
      4  C4         6.0590    5.9250    7.8600 C.ar  1160  2AN1160     0.0001
      5  C5         6.6520    4.7090    8.1960 C.ar  1160  2AN1160     0.0025
      6  C6         7.7500    4.3050    7.4460 C.ar  1160  2AN1160     0.0001
      7  C7         8.3740    3.1030    7.7460 C.ar  1160  2AN1160     0.0013
      8  C8         7.9130    2.3050    8.7730 C.ar  1160  2AN1160     0.0189
      9  N          4.4910    3.6190   11.0300 N.pl3 1160  2AN1160    -0.2124
     10  S          6.3900    1.6520   10.6970 S.3   1160  2AN1160     0.0421
     11  C9         6.8090    2.6810    9.5300 C.ar  1160  2AN1160     0.1135
     12  C10        6.1560    3.9080    9.2490 C.ar  1160  2AN1160     0.0329
     13  C11        3.0900    3.6890   11.2480 C.ar  1160  2AN1160     0.0705
     14  C12        2.1390    3.7540   10.2260 C.ar  1160  2AN1160     0.0165
     15  C13        0.7750    3.8090   10.5380 C.ar  1160  2AN1160     0.0013
     16  C14        0.3430    3.7850   11.8650 C.ar  1160  2AN1160     0.0001
     17  C15        1.2870    3.7040   12.8840 C.ar  1160  2AN1160     0.0013
     18  C16        2.6420    3.6560   12.5670 C.ar  1160  2AN1160     0.0165
     19  O1         7.2470    0.4980   10.6320 O.3   1160  2AN1160    -0.0650
     20  O2         5.0280    1.2020   10.5750 O.3   1160  2AN1160    -0.0650
     21  O3         6.6410    2.3790   12.1440 O.3   1160  2AN1160    -0.0650
@<TRIPOS>BOND
     1     6     7   ar
     2     6     5   ar
     3     7     8   ar
     4     4     5   ar
     5     4     3   ar
     6     5    12   ar
     7     3     2   ar
     8     8    11   ar
     9    12    11   ar
    10    12     1   ar
    11    11    10    1
    12     2     1   ar
    13     1     9    1
    14    14    15   ar
    15    14    13   ar
    16    15    16   ar
    17    20    10    1
    18    19    10    1
    19    10    21    1
    20     9    13    1
    21    13    18   ar
    22    16    17   ar
    23    18    17   ar
