@<TRIPOS>MOLECULE
4a81_2AN_A_1.pdb
 21 23 0 0 0
SMALL
GASTEIGER

@<TRIPOS>ATOM
      1  C1         5.2590    3.3290   10.4340 C.ar  1162  2AN1162     0.0717
      2  C2         5.1970    2.1340   11.1700 C.ar  1162  2AN1162     0.0165
      3  C3         6.1390    1.1450   11.0370 C.ar  1162  2AN1162     0.0013
      4  C4         7.1760    1.3360   10.1610 C.ar  1162  2AN1162     0.0001
      5  C5         7.2750    2.5050    9.4340 C.ar  1162  2AN1162     0.0025
      6  C6         8.3580    2.5810    8.5890 C.ar  1162  2AN1162     0.0001
      7  C7         8.5320    3.6960    7.7920 C.ar  1162  2AN1162     0.0013
      8  C8         7.6480    4.7460    7.8450 C.ar  1162  2AN1162     0.0189
      9  N          4.2590    4.3310   10.6220 N.pl3 1162  2AN1162    -0.2124
     10  S          5.6170    6.0870    8.5490 S.3   1162  2AN1162     0.0421
     11  C9         6.5330    4.7240    8.6920 C.ar  1162  2AN1162     0.1135
     12  C10        6.3320    3.5460    9.5240 C.ar  1162  2AN1162     0.0329
     13  C11        3.0270    3.9940   11.2670 C.ar  1162  2AN1162     0.0705
     14  C12        2.9580    3.5890   12.6030 C.ar  1162  2AN1162     0.0165
     15  C13        1.7240    3.2840   13.1980 C.ar  1162  2AN1162     0.0013
     16  C14        0.5410    3.4050   12.4700 C.ar  1162  2AN1162     0.0001
     17  C15        0.5950    3.8120   11.1330 C.ar  1162  2AN1162     0.0013
     18  C16        1.8310    4.1070   10.5500 C.ar  1162  2AN1162     0.0165
     19  O1         5.8710    6.7470    7.2820 O.3   1162  2AN1162    -0.0650
     20  O2         5.8620    7.0630    9.5840 O.3   1162  2AN1162    -0.0650
     21  O3         4.0100    5.7490    8.5120 O.3   1162  2AN1162    -0.0650
@<TRIPOS>BOND
     1    19    10    1
     2     7     8   ar
     3     7     6   ar
     4     8    11   ar
     5    21    10    1
     6    10    11    1
     7    10    20    1
     8     6     5   ar
     9    11    12   ar
    10     5    12   ar
    11     5     4   ar
    12    12     1   ar
    13     4     3   ar
    14     1     9    1
    15     1     2   ar
    16    18    17   ar
    17    18    13   ar
    18     9    13    1
    19     3     2   ar
    20    17    16   ar
    21    13    14   ar
    22    16    15   ar
    23    14    15   ar
