@<TRIPOS>MOLECULE
4a81_DXC_A_1.pdb
 28 31 0 0 0
SMALL
GASTEIGER

@<TRIPOS>ATOM
      1  C1         6.3260    1.3360   15.1720 C.3   1161  DXC1161     0.1520
      2  C2         7.3130    0.2520   15.6320 C.3   1161  DXC1161     0.0329
      3  C3         8.5980    0.9020   16.1790 C.3   1161  DXC1161     0.0025
      4  C4         9.2970    1.8650   15.2080 C.3   1161  DXC1161     0.0002
      5  C5         8.2560    2.9170   14.8090 C.3   1161  DXC1161     0.0026
      6  C6         7.0170    2.2730   14.1620 C.3   1161  DXC1161     0.0329
      7  C7         9.5080   -0.1980   16.6640 C.3   1161  DXC1161     0.0001
      8  C8        10.3400   -0.8700   15.5820 C.3   1161  DXC1161     0.0000
      9  C9        10.9280    0.0630   14.5230 C.3   1161  DXC1161     0.0002
     10  C10        9.8570    1.0640   14.0410 C.3   1161  DXC1161     0.0025
     11  C11       11.2740   -0.7880   13.2930 C.3   1161  DXC1161     0.0024
     12  C12       11.8630   -0.0060   12.1330 C.3   1161  DXC1161     0.0282
     13  C13       10.8590    1.0800   11.6960 C.3   1161  DXC1161     0.1519
     14  C14       10.3500    1.9310   12.8660 C.3   1161  DXC1161     0.0329
     15  C15       12.1610   -2.0250   13.4200 C.3   1161  DXC1161     0.0001
     16  C16       12.6120   -2.3280   11.9740 C.3   1161  DXC1161     0.0001
     17  C17       12.0730   -1.1760   11.1220 C.3   1161  DXC1161     0.0024
     18  C18       10.4800    2.5890   15.8480 C.3   1161  DXC1161     0.0000
     19  C19       12.8780   -0.9050    9.8310 C.3   1161  DXC1161     0.0006
     20  O1         9.7420    0.4350   11.0970 O.3   1161  DXC1161    -0.2232
     21  O2         5.0960    0.7390   14.6600 O.3   1161  DXC1161    -0.2232
     22  C20       13.1670    0.6470   12.6360 C.3   1161  DXC1161     0.0025
     23  C21       13.2410   -2.1810    9.0570 C.3   1161  DXC1161     0.0118
     24  C22       14.6620   -2.0600    8.4910 C.3   1161  DXC1161     0.1141
     25  C23       15.7860   -2.3690    9.4710 C.2   1161  DXC1161     0.3649
     26  O3        15.5500   -3.1330   10.4540 O.co2 1161  DXC1161    -0.2457
     27  O4        16.9340   -1.8610    9.2570 O.co2 1161  DXC1161    -0.2457
     28  C24       12.1260    0.0450    8.8880 C.3   1161  DXC1161     0.0000
@<TRIPOS>BOND
     1    24    23    1
     2    24    25    1
     3    28    19    1
     4    23    19    1
     5    27    25   ar
     6    25    26   ar
     7    19    17    1
     8    20    13    1
     9    17    16    1
    10    17    12    1
    11    13    12    1
    12    13    14    1
    13    16    15    1
    14    12    22    1
    15    12    11    1
    16    14    10    1
    17    11    15    1
    18    11     9    1
    19    10     9    1
    20    10     4    1
    21     6     5    1
    22     6     1    1
    23     9     8    1
    24    21     1    1
    25     5     4    1
    26     1     2    1
    27     4    18    1
    28     4     3    1
    29     8     7    1
    30     2     3    1
    31     3     7    1
