@<TRIPOS>MOLECULE
4a83_DXC_A_1.pdb
 28 31 0 0 0
SMALL
GASTEIGER

@<TRIPOS>ATOM
      1  C1         9.8060    4.8020   21.7710 C.3   1160  DXC1160     0.1520
      2  C2         9.4850    3.3720   21.3610 C.3   1160  DXC1160     0.0329
      3  C3         8.9350    3.3320   19.9300 C.3   1160  DXC1160     0.0025
      4  C4         7.7230    4.2380   19.7210 C.3   1160  DXC1160     0.0002
      5  C5         8.0950    5.6520   20.1990 C.3   1160  DXC1160     0.0026
      6  C6         8.5590    5.6700   21.6500 C.3   1160  DXC1160     0.0329
      7  C7         8.6910    1.8770   19.5740 C.3   1160  DXC1160     0.0001
      8  C8         7.4280    1.2870   20.1810 C.3   1160  DXC1160     0.0000
      9  C9         6.2370    2.1960   19.9350 C.3   1160  DXC1160     0.0002
     10  C10        6.4970    3.6260   20.4350 C.3   1160  DXC1160     0.0025
     11  C11        4.9970    1.6710   20.6500 C.3   1160  DXC1160     0.0024
     12  C12        3.7450    2.5110   20.4410 C.3   1160  DXC1160     0.0282
     13  C13        3.9800    3.9230   20.9430 C.3   1160  DXC1160     0.1519
     14  C14        5.2400    4.5020   20.2950 C.3   1160  DXC1160     0.0329
     15  C15        4.5160    0.2830   20.2610 C.3   1160  DXC1160     0.0001
     16  C16        3.1200    0.2380   20.8800 C.3   1160  DXC1160     0.0001
     17  C17        2.7010    1.6740   21.1970 C.3   1160  DXC1160     0.0024
     18  C18        7.4510    4.3640   18.2200 C.3   1160  DXC1160     0.0000
     19  C19        1.1960    1.8520   20.8790 C.3   1160  DXC1160     0.0006
     20  O1         4.1060    3.9550   22.3770 O.3   1160  DXC1160    -0.2232
     21  O2        10.2960    4.8140   23.1210 O.3   1160  DXC1160    -0.2232
     22  C20        3.4190    2.5810   18.9480 C.3   1160  DXC1160     0.0025
     23  C21        0.2820    0.8650   21.6230 C.3   1160  DXC1160     0.0118
     24  C22        0.4460    0.8450   23.1430 C.3   1160  DXC1160     0.1141
     25  C23       -0.6390   -0.0030   23.7850 C.2   1160  DXC1160     0.3649
     26  O3        -0.3110   -1.0840   24.3290 O.co2 1160  DXC1160    -0.2457
     27  O4        -1.8250    0.4000   23.7510 O.co2 1160  DXC1160    -0.2457
     28  C24        0.6910    3.2690   21.1330 C.3   1160  DXC1160     0.0000
@<TRIPOS>BOND
     1    18     4    1
     2    22    12    1
     3     7     3    1
     4     7     8    1
     5     4     3    1
     6     4     5    1
     7     4    10    1
     8     3     2    1
     9     9     8    1
    10     9    10    1
    11     9    11    1
    12     5     6    1
    13    15    11    1
    14    15    16    1
    15    14    10    1
    16    14    13    1
    17    12    11    1
    18    12    13    1
    19    12    17    1
    20    19    28    1
    21    19    17    1
    22    19    23    1
    23    16    17    1
    24    13    20    1
    25     2     1    1
    26    23    24    1
    27     6     1    1
    28     1    21    1
    29    24    25    1
    30    27    25   ar
    31    25    26   ar
