@<TRIPOS>MOLECULE
4a84_DXC_A_1.pdb
 28 31 0 0 0
SMALL
GASTEIGER

@<TRIPOS>ATOM
      1  C1        14.8420   -0.3300    9.7470 C.3   1160  DXC1160     0.1520
      2  C2        13.9590    0.8870    9.5680 C.3   1160  DXC1160     0.0329
      3  C3        14.4470    2.0370   10.4790 C.3   1160  DXC1160     0.0025
      4  C4        14.4100    1.6720   11.9580 C.3   1160  DXC1160     0.0002
      5  C5        15.2070    0.3810   12.1080 C.3   1160  DXC1160     0.0026
      6  C6        14.7920   -0.7630   11.2090 C.3   1160  DXC1160     0.0329
      7  C7        13.6180    3.2780   10.2120 C.3   1160  DXC1160     0.0001
      8  C8        12.1620    3.0890   10.6030 C.3   1160  DXC1160     0.0000
      9  C9        12.0760    2.7500   12.0940 C.3   1160  DXC1160     0.0002
     10  C10       12.9450    1.5210   12.4330 C.3   1160  DXC1160     0.0025
     11  C11       10.6220    2.5900   12.5790 C.3   1160  DXC1160     0.0024
     12  C12       10.4710    2.1950   14.0460 C.3   1160  DXC1160     0.0282
     13  C13       11.2930    0.9160   14.2800 C.3   1160  DXC1160     0.1519
     14  C14       12.7750    1.1010   13.8990 C.3   1160  DXC1160     0.0329
     15  C15        9.6560    3.7730   12.4540 C.3   1160  DXC1160     0.0001
     16  C16        8.5390    3.4490   13.4970 C.3   1160  DXC1160     0.0001
     17  C17        8.9590    2.1370   14.1740 C.3   1160  DXC1160     0.0024
     18  C18       15.1460    2.7660   12.7440 C.3   1160  DXC1160     0.0000
     19  C19        8.3340    2.0060   15.5920 C.3   1160  DXC1160     0.0006
     20  O1        10.8550   -0.1710   13.4880 O.3   1160  DXC1160    -0.2232
     21  O2        14.4320   -1.4040    8.8820 O.3   1160  DXC1160    -0.2232
     22  C20       10.9930    3.2980   15.0090 C.3   1160  DXC1160     0.0025
     23  C21        6.7770    2.1340   15.6360 C.3   1160  DXC1160     0.0118
     24  C22        5.9010    1.2660   14.7640 C.3   1160  DXC1160     0.1141
     25  C23        4.5270    1.0170   15.3770 C.2   1160  DXC1160     0.3649
     26  O3         3.8630    1.8030   16.0940 O.co2 1160  DXC1160    -0.2457
     27  O4         4.0300   -0.0720   15.1190 O.co2 1160  DXC1160    -0.2457
     28  C24        8.8040    0.7870   16.3650 C.3   1160  DXC1160     0.0000
@<TRIPOS>BOND
     1    21     1    1
     2     2     1    1
     3     2     3    1
     4     1     6    1
     5     7     3    1
     6     7     8    1
     7     3     4    1
     8     8     9    1
     9     6     5    1
    10     4     5    1
    11     4    10    1
    12     4    18    1
    13     9    10    1
    14     9    11    1
    15    10    14    1
    16    15    11    1
    17    15    16    1
    18    11    12    1
    19    20    13    1
    20    16    17    1
    21    14    13    1
    22    12    17    1
    23    12    13    1
    24    12    22    1
    25    17    19    1
    26    24    25    1
    27    24    23    1
    28    27    25   ar
    29    25    26   ar
    30    19    23    1
    31    19    28    1
