@<TRIPOS>MOLECULE
4a85_H35_A_1.pdb
 16 18 0 0 0
SMALL
GASTEIGER

@<TRIPOS>ATOM
      1  CAM       11.0940    0.4780    8.2300 C.ar  1160  H351160     0.0406
      2  CAO       11.9280   -0.1840    9.0790 C.ar  1160  H351160     0.0436
      3  CAN       11.6320    0.3150   10.3340 C.ar  1160  H351160     0.1793
      4  OAL       10.6360    1.2740   10.1970 O.2   1160  H351160    -0.4504
      5  CAK       10.3210    1.3500    8.9900 C.ar  1160  H351160     0.1743
      6  CAP        9.3140    2.2930    8.4360 C.3   1160  H351160     0.3147
      7  N6         7.9280    1.8570    8.4910 N.pl3 1160  H351160    -0.0211
      8  C6         7.2520    3.0560    8.5840 C.2   1160  H351160     0.3859
      9  N1         7.6740    4.1620    7.8950 N.2   1160  H351160    -0.0304
     10  C2         6.9820    5.3200    8.0640 C.3   1160  H351160     0.4006
     11  N3         5.8920    5.3760    8.8860 N.2   1160  H351160    -0.1640
     12  C4         5.4670    4.2550    9.5490 C.1   1160  H351160     0.0578
     13  C5         6.1630    3.0630    9.4180 C.2   1160  H351160     0.2255
     14  N7         5.5730    2.0860   10.1750 N.2   1160  H351160    -0.2268
     15  C8         4.5220    2.6460   10.8050 C.3   1160  H351160     0.2618
     16  N9         4.4560    3.9700   10.4160 N.2   1160  H351160    -0.1914
@<TRIPOS>BOND
     1     9    10    1
     2     9     8    2
     3    10    11    1
     4     1     5   ar
     5     1     2   ar
     6     6     7    1
     7     6     5    1
     8     7     8    1
     9     8    13    1
    10    11    12    2
    11     5     4   ar
    12     2     3   ar
    13    13    12    1
    14    13    14    2
    15    12    16    2
    16    14    15    1
    17     4     3   ar
    18    16    15    1
