@<TRIPOS>MOLECULE
4a86_H35_A_1.pdb
 16 18 0 0 0
SMALL
GASTEIGER

@<TRIPOS>ATOM
      1  CAM       10.7330   -0.0300    8.1310 C.ar  1161  H351161     0.0406
      2  CAO        9.8800    0.9560    8.4880 C.ar  1161  H351161     0.0436
      3  CAN       10.5400    1.7770    9.3940 C.ar  1161  H351161     0.1793
      4  OAL       11.7890    1.2400    9.5610 O.2   1161  H351161    -0.4504
      5  CAK       11.8720    0.2240    8.8330 C.ar  1161  H351161     0.1743
      6  CAP       13.0290   -0.6670    8.6840 C.3   1161  H351161     0.3147
      7  N6        12.6120   -2.0070    9.1370 N.pl3 1161  H351161    -0.0211
      8  C6        13.4700   -2.4270   10.1400 C.2   1161  H351161     0.3859
      9  N1        14.4350   -1.5830   10.5500 N.2   1161  H351161    -0.0304
     10  C2        15.3030   -1.9520   11.4950 C.3   1161  H351161     0.4006
     11  N3        15.1950   -3.1640   12.0390 N.2   1161  H351161    -0.1640
     12  C4        14.2300   -4.0410   11.6710 C.1   1161  H351161     0.0578
     13  C5        13.3420   -3.6910   10.6970 C.2   1161  H351161     0.2255
     14  N7        12.5090   -4.7370   10.5080 N.2   1161  H351161    -0.2268
     15  C8        12.8710   -5.7290   11.3430 C.3   1161  H351161     0.2618
     16  N9        13.9330   -5.2930   12.0520 N.2   1161  H351161    -0.1914
@<TRIPOS>BOND
     1     1     2   ar
     2     1     5   ar
     3     2     3   ar
     4     6     5    1
     5     6     7    1
     6     5     4   ar
     7     7     8    1
     8     3     4   ar
     9     8     9    2
    10     8    13    1
    11    14    13    2
    12    14    15    1
    13     9    10    1
    14    13    12    1
    15    15    16    1
    16    10    11    1
    17    12    11    2
    18    12    16    2
