@<TRIPOS>MOLECULE
4a86_2AN_A_1.pdb
 21 23 0 0 0
SMALL
GASTEIGER

@<TRIPOS>ATOM
      1  C1         4.9370    4.5040   10.1030 C.ar  1160  2AN1160     0.0717
      2  C2         4.2870    5.7050    9.7990 C.ar  1160  2AN1160     0.0165
      3  C3         4.7360    6.5170    8.7820 C.ar  1160  2AN1160     0.0013
      4  C4         5.8540    6.1380    8.0630 C.ar  1160  2AN1160     0.0001
      5  C5         6.5040    4.9500    8.3680 C.ar  1160  2AN1160     0.0025
      6  C6         7.6080    4.6420    7.5990 C.ar  1160  2AN1160     0.0001
      7  C7         8.2670    3.4710    7.8740 C.ar  1160  2AN1160     0.0013
      8  C8         7.8250    2.6320    8.8930 C.ar  1160  2AN1160     0.0189
      9  N          4.4920    3.6730   11.1320 N.pl3 1160  2AN1160    -0.2124
     10  S          6.5210    1.6990   10.7940 S.3   1160  2AN1160     0.0421
     11  C9         6.7500    2.8840    9.6820 C.ar  1160  2AN1160     0.1135
     12  C10        6.0650    4.0970    9.4020 C.ar  1160  2AN1160     0.0329
     13  C11        3.1040    3.6100   11.3170 C.ar  1160  2AN1160     0.0705
     14  C12        2.6570    3.5220   12.6420 C.ar  1160  2AN1160     0.0165
     15  C13        1.3000    3.4430   12.9270 C.ar  1160  2AN1160     0.0013
     16  C14        0.3810    3.4390   11.8680 C.ar  1160  2AN1160     0.0001
     17  C15        0.8200    3.5140   10.5390 C.ar  1160  2AN1160     0.0013
     18  C16        2.1870    3.5930   10.2620 C.ar  1160  2AN1160     0.0165
     19  O1         7.4870    0.6460   10.5990 O.3   1160  2AN1160    -0.0650
     20  O2         5.2790    1.0340   10.7130 O.3   1160  2AN1160    -0.0650
     21  O3         6.8370    2.2780   12.2750 O.3   1160  2AN1160    -0.0650
@<TRIPOS>BOND
     1     6     7   ar
     2     6     5   ar
     3     7     8   ar
     4     4     5   ar
     5     4     3   ar
     6     5    12   ar
     7     3     2   ar
     8     8    11   ar
     9    12    11   ar
    10    12     1   ar
    11    11    10    1
    12     2     1   ar
    13     1     9    1
    14    18    17   ar
    15    18    13   ar
    16    17    16   ar
    17    19    10    1
    18    20    10    1
    19    10    21    1
    20     9    13    1
    21    13    14   ar
    22    16    15   ar
    23    14    15   ar
