@<TRIPOS>MOLECULE
4a87_NAR_A_1.pdb
 20 22 0 0 0
SMALL
GASTEIGER

@<TRIPOS>ATOM
      1  C1         7.0120    5.4550    7.9020 C.ar  1161  NAR1161     0.0792
      2  C2         5.9740    6.3620    8.1000 C.ar  1161  NAR1161     0.2020
      3  C3         4.9130    6.0570    8.9470 C.ar  1161  NAR1161     0.0843
      4  C4         4.8690    4.8310    9.6120 C.ar  1161  NAR1161     0.2046
      5  C5         5.9080    3.9300    9.4260 C.ar  1161  NAR1161     0.1078
      6  C6         6.9630    4.2370    8.5610 C.ar  1161  NAR1161     0.1479
      7  C7         5.8970    2.6150   10.1360 C.2   1161  NAR1161     0.1831
      8  C8         7.0940    1.7190    9.9480 C.3   1161  NAR1161     0.1174
      9  C9         8.3160    2.5580    9.5440 C.3   1161  NAR1161     0.1958
     10  O1         7.9930    3.3540    8.3940 O.3   1161  NAR1161    -0.4740
     11  O2         4.9430    2.2640   10.8450 O.2   1161  NAR1161    -0.2910
     12  C10        9.4720    1.6560    9.3090 C.ar  1161  NAR1161     0.0178
     13  C11       10.3870    1.3500   10.3170 C.ar  1161  NAR1161     0.0025
     14  C12       11.4480    0.4800   10.0630 C.ar  1161  NAR1161     0.0418
     15  C13       11.6040   -0.0920    8.8030 C.ar  1161  NAR1161     0.1957
     16  C14       10.6880    0.2090    7.8160 C.ar  1161  NAR1161     0.0418
     17  C15        9.6320    1.0840    8.0720 C.ar  1161  NAR1161     0.0025
     18  O3        12.6270   -0.9490    8.4930 O.3   1161  NAR1161    -0.2866
     19  O4         5.9850    7.5630    7.4640 O.3   1161  NAR1161    -0.2864
     20  O5         3.8060    4.5550   10.4360 O.3   1161  NAR1161    -0.2863
@<TRIPOS>BOND
     1    19     2    1
     2    16    17   ar
     3    16    15   ar
     4     1     2   ar
     5     1     6   ar
     6    17    12   ar
     7     2     3   ar
     8    10     6    1
     9    10     9    1
    10    18    15    1
    11     6     5   ar
    12    15    14   ar
    13     3     4   ar
    14    12     9    1
    15    12    13   ar
    16     5     4   ar
    17     5     7    1
    18     9     8    1
    19     4    20    1
    20     8     7    1
    21    14    13   ar
    22     7    11    2
