@<TRIPOS>MOLECULE
4a8f_ATP_A_1.pdb
 31 33 0 0 0
SMALL
GASTEIGER

@<TRIPOS>ATOM
      1  PG        13.9690    7.6560   23.6920 P.3   1666  ATP1666     0.5373
      2  O1G       14.3450    9.0150   24.5970 O.3   1666  ATP1666    -0.1143
      3  O2G       13.7090    7.9530   22.0760 O.2   1666  ATP1666    -0.2221
      4  O3G       14.9450    6.3920   23.9440 O.3   1666  ATP1666    -0.1143
      5  PB        11.1120    7.9510   23.4950 P.3   1666  ATP1666     0.2277
      6  O1B       10.8900    9.5830   23.8560 O.3   1666  ATP1666    -0.4368
      7  O2B       11.2420    7.5030   21.9110 O.2   1666  ATP1666    -0.5168
      8  O3B       12.4380    7.2700   24.1830 O.3   1666  ATP1666    -0.2258
      9  PA         8.0590    6.7350   23.7050 P.3   1666  ATP1666     0.2189
     10  O1A        7.7730    7.8230   22.2950 O.2   1666  ATP1666    -0.5170
     11  O2A        7.8380    5.1100   23.7180 O.3   1666  ATP1666    -0.4371
     12  O3A        9.8670    6.8760   23.9480 O.3   1666  ATP1666    -0.2700
     13  O5'        7.3750    7.2780   25.2530 O.3   1666  ATP1666    -0.3112
     14  C5'        8.2820    7.5700   26.4270 C.3   1666  ATP1666     0.1813
     15  C4'        9.1040    6.2760   26.6940 C.3   1666  ATP1666     0.1821
     16  O4'       10.6340    6.2120   26.3470 O.3   1666  ATP1666    -0.3135
     17  C3'        8.6210    5.2270   27.7940 C.3   1666  ATP1666     0.2184
     18  O3'        7.3550    4.5230   27.3310 O.3   1666  ATP1666    -0.2174
     19  C2'        9.9880    4.2880   27.8820 C.3   1666  ATP1666     0.2570
     20  O2'        9.8800    2.8220   27.6160 O.3   1666  ATP1666    -0.2130
     21  C1'       11.1250    4.8120   26.8040 C.3   1666  ATP1666     0.3186
     22  N9        12.3100    4.9390   27.6300 N.pl3 1666  ATP1666    -0.1439
     23  C8        12.5840    4.0220   28.5970 C.3   1666  ATP1666     0.3377
     24  N7        13.7630    4.3510   29.1820 N.2   1666  ATP1666    -0.2095
     25  C5        14.3120    5.5540   28.6330 C.2   1666  ATP1666     0.2526
     26  C6        15.5660    6.3640   28.8960 C.2   1666  ATP1666     0.4393
     27  N6        16.4610    5.8370   29.8680 N.pl3 1666  ATP1666     0.2180
     28  N1        15.7940    7.5960   28.0750 N.2   1666  ATP1666     0.0021
     29  C2        14.8250    7.9380   27.1230 C.3   1666  ATP1666     0.5254
     30  N3        13.5900    7.1910   26.8270 N.2   1666  ATP1666    -0.0055
     31  C4        13.3630    5.9770   27.6060 C.2   1666  ATP1666     0.3518
@<TRIPOS>BOND
     1     7     5    2
     2     3     1    2
     3    10     9    2
     4     5     6    1
     5     5    12    1
     6     5     8    1
     7     1     4    1
     8     1     8    1
     9     1     2    1
    10     9    11    1
    11     9    12    1
    12     9    13    1
    13    13    14    1
    14    16    15    1
    15    16    21    1
    16    14    15    1
    17    15    17    1
    18    21    22    1
    19    21    19    1
    20    30    29    1
    21    30    31    2
    22    29    28    1
    23    18    17    1
    24    31    22    1
    25    31    25    1
    26    20    19    1
    27    22    23    1
    28    17    19    1
    29    28    26    2
    30    23    24    1
    31    25    26    1
    32    25    24    2
    33    26    27    1
