@<TRIPOS>MOLECULE
4a8g_DMX_A_1.pdb
 17 17 0 0 0
SMALL
GASTEIGER

@<TRIPOS>ATOM
      1  C1        15.0620   -3.5630   11.6100 C.ar  1160  DMX1160    -0.0000
      2  C2        13.7120   -3.7220   11.2790 C.ar  1160  DMX1160    -0.0004
      3  C3        13.0540   -2.6900   10.6040 C.ar  1160  DMX1160    -0.0063
      4  C4        13.7050   -1.4780   10.2790 C.ar  1160  DMX1160    -0.0426
      5  C5        15.0600   -1.3590   10.6330 C.ar  1160  DMX1160    -0.0063
      6  C6        15.7470   -2.3820   11.2860 C.ar  1160  DMX1160    -0.0004
      7  C7        13.0210   -0.2830    9.5400 C.3   1160  DMX1160    -0.0458
      8  N8        11.5520   -0.0040    9.6600 N.4   1160  DMX1160     0.3898
      9  C9        11.1270    1.3840    9.3210 C.3   1160  DMX1160    -0.0711
     10  C10        9.1220    3.0370    9.1700 C.3   1160  DMX1160     0.1031
     11  S11        7.5620    3.2750    8.5580 S.3   1160  DMX1160    -0.1961
     12  C12       10.9590   -0.8870    8.6540 C.3   1160  DMX1160    -0.0954
     13  C13       11.1170   -0.2770   11.0500 C.3   1160  DMX1160    -0.0954
     14  O14        7.4360    2.4380    7.1570 O.3   1160  DMX1160    -0.3075
     15  O15        7.2620    4.8620    8.1740 O.3   1160  DMX1160    -0.3075
     16  O16        6.4470    2.7310    9.6440 O.3   1160  DMX1160    -0.3075
     17  C17        9.5960    1.5770    9.2680 C.3   1160  DMX1160    -0.0007
@<TRIPOS>BOND
     1    14    11    1
     2    15    11    1
     3    11    10    1
     4    11    16    1
     5    12     8    1
     6    10    17    1
     7    17     9    1
     8     9     8    1
     9     7     8    1
    10     7     4    1
    11     8    13    1
    12     4     3   ar
    13     4     5   ar
    14     3     2   ar
    15     5     6   ar
    16     2     1   ar
    17     6     1   ar
