@<TRIPOS>MOLECULE
4a8h_PUW_A_1.pdb
 13 12 0 0 0
SMALL
GASTEIGER

@<TRIPOS>ATOM
      1  O3P        9.0580   54.3000   38.8030 O.3   1341  PUW1341    -0.3568
      2  P          7.9680   53.2570   38.9570 P.3   1341  PUW1341     0.1264
      3  O1P        7.5340   53.0440   40.3750 O.3   1341  PUW1341    -0.3568
      4  O2P        6.8360   53.4510   37.9630 O.2   1341  PUW1341    -0.4596
      5  C1P        8.7640   51.6840   38.4960 C.3   1341  PUW1341     0.1454
      6  C1         7.9820   50.4900   38.9840 C.2   1341  PUW1341     0.2488
      7  O1         6.9170   50.1890   38.4600 O.2   1341  PUW1341    -0.2728
      8  NE         8.5160   49.7910   39.9800 N.am  1341  PUW1341    -0.2050
      9  CD         7.9370   48.6080   40.6090 C.3   1341  PUW1341     0.1152
     10  CG         8.0630   48.7740   42.1250 C.3   1341  PUW1341     0.0250
     11  CB         7.7030   47.4830   42.8650 C.3   1341  PUW1341     0.0223
     12  CA         7.8130   47.6220   44.3830 C.3   1341  PUW1341     0.1094
     13  N          7.7170   46.3030   44.9990 N.3   1341  PUW1341    -0.1314
@<TRIPOS>BOND
     1     4     2    2
     2     7     6    2
     3     5     2    1
     4     5     6    1
     5     1     2    1
     6     2     3    1
     7     6     8   am
     8     8     9    1
     9     9    10    1
    10    10    11    1
    11    11    12    1
    12    12    13    1
