@<TRIPOS>MOLECULE
4a8k_NUC_F_1.pdb
 36 39 0 0 0
SMALL
GASTEIGER

@<TRIPOS>ATOM
      1  O5'      -27.6630    1.2240   16.1140 O.3     6  DT6        -0.2176
      2  C5'      -28.7810    0.8820   16.9290 C.3     6  DT6         0.2140
      3  C4'      -29.8070    0.0430   16.1770 C.3     6  DT6         0.1774
      4  O4'      -30.8100   -0.4580   17.1010 O.3     6  DT6        -0.3339
      5  C3'      -30.5950    0.7480   15.0660 C.3     6  DT6         0.1557
      6  O3'      -30.4960    0.0600   13.7940 O.3     6  DT6        -0.3139
      7  C2'      -32.0190    0.9000   15.6090 C.3     6  DT6         0.0845
      8  C1'      -32.0770   -0.3480   16.4780 C.3     6  DT6         0.2089
      9  N1       -33.2420   -0.5010   17.4210 N.am    6  DT6        -0.1794
     10  C2       -34.2590   -1.4000   17.1030 C.1     6  DT6         0.2844
     11  O2       -34.2940   -2.0780   16.0840 O.2     6  DT6        -0.1918
     12  N3       -35.2620   -1.4810   18.0480 N.2     6  DT6        -0.2455
     13  C4       -35.3540   -0.7740   19.2450 C.1     6  DT6         0.2134
     14  O4       -36.3260   -0.9650   19.9730 O.2     6  DT6        -0.2088
     15  C5       -34.2590    0.1430   19.5200 C.2     6  DT6         0.0891
     16  C7       -34.2300    0.9730   20.7740 C.3     6  DT6         0.0462
     17  C6       -33.2720    0.2280   18.6080 C.2     6  DT6         0.0877
     18  P        -31.1610   -1.3120   13.2660 P.3     7  DC7         0.2141
     19  OP1      -30.6720   -2.4310   14.1070 O.3     7  DC7        -0.4373
     20  OP2      -32.6220   -1.1120   13.1040 O.2     7  DC7        -0.5172
     21  O5'      -30.4920   -1.4610   11.8140 O.3     7  DC7        -0.3114
     22  C5'      -30.9200   -0.8100   10.6090 C.3     7  DC7         0.1812
     23  C4'      -30.8320    0.7140   10.6570 C.3     7  DC7         0.1773
     24  O4'      -30.1940    1.2440    9.4650 O.3     7  DC7        -0.3339
     25  C3'      -32.1640    1.4370   10.8040 C.3     7  DC7         0.1857
     26  O3'      -32.0860    2.4190   11.8310 O.3     7  DC7        -0.2203
     27  C2'      -32.4410    2.0490    9.4300 C.3     7  DC7         0.0874
     28  C1'      -31.1300    1.9220    8.6420 C.3     7  DC7         0.2090
     29  N1       -31.2320    1.2680    7.2540 N.am    7  DC7        -0.1802
     30  C2       -31.8920    1.9140    6.1720 C.1     7  DC7         0.2756
     31  O2       -32.4250    3.0270    6.3080 O.2     7  DC7        -0.1925
     32  N3       -31.9440    1.2810    4.9620 N.2     7  DC7        -0.3024
     33  C4       -31.3720    0.0810    4.7820 C.2     7  DC7         0.2346
     34  N4       -31.4630   -0.4800    3.5710 N.pl3   7  DC7        -0.0921
     35  C5       -30.6880   -0.5870    5.8480 C.2     7  DC7         0.0687
     36  C6       -30.6440    0.0370    7.0380 C.2     7  DC7         0.0835
@<TRIPOS>BOND
     1    34    33    1
     2    33    32    2
     3    33    35    1
     4    32    30    2
     5    35    36    2
     6    30    31    2
     7    30    29   am
     8    36    29    1
     9    29    28    1
    10    28    27    1
    11    28    24    1
    12    27    25    1
    13    24    23    1
    14    22    23    1
    15    22    21    1
    16    23    25    1
    17    25    26    1
    18    21    18    1
    19    20    18    2
    20    18     6    1
    21    18    19    1
    22     6     5    1
    23     5     7    1
    24     5     3    1
    25     7     8    1
    26    11    10    2
    27     1     2    1
    28     3     2    1
    29     3     4    1
    30     8     4    1
    31     8     9    1
    32    10     9   am
    33    10    12    2
    34     9    17    1
    35    12    13    2
    36    17    15    2
    37    13    15    1
    38    13    14    2
    39    15    16    1
