@<TRIPOS>MOLECULE
4a8k_GTP_A_1.pdb
 32 34 0 0 0
SMALL
GASTEIGER

@<TRIPOS>ATOM
      1  O6        13.8130    5.2760   32.0300 O.2   1666  GTP1666    -0.2069
      2  C6        13.6130    5.4350   30.8160 C.1   1666  GTP1666     0.2372
      3  C5        12.2920    5.2330   30.2380 C.2   1666  GTP1666     0.2182
      4  C4        12.0760    5.4200   28.8200 C.2   1666  GTP1666     0.2300
      5  N3        13.1690    5.8060   28.0560 N.2   1666  GTP1666    -0.3074
      6  C2        14.4050    5.9950   28.6070 C.1   1666  GTP1666     0.2531
      7  N2        15.4820    6.3780   27.8370 N.pl3 1666  GTP1666    -0.0226
      8  N1        14.6380    5.8080   29.9640 N.2   1666  GTP1666    -0.2485
      9  N7        11.1010    4.8730   30.7790 N.2   1666  GTP1666    -0.2322
     10  C8        10.1920    4.8230   29.8540 C.3   1666  GTP1666     0.2246
     11  N9        10.6990    5.1400   28.6200 N.pl3 1666  GTP1666    -0.2354
     12  C1'        9.8200    5.1790   27.4020 C.3   1666  GTP1666     0.2293
     13  C2'        9.0940    3.8350   27.1930 C.3   1666  GTP1666     0.2310
     14  O2'        9.9860    2.8430   26.6780 O.3   1666  GTP1666    -0.2158
     15  C3'        7.7610    4.1880   26.4000 C.3   1666  GTP1666     0.2158
     16  O3'        7.7030    3.8790   25.0050 O.3   1666  GTP1666    -0.2175
     17  O4'        8.6390    6.0570   27.5710 O.3   1666  GTP1666    -0.3326
     18  C4'        7.5950    5.7130   26.5810 C.3   1666  GTP1666     0.1799
     19  C5'        6.1730    6.0500   27.0990 C.3   1666  GTP1666     0.1813
     20  O5'        5.1880    6.4950   26.1360 O.3   1666  GTP1666    -0.3112
     21  PA         3.9490    7.3040   26.8950 P.3   1666  GTP1666     0.2189
     22  O1A        3.2460    6.4480   27.8950 O.3   1666  GTP1666    -0.4371
     23  O2A        4.5180    8.6150   27.6420 O.2   1666  GTP1666    -0.5170
     24  O3A        2.8670    7.7990   25.7720 O.3   1666  GTP1666    -0.2700
     25  PB         1.5540    8.5830   26.3570 P.3   1666  GTP1666     0.2277
     26  O1B        0.5430    8.6790   25.2640 O.2   1666  GTP1666    -0.5168
     27  O2B        0.9030    7.7640   27.6010 O.3   1666  GTP1666    -0.4368
     28  O3B        1.9570   10.0890   26.8490 O.3   1666  GTP1666    -0.2258
     29  PG         2.9090   10.9720   25.8530 P.3   1666  GTP1666     0.5373
     30  O1G        2.9410   10.4550   24.4600 O.2   1666  GTP1666    -0.2221
     31  O3G        2.3580   12.4810   25.8480 O.3   1666  GTP1666    -0.1143
     32  O2G        4.4060   11.0370   26.4290 O.3   1666  GTP1666    -0.1143
@<TRIPOS>BOND
     1    30    29    2
     2    16    15    1
     3    26    25    2
     4    24    25    1
     5    24    21    1
     6    31    29    1
     7    29    32    1
     8    29    28    1
     9    20    21    1
    10    20    19    1
    11    25    28    1
    12    25    27    1
    13    15    18    1
    14    15    13    1
    15    18    19    1
    16    18    17    1
    17    14    13    1
    18    21    23    2
    19    21    22    1
    20    13    12    1
    21    12    17    1
    22    12    11    1
    23     7     6    1
    24     5     6    2
    25     5     4    2
    26     6     8    2
    27    11     4    1
    28    11    10    1
    29     4     3    1
    30    10     9    1
    31     8     2    2
    32     3     9    2
    33     3     2    1
    34     2     1    2
