@<TRIPOS>MOLECULE
4a8m_GTP_P_1.pdb
 32 34 0 0 0
SMALL
GASTEIGER

@<TRIPOS>ATOM
      1  PG        11.1620    6.2470   20.6160 P.3   1666  GTP1666     0.5373
      2  O1G       11.0160    7.6390   20.1690 O.3   1666  GTP1666    -0.1143
      3  O2G       11.4540    5.3680   19.3060 O.2   1666  GTP1666    -0.2221
      4  O3G        9.6970    5.8580   21.1450 O.3   1666  GTP1666    -0.1143
      5  O3B       12.3880    6.0080   21.7700 O.3   1666  GTP1666    -0.2258
      6  PB        12.2440    6.4290   23.4060 P.3   1666  GTP1666     0.2277
      7  O1B       13.5410    6.3340   24.1620 O.3   1666  GTP1666    -0.4368
      8  O2B       11.2210    5.3540   24.0350 O.2   1666  GTP1666    -0.5168
      9  O3A       11.8310    8.0500   23.4630 O.3   1666  GTP1666    -0.2700
     10  PA        10.7200    8.6540   24.5120 P.3   1666  GTP1666     0.2189
     11  O1A        9.9800    9.7430   23.7960 O.2   1666  GTP1666    -0.5170
     12  O2A       11.5040    9.2900   25.8240 O.3   1666  GTP1666    -0.4371
     13  O5'        9.6330    7.4190   24.8000 O.3   1666  GTP1666    -0.3112
     14  C5'        9.4800    7.0010   26.2050 C.3   1666  GTP1666     0.1813
     15  C4'        8.9330    5.5410   26.3980 C.3   1666  GTP1666     0.1799
     16  O4'       10.0250    4.5560   26.6290 O.3   1666  GTP1666    -0.3326
     17  C3'        7.9320    5.4170   27.5900 C.3   1666  GTP1666     0.2158
     18  O3'        6.8420    4.5030   27.3070 O.3   1666  GTP1666    -0.2175
     19  C2'        8.8960    4.9380   28.7220 C.3   1666  GTP1666     0.2310
     20  O2'        8.1790    4.2690   29.7580 O.3   1666  GTP1666    -0.2158
     21  C1'        9.9710    4.0290   27.9890 C.3   1666  GTP1666     0.2293
     22  N9        11.3350    3.9480   28.6490 N.pl3 1666  GTP1666    -0.2354
     23  C8        11.6350    3.0320   29.6250 C.3   1666  GTP1666     0.2246
     24  N7        12.8500    3.2250   30.0660 N.2   1666  GTP1666    -0.2322
     25  C5        13.4760    4.2650   29.4180 C.2   1666  GTP1666     0.2182
     26  C6        14.8170    4.9070   29.4800 C.1   1666  GTP1666     0.2372
     27  O6        15.7090    4.5230   30.2510 O.2   1666  GTP1666    -0.2069
     28  N1        15.0940    5.9810   28.6180 N.2   1666  GTP1666    -0.2485
     29  C2        14.1270    6.4720   27.7160 C.1   1666  GTP1666     0.2531
     30  N2        14.4580    7.5730   26.8920 N.pl3 1666  GTP1666    -0.0226
     31  N3        12.8830    5.8540   27.6700 N.2   1666  GTP1666    -0.3074
     32  C4        12.5030    4.7580   28.4770 C.2   1666  GTP1666     0.2300
@<TRIPOS>BOND
     1     3     1    2
     2     2     1    1
     3     1     4    1
     4     1     5    1
     5     5     6    1
     6     6     9    1
     7     6     8    2
     8     6     7    1
     9     9    10    1
    10    11    10    2
    11    10    13    1
    12    10    12    1
    13    13    14    1
    14    14    15    1
    15    15    16    1
    16    15    17    1
    17    16    21    1
    18    30    29    1
    19    18    17    1
    20    17    19    1
    21    31    29    2
    22    31    32    2
    23    29    28    2
    24    21    22    1
    25    21    19    1
    26    32    22    1
    27    32    25    1
    28    28    26    2
    29    22    23    1
    30    19    20    1
    31    25    26    1
    32    25    24    2
    33    26    27    2
    34    23    24    1
