@<TRIPOS>MOLECULE
4a8m_ATP_P_1.pdb
 13 12 0 0 0
SMALL
GASTEIGER

@<TRIPOS>ATOM
      1  PG         2.9810    6.3000   26.9110 P.3   1667  ATP1667     0.5373
      2  O1G        2.4040    5.6940   28.1960 O.3   1667  ATP1667    -0.1143
      3  O2G        3.5000    5.1620   26.0150 O.2   1667  ATP1667    -0.2221
      4  O3G        4.1410    7.3980   27.2030 O.3   1667  ATP1667    -0.1143
      5  PB         1.0710    8.2950   26.8670 P.3   1667  ATP1667     0.2317
      6  O1B       -0.1940    8.6140   26.0050 O.2   1667  ATP1667    -0.5167
      7  O2B        0.6410    7.8720   28.2950 O.3   1667  ATP1667    -0.4368
      8  O3B        1.8050    7.0590   26.2290 O.3   1667  ATP1667    -0.2257
      9  PA         2.1820   10.7520   25.9130 P.3   1667  ATP1667     0.5373
     10  O1A        3.6130   11.2520   25.8250 O.3   1667  ATP1667    -0.1143
     11  O2A        1.7510   10.2800   24.5400 O.2   1667  ATP1667    -0.2221
     12  O3A        2.0770    9.5330   26.9130 O.3   1667  ATP1667    -0.2257
     13  O5'        1.2340   11.8790   26.3050 O.3   1667  ATP1667    -0.1143
@<TRIPOS>BOND
     1    11     9    2
     2    10     9    1
     3     9    13    1
     4     9    12    1
     5     6     5    2
     6     3     1    2
     7     8     5    1
     8     8     1    1
     9     5    12    1
    10     5     7    1
    11     1     4    1
    12     1     2    1
