@<TRIPOS>MOLECULE
4a8p_PAO_A_1.pdb
 16 15 0 0 0
SMALL
GASTEIGER

@<TRIPOS>ATOM
      1  N         -8.2970   -3.7770   -7.7650 N.3   1340  PAO1340    -0.1208
      2  CA        -7.4950   -2.6840   -8.3390 C.3   1340  PAO1340     0.1944
      3  CB        -6.5890   -2.0720   -7.2560 C.3   1340  PAO1340     0.0324
      4  CG        -6.0350   -0.7060   -7.6710 C.3   1340  PAO1340     0.0255
      5  CD        -5.3050   -0.0190   -6.5110 C.3   1340  PAO1340     0.1152
      6  NE        -4.9310    1.3410   -6.9280 N.am  1340  PAO1340    -0.2050
      7  C         -6.6440   -3.2270   -9.4850 C.2   1340  PAO1340     0.3819
      8  O         -6.1560   -4.3680   -9.3440 O.co2 1340  PAO1340    -0.2441
      9  OXT       -6.4750   -2.4750  -10.4670 O.co2 1340  PAO1340    -0.2441
     10  C1        -3.7210    1.8530   -6.7070 C.2   1340  PAO1340     0.2488
     11  O1        -2.8110    1.2700   -6.1210 O.2   1340  PAO1340    -0.2728
     12  C1P       -3.5180    3.2680   -7.2310 C.3   1340  PAO1340     0.1454
     13  P         -2.4210    3.2350   -8.6690 P.3   1340  PAO1340     0.1264
     14  O1P       -0.9030    3.1970   -8.1340 O.3   1340  PAO1340    -0.3568
     15  O2P       -2.6060    4.6360   -9.4170 O.3   1340  PAO1340    -0.3568
     16  O3P       -2.6430    2.0850   -9.5880 O.2   1340  PAO1340    -0.4596
@<TRIPOS>BOND
     1     9     7   ar
     2    16    13    2
     3     7     8   ar
     4     7     2    1
     5    15    13    1
     6    13    14    1
     7    13    12    1
     8     2     1    1
     9     2     3    1
    10     4     3    1
    11     4     5    1
    12    12    10    1
    13     6    10   am
    14     6     5    1
    15    10    11    2
