@<TRIPOS>MOLECULE
4a8q_ATP_A_1.pdb
 13 12 0 0 0
SMALL
GASTEIGER

@<TRIPOS>ATOM
      1  PG         3.2210   10.6160   26.3800 P.3   1666  ATP1666     0.5373
      2  O1G        4.3370   11.6510   26.4000 O.3   1666  ATP1666    -0.1143
      3  O2G        3.1010    9.9650   24.9930 O.2   1666  ATP1666    -0.2221
      4  O3G        3.5170    9.5530   27.4310 O.3   1666  ATP1666    -0.1143
      5  PB         0.8470   12.0370   25.7610 P.3   1666  ATP1666     0.2317
      6  O1B        0.7170   11.1880   24.4500 O.2   1666  ATP1666    -0.5167
      7  O2B        1.4180   13.4470   25.4750 O.3   1666  ATP1666    -0.4368
      8  O3B        1.8680   11.3270   26.7350 O.3   1666  ATP1666    -0.2257
      9  PA        -1.8920   11.3470   26.6820 P.3   1666  ATP1666     0.5373
     10  O1A       -1.5490    9.8560   26.4580 O.3   1666  ATP1666    -0.1143
     11  O2A       -2.5510   11.5240   28.0820 O.3   1666  ATP1666    -0.1143
     12  O3A       -0.5710   12.2590   26.4880 O.3   1666  ATP1666    -0.2257
     13  O5'       -3.0410   11.7880   25.6350 O.2   1666  ATP1666    -0.2221
@<TRIPOS>BOND
     1     6     5    2
     2     3     1    2
     3     7     5    1
     4    13     9    2
     5     5    12    1
     6     5     8    1
     7     1     2    1
     8     1     8    1
     9     1     4    1
    10    10     9    1
    11    12     9    1
    12     9    11    1
