@<TRIPOS>MOLECULE
4a8q_NUC_G_1.pdb
 38 42 0 0 0
SMALL
GASTEIGER

@<TRIPOS>ATOM
      1  O5'       48.5320   23.3740   43.0470 O.3     5  DC5        -0.2176
      2  C5'       49.1640   24.4180   43.7880 C.3     5  DC5         0.2140
      3  C4'       50.3750   24.9870   43.0550 C.3     5  DC5         0.1774
      4  O4'       49.9920   25.5060   41.7560 O.3     5  DC5        -0.3339
      5  C3'       51.1360   26.1170   43.7530 C.3     5  DC5         0.1557
      6  O3'       52.5390   25.8480   44.0080 O.3     5  DC5        -0.3139
      7  C2'       50.8930   27.3890   42.9370 C.3     5  DC5         0.0845
      8  C1'       50.3400   26.8760   41.6070 C.3     5  DC5         0.2089
      9  N1        49.1610   27.6150   40.9890 N.am    5  DC5        -0.1802
     10  C2        49.2530   28.1570   39.6800 C.1     5  DC5         0.2756
     11  O2        50.3140   28.1010   39.0340 O.2     5  DC5        -0.1925
     12  N3        48.1450   28.7600   39.1500 N.2     5  DC5        -0.3024
     13  C4        46.9930   28.8240   39.8410 C.2     5  DC5         0.2346
     14  N4        45.9460   29.4180   39.2620 N.pl3   5  DC5        -0.0921
     15  C5        46.8690   28.2720   41.1570 C.2     5  DC5         0.0687
     16  C6        47.9600   27.6760   41.6720 C.2     5  DC5         0.0835
     17  P         53.7040   25.1770   43.1110 P.3     6  DG6         0.2141
     18  OP1       53.3160   25.1670   41.6810 O.2     6  DG6        -0.5172
     19  OP2       54.0660   23.8930   43.7520 O.3     6  DG6        -0.4373
     20  O5'       54.9700   26.1580   43.2650 O.3     6  DG6        -0.3114
     21  C5'       55.1950   26.9520   44.4340 C.3     6  DG6         0.1812
     22  C4'       56.6600   27.2460   44.7460 C.3     6  DG6         0.1772
     23  O4'       56.7170   27.7760   46.1000 O.3     6  DG6        -0.3347
     24  C3'       57.6290   26.0620   44.7100 C.3     6  DG6         0.1857
     25  O3'       58.5500   26.1900   43.6270 O.3     6  DG6        -0.2203
     26  C2'       58.3590   26.1060   46.0510 C.3     6  DG6         0.0865
     27  C1'       57.4260   26.9020   46.9650 C.3     6  DG6         0.1981
     28  N9        56.5140   26.1070   47.8210 N.pl3   6  DG6        -0.2374
     29  C8        55.1330   26.1760   47.8490 C.3     6  DG6         0.2245
     30  N7        54.5630   25.3610   48.6930 N.2     6  DG6        -0.2322
     31  C5        55.6310   24.7170   49.3070 C.2     6  DG6         0.2182
     32  C6        55.6380   23.7180   50.3280 C.1     6  DG6         0.2372
     33  O6        54.6650   23.2160   50.9060 O.2     6  DG6        -0.2069
     34  N1        56.9300   23.3050   50.6840 N.2     6  DG6        -0.2485
     35  C2        58.0890   23.8040   50.1210 C.1     6  DG6         0.2531
     36  N2        59.2420   23.2900   50.5840 N.pl3   6  DG6        -0.0226
     37  N3        58.0970   24.7470   49.1700 N.2     6  DG6        -0.3074
     38  C4        56.8430   25.1680   48.7990 C.2     6  DG6         0.2299
@<TRIPOS>BOND
     1    11    10    2
     2    12    10    2
     3    12    13    2
     4    14    13    1
     5    10     9   am
     6    13    15    1
     7     9     8    1
     8     9    16    1
     9    15    16    2
    10     8     4    1
    11     8     7    1
    12    18    17    2
    13     4     3    1
    14     7     5    1
    15     1     2    1
    16     3     5    1
    17     3     2    1
    18    17    20    1
    19    17    19    1
    20    17     6    1
    21    20    21    1
    22    25    24    1
    23     5     6    1
    24    21    22    1
    25    24    22    1
    26    24    26    1
    27    22    23    1
    28    26    27    1
    29    23    27    1
    30    27    28    1
    31    28    29    1
    32    28    38    1
    33    29    30    1
    34    30    31    2
    35    38    37    2
    36    38    31    1
    37    37    35    2
    38    31    32    1
    39    35    36    1
    40    35    34    2
    41    32    34    2
    42    32    33    2
