@<TRIPOS>MOLECULE
4a8s_ATP_A_1.pdb
 13 12 0 0 0
SMALL
GASTEIGER

@<TRIPOS>ATOM
      1  PG         3.5420   11.1130   26.6580 P.3   1666  ATP1666     0.5373
      2  O1G        5.0250   11.4290   26.6310 O.3   1666  ATP1666    -0.1143
      3  O2G        3.2140   10.2410   25.4620 O.2   1666  ATP1666    -0.2221
      4  O3G        3.1950   10.3530   27.9240 O.3   1666  ATP1666    -0.1143
      5  PB         1.2850   12.7360   25.9780 P.3   1666  ATP1666     0.2317
      6  O1B        1.3200   12.4050   24.4610 O.2   1666  ATP1666    -0.5167
      7  O2B        0.8960   14.2350   26.1340 O.3   1666  ATP1666    -0.4368
      8  O3B        2.7320   12.4630   26.5780 O.3   1666  ATP1666    -0.2257
      9  PA        -1.3570   11.6300   26.5470 P.3   1666  ATP1666     0.5373
     10  O1A       -1.8980   10.4210   27.3510 O.3   1666  ATP1666    -0.1143
     11  O2A       -2.1030   12.8730   27.0690 O.3   1666  ATP1666    -0.1143
     12  O3A        0.2190   11.8100   26.7400 O.3   1666  ATP1666    -0.2257
     13  O5'       -1.6250   11.4020   24.9660 O.2   1666  ATP1666    -0.2221
@<TRIPOS>BOND
     1     6     5    2
     2    13     9    2
     3     3     1    2
     4     5     7    1
     5     5     8    1
     6     5    12    1
     7     9    12    1
     8     9    11    1
     9     9    10    1
    10     8     1    1
    11     2     1    1
    12     1     4    1
