@<TRIPOS>MOLECULE
4a8t_PAO_A_1.pdb
 16 15 0 0 0
SMALL
GASTEIGER

@<TRIPOS>ATOM
      1  N         23.8690  -15.8190   12.4320 N.3   1318  PAO1318    -0.1208
      2  CA        25.2890  -15.8470   12.8290 C.3   1318  PAO1318     0.1944
      3  CB        25.3490  -16.0940   14.3490 C.3   1318  PAO1318     0.0324
      4  CG        26.7090  -15.8150   14.9840 C.3   1318  PAO1318     0.0255
      5  CD        26.6720  -15.9930   16.5050 C.3   1318  PAO1318     0.1152
      6  NE        27.9180  -15.4680   17.0890 N.am  1318  PAO1318    -0.2050
      7  C         26.0170  -16.9620   12.0470 C.2   1318  PAO1318     0.3819
      8  O         25.3320  -17.9230   11.6310 O.co2 1318  PAO1318    -0.2441
      9  OXT       27.2460  -16.8220   11.8670 O.co2 1318  PAO1318    -0.2441
     10  C1        28.6000  -16.0570   18.0750 C.2   1318  PAO1318     0.2488
     11  O1        28.2700  -17.1040   18.6420 O.2   1318  PAO1318    -0.2728
     12  C1P       29.8880  -15.3610   18.4500 C.3   1318  PAO1318     0.1454
     13  P         31.3040  -16.3380   17.9230 P.3   1318  PAO1318     0.1264
     14  O1P       31.4860  -17.5140   18.9670 O.3   1318  PAO1318    -0.3568
     15  O2P       32.5410  -15.4010   18.0660 O.3   1318  PAO1318    -0.3568
     16  O3P       31.1210  -16.8430   16.5200 O.2   1318  PAO1318    -0.4596
@<TRIPOS>BOND
     1     8     7   ar
     2     9     7   ar
     3     7     2    1
     4     1     2    1
     5     2     3    1
     6     3     4    1
     7     4     5    1
     8     5     6    1
     9    16    13    2
    10     6    10   am
    11    13    15    1
    12    13    12    1
    13    13    14    1
    14    10    12    1
    15    10    11    2
