@<TRIPOS>MOLECULE
4a8v_2AN_A_1.pdb
 21 23 0 0 0
SMALL
GASTEIGER

@<TRIPOS>ATOM
      1  C1         4.4070    4.9370    9.8860 C.ar  1160  2AN1160     0.0717
      2  C2         3.5430    6.0340    9.7350 C.ar  1160  2AN1160     0.0165
      3  C3         3.8040    7.0320    8.8160 C.ar  1160  2AN1160     0.0013
      4  C4         4.9370    6.9340    8.0410 C.ar  1160  2AN1160     0.0001
      5  C5         5.8040    5.8570    8.1900 C.ar  1160  2AN1160     0.0025
      6  C6         6.9030    5.8440    7.3560 C.ar  1160  2AN1160     0.0001
      7  C7         7.8190    4.8100    7.4430 C.ar  1160  2AN1160     0.0013
      8  C8         7.6150    3.7820    8.3500 C.ar  1160  2AN1160     0.0189
      9  N          4.1910    3.9510   10.8410 N.pl3 1160  2AN1160    -0.2124
     10  S          6.4470    2.4520   10.2100 S.3   1160  2AN1160     0.0421
     11  C9         6.5060    3.7410    9.2060 C.ar  1160  2AN1160     0.1135
     12  C10        5.5690    4.8160    9.1160 C.ar  1160  2AN1160     0.0329
     13  C11        2.8960    3.6870   11.2760 C.ar  1160  2AN1160     0.0705
     14  C12        2.7600    3.4520   12.6190 C.ar  1160  2AN1160     0.0165
     15  C13        1.5120    3.1240   13.1230 C.ar  1160  2AN1160     0.0013
     16  C14        0.4050    3.0060   12.2840 C.ar  1160  2AN1160     0.0001
     17  C15        0.5520    3.2140   10.9160 C.ar  1160  2AN1160     0.0013
     18  C16        1.8020    3.5550   10.4140 C.ar  1160  2AN1160     0.0165
     19  O1         7.6640    1.6330    9.9780 O.3   1160  2AN1160    -0.0650
     20  O2         5.2600    1.6460   10.0940 O.3   1160  2AN1160    -0.0650
     21  O3         6.5650    2.9800   11.7570 O.3   1160  2AN1160    -0.0650
@<TRIPOS>BOND
     1     6     7   ar
     2     6     5   ar
     3     7     8   ar
     4     4     5   ar
     5     4     3   ar
     6     5    12   ar
     7     8    11   ar
     8     3     2   ar
     9    12    11   ar
    10    12     1   ar
    11    11    10    1
    12     2     1   ar
    13     1     9    1
    14    19    10    1
    15    20    10    1
    16    10    21    1
    17    18    17   ar
    18    18    13   ar
    19     9    13    1
    20    17    16   ar
    21    13    14   ar
    22    16    15   ar
    23    14    15   ar
