@<TRIPOS>MOLECULE
4a8w_ATP_A_1.pdb
 13 12 0 0 0
SMALL
GASTEIGER

@<TRIPOS>ATOM
      1  PG         3.2050   11.8230   26.3080 P.3   1666  ATP1666     0.5373
      2  O1G        4.6150   12.3540   26.1230 O.3   1666  ATP1666    -0.1143
      3  O2G        2.8260   10.9740   25.1050 O.2   1666  ATP1666    -0.2221
      4  O3G        3.1760   10.9430   27.5530 O.3   1666  ATP1666    -0.1143
      5  PB         0.6870   13.1170   26.0330 P.3   1666  ATP1666     0.2317
      6  O1B        0.4960   12.5190   24.6200 O.2   1666  ATP1666    -0.5167
      7  O2B        0.2080   14.5940   26.0220 O.3   1666  ATP1666    -0.4368
      8  O3B        2.2200   13.0510   26.4150 O.3   1666  ATP1666    -0.2257
      9  PA        -1.5830   11.6110   26.9860 P.3   1666  ATP1666     0.5373
     10  O1A       -1.7550   10.4870   28.0380 O.3   1666  ATP1666    -0.1143
     11  O2A       -2.6850   12.6660   27.2340 O.3   1666  ATP1666    -0.1143
     12  O3A       -0.1440   12.2680   27.0900 O.3   1666  ATP1666    -0.2257
     13  O5'       -1.7090   10.9790   25.5060 O.2   1666  ATP1666    -0.2221
@<TRIPOS>BOND
     1     6     5    2
     2     3     1    2
     3    13     9    2
     4     7     5    1
     5     5     8    1
     6     5    12    1
     7     2     1    1
     8     1     8    1
     9     1     4    1
    10     9    12    1
    11     9    11    1
    12     9    10    1
