@<TRIPOS>MOLECULE
4a8w_NUC_F_1.pdb
 38 42 0 0 0
SMALL
GASTEIGER

@<TRIPOS>ATOM
      1  O5'        9.4850   -2.5910   42.2380 O.3     3  DC3        -0.2176
      2  C5'        9.5290   -3.0120   43.6040 C.3     3  DC3         0.2140
      3  C4'       10.3980   -2.0890   44.4390 C.3     3  DC3         0.1774
      4  O4'       10.1320   -2.2560   45.8480 O.3     3  DC3        -0.3339
      5  C3'       11.8960   -2.3270   44.3850 C.3     3  DC3         0.1557
      6  O3'       12.4100   -1.8320   43.1640 O.3     3  DC3        -0.3139
      7  C2'       12.3550   -1.4730   45.5660 C.3     3  DC3         0.0845
      8  C1'       11.1540   -1.5510   46.5170 C.3     3  DC3         0.2089
      9  N1        11.4070   -2.1420   47.8850 N.am    3  DC3        -0.1802
     10  C2        10.9930   -1.4460   49.0530 C.1     3  DC3         0.2756
     11  O2        10.4060   -0.3540   48.9840 O.2     3  DC3        -0.1925
     12  N3        11.2510   -2.0010   50.2710 N.2     3  DC3        -0.3024
     13  C4        11.8840   -3.1810   50.3550 C.2     3  DC3         0.2346
     14  N4        12.1160   -3.6610   51.5780 N.pl3   3  DC3        -0.0921
     15  C5        12.3160   -3.9070   49.1940 C.2     3  DC3         0.0687
     16  C6        12.0500   -3.3590   47.9960 C.2     3  DC3         0.0835
     17  P         13.1730   -2.7300   42.0790 P.3     4  DG4         0.2141
     18  OP1       14.3540   -3.3490   42.7270 O.3     4  DG4        -0.4373
     19  OP2       13.3450   -1.8320   40.9180 O.2     4  DG4        -0.5172
     20  O5'       12.1420   -3.8820   41.6380 O.3     4  DG4        -0.3114
     21  C5'       12.4800   -4.7410   40.5390 C.3     4  DG4         0.1812
     22  C4'       11.2860   -5.4270   39.8840 C.3     4  DG4         0.1772
     23  O4'       10.1710   -4.5020   39.7410 O.3     4  DG4        -0.3347
     24  C3'       11.5550   -5.9290   38.4660 C.3     4  DG4         0.1857
     25  O3'       12.1520   -7.2290   38.4510 O.3     4  DG4        -0.2203
     26  C2'       10.1590   -5.9310   37.8500 C.3     4  DG4         0.0865
     27  C1'        9.5100   -4.7050   38.4980 C.3     4  DG4         0.1981
     28  N9         9.4230   -3.4370   37.7400 N.pl3   4  DG4        -0.2374
     29  C8         9.2640   -2.1930   38.3140 C.3     4  DG4         0.2245
     30  N7         9.1870   -1.2060   37.4660 N.2     4  DG4        -0.2322
     31  C5         9.2660   -1.8210   36.2250 C.2     4  DG4         0.2182
     32  C6         9.2360   -1.2500   34.9170 C.1     4  DG4         0.2372
     33  O6         9.1220   -0.0540   34.6090 O.2     4  DG4        -0.2069
     34  N1         9.3610   -2.2090   33.9010 N.2     4  DG4        -0.2485
     35  C2         9.4930   -3.5660   34.1280 C.1     4  DG4         0.2531
     36  N2         9.5940   -4.3560   33.0470 N.pl3   4  DG4        -0.0226
     37  N3         9.5100   -4.1080   35.3490 N.2     4  DG4        -0.3074
     38  C4         9.3960   -3.1960   36.3650 C.2     4  DG4         0.2299
@<TRIPOS>BOND
     1    36    35    1
     2    34    35    2
     3    34    32    2
     4    35    37    2
     5    33    32    2
     6    32    31    1
     7    37    38    2
     8    31    38    1
     9    31    30    2
    10    38    28    1
    11    30    29    1
    12    28    29    1
    13    28    27    1
    14    26    24    1
    15    26    27    1
    16    25    24    1
    17    24    22    1
    18    27    23    1
    19    23    22    1
    20    22    21    1
    21    21    20    1
    22    19    17    2
    23    20    17    1
    24    17    18    1
    25    17     6    1
    26     1     2    1
    27     6     5    1
    28     2     3    1
    29     5     3    1
    30     5     7    1
    31     3     4    1
    32     7     8    1
    33     4     8    1
    34     8     9    1
    35     9    16    1
    36     9    10   am
    37    16    15    2
    38    11    10    2
    39    10    12    2
    40    15    13    1
    41    12    13    2
    42    13    14    1
