@<TRIPOS>MOLECULE
4a8y_NUC_F_1.pdb
 38 42 0 0 0
SMALL
GASTEIGER

@<TRIPOS>ATOM
      1  O5'       12.2220    1.9150   44.8810 O.3     8  DC8        -0.2176
      2  C5'       11.1310    1.1370   44.3980 C.3     8  DC8         0.2140
      3  C4'       11.4490   -0.3500   44.4560 C.3     8  DC8         0.1774
      4  O4'       11.7690   -0.7480   45.8080 O.3     8  DC8        -0.3339
      5  C3'       10.3880   -1.3370   43.9560 C.3     8  DC8         0.1557
      6  O3'       10.9370   -2.3960   43.1170 O.3     8  DC8        -0.3139
      7  C2'        9.7950   -1.9020   45.2530 C.3     8  DC8         0.0845
      8  C1'       11.0250   -1.9000   46.1560 C.3     8  DC8         0.2089
      9  N1        10.8540   -1.9350   47.6590 N.am    8  DC8        -0.1802
     10  C2        11.1380   -3.1190   48.3910 C.1     8  DC8         0.2756
     11  O2        11.4440   -4.1780   47.8120 O.2     8  DC8        -0.1925
     12  N3        11.0420   -3.0770   49.7540 N.2     8  DC8        -0.3024
     13  C4        10.7240   -1.9320   50.3850 C.2     8  DC8         0.2346
     14  N4        10.6480   -1.9530   51.7180 N.pl3   8  DC8        -0.0921
     15  C5        10.4590   -0.7180   49.6710 C.2     8  DC8         0.0687
     16  C6        10.5480   -0.7680   48.3310 C.2     8  DC8         0.0835
     17  P         12.2410   -2.3860   42.1680 P.3     9  DG9         0.2141
     18  OP1       13.4200   -2.6900   43.0150 O.3     9  DG9        -0.4373
     19  OP2       12.2210   -1.1420   41.3590 O.2     9  DG9        -0.5172
     20  O5'       12.0050   -3.6520   41.2070 O.3     9  DG9        -0.3114
     21  C5'       12.1550   -3.6540   39.7710 C.3     9  DG9         0.1812
     22  C4'       10.8610   -3.2690   39.0620 C.3     9  DG9         0.1772
     23  O4'       11.0020   -3.3190   37.6210 O.3     9  DG9        -0.3347
     24  C3'        9.6830   -4.1740   39.3600 C.3     9  DG9         0.1857
     25  O3'        9.0690   -3.6790   40.5370 O.3     9  DG9        -0.2203
     26  C2'        8.7970   -4.0140   38.1260 C.3     9  DG9         0.0865
     27  C1'        9.7750   -3.6760   37.0100 C.3     9  DG9         0.1981
     28  N9        10.0320   -4.7580   36.0520 N.pl3   9  DG9        -0.2374
     29  C8        10.5180   -6.0190   36.3310 C.3     9  DG9         0.2245
     30  N7        10.6990   -6.7670   35.2760 N.2     9  DG9        -0.2322
     31  C5        10.3340   -5.9480   34.2160 C.2     9  DG9         0.2182
     32  C6        10.3330   -6.2110   32.8160 C.1     9  DG9         0.2372
     33  O6        10.6670   -7.2580   32.2390 O.2     9  DG9        -0.2069
     34  N1         9.9000   -5.1070   32.0670 N.2     9  DG9        -0.2485
     35  C2         9.5190   -3.8930   32.6130 C.1     9  DG9         0.2531
     36  N2         9.1360   -2.9400   31.7510 N.pl3   9  DG9        -0.0226
     37  N3         9.5140   -3.6370   33.9230 N.2     9  DG9        -0.3074
     38  C4         9.9280   -4.7020   34.6730 C.2     9  DG9         0.2299
@<TRIPOS>BOND
     1    36    35    1
     2    34    35    2
     3    34    32    2
     4    33    32    2
     5    35    37    2
     6    32    31    1
     7    37    38    2
     8    31    38    1
     9    31    30    2
    10    38    28    1
    11    30    29    1
    12    28    29    1
    13    28    27    1
    14    27    23    1
    15    27    26    1
    16    23    22    1
    17    26    24    1
    18    22    24    1
    19    22    21    1
    20    24    25    1
    21    21    20    1
    22    20    17    1
    23    19    17    2
    24    17    18    1
    25    17     6    1
    26     6     5    1
    27     5     3    1
    28     5     7    1
    29     2     3    1
    30     2     1    1
    31     3     4    1
    32     7     8    1
    33     4     8    1
    34     8     9    1
    35     9    16    1
    36     9    10   am
    37    11    10    2
    38    16    15    2
    39    10    12    2
    40    15    13    1
    41    12    13    2
    42    13    14    1
