@<TRIPOS>MOLECULE
4a8y_ATP_A_1.pdb
 13 12 0 0 0
SMALL
GASTEIGER

@<TRIPOS>ATOM
      1  PG         3.6760   11.5930   26.0490 P.3   666  ATP666      0.5373
      2  O1G        5.1580   11.9330   25.9000 O.3   666  ATP666     -0.1143
      3  O2G        3.2170   10.6940   24.8960 O.2   666  ATP666     -0.2221
      4  O3G        3.4930   10.8440   27.3580 O.3   666  ATP666     -0.1143
      5  PB         1.5010   13.3470   25.2640 P.3   666  ATP666      0.2317
      6  O1B        1.5400   12.6770   23.8550 O.2   666  ATP666     -0.5167
      7  O2B        1.5150   14.8980   25.1620 O.3   666  ATP666     -0.4368
      8  O3B        2.8110   12.9260   26.0770 O.3   666  ATP666     -0.2257
      9  PA        -1.3170   13.5040   25.8640 P.3   666  ATP666      0.5373
     10  O1A       -2.3080   12.5440   26.5440 O.3   666  ATP666     -0.1143
     11  O2A       -1.4200   14.8660   26.5670 O.3   666  ATP666     -0.1143
     12  O3A        0.1560   12.9280   26.0110 O.3   666  ATP666     -0.2257
     13  O5'       -1.7300   13.6680   24.3090 O.2   666  ATP666     -0.2221
@<TRIPOS>BOND
     1     6     5    2
     2    13     9    2
     3     3     1    2
     4     7     5    1
     5     5    12    1
     6     5     8    1
     7     9    12    1
     8     9    10    1
     9     9    11    1
    10     2     1    1
    11     1     8    1
    12     1     4    1
