@<TRIPOS>MOLECULE
4a91_GLU_A_1.pdb
 10 9 0 0 0
SMALL
GASTEIGER

@<TRIPOS>ATOM
      1  N         11.7830   42.6220   16.1460 N.3   301  GLU301     -0.1208
      2  CA        12.9320   42.2350   16.9550 C.3   301  GLU301      0.1949
      3  C         12.7480   42.7400   18.3820 C.2   301  GLU301      0.3819
      4  O         12.1560   43.7960   18.6110 O.co2 301  GLU301     -0.2441
      5  CB        14.2400   42.7480   16.3110 C.3   301  GLU301      0.0424
      6  CG        15.0130   43.7590   17.1260 C.3   301  GLU301      0.1161
      7  CD        16.2790   44.2820   16.4310 C.2   301  GLU301      0.3649
      8  OE1       17.1060   43.4810   15.9340 O.co2 301  GLU301     -0.2457
      9  OE2       16.4540   45.5170   16.4020 O.co2 301  GLU301     -0.2457
     10  OXT       13.1500   42.0970   19.3520 O.co2 301  GLU301     -0.2441
@<TRIPOS>BOND
     1     8     7   ar
     2     1     2    1
     3     5     2    1
     4     5     6    1
     5     9     7   ar
     6     7     6    1
     7     2     3    1
     8     3     4   ar
     9     3    10   ar
