@<TRIPOS>MOLECULE
4a95_9MT_A_1.pdb
 22 23 0 0 0
SMALL
GASTEIGER

@<TRIPOS>ATOM
      1  N1        20.2020   43.9940   62.3900 N.1   1000  9MT1000    -0.1958
      2  C17       21.2520   44.4240   62.7060 C.1   1000  9MT1000     0.0741
      3  C16       22.5770   44.8910   63.1320 C.3   1000  9MT1000     0.1174
      4  C15       23.3900   45.2490   61.8820 C.3   1000  9MT1000     0.0780
      5  S         22.7660   46.6960   61.0630 S.3   1000  9MT1000    -0.1164
      6  C14       22.6820   47.9280   62.2940 C.2   1000  9MT1000     0.0116
      7  C13       23.8070   48.3070   63.0210 C.ar  1000  9MT1000     0.0346
      8  C12       25.0760   47.7990   62.6560 C.ar  1000  9MT1000     0.0396
      9  C10       26.1620   48.2420   63.3960 C.ar  1000  9MT1000     0.1389
     10  O         27.4280   47.7520   63.0860 O.3   1000  9MT1000    -0.4714
     11  C11       27.6070   47.0610   61.8120 C.3   1000  9MT1000     0.2525
     12  C9        25.9690   49.0960   64.4850 C.ar  1000  9MT1000     0.0395
     13  C8        24.7430   49.6430   64.8330 C.ar  1000  9MT1000     0.0351
     14  C7        23.6490   49.1810   64.0880 C.ar  1000  9MT1000     0.1309
     15  N         22.4390   49.6670   64.4570 N.2   1000  9MT1000    -0.4102
     16  C5        21.3210   49.3590   63.7740 C.2   1000  9MT1000     0.0912
     17  C6        20.0350   50.0070   64.2950 C.3   1000  9MT1000     0.0618
     18  C4        21.4430   48.4510   62.6850 C.3   1000  9MT1000     0.0762
     19  C3        20.2980   47.9820   61.7960 C.3   1000  9MT1000     0.0116
     20  C2        18.9150   47.8120   62.3180 C.3   1000  9MT1000     0.0008
     21  C1        17.8540   48.0460   61.2530 C.3   1000  9MT1000     0.0000
     22  C         17.1470   49.3710   61.4630 C.3   1000  9MT1000     0.0000
@<TRIPOS>BOND
     1     5     4    1
     2     5     6    1
     3    21    22    1
     4    21    20    1
     5    19    20    1
     6    19    18    1
     7    11    10    1
     8     4     3    1
     9     6    18    1
    10     6     7    2
    11     1     2    3
    12     8     7   ar
    13     8     9   ar
    14    18    16    1
    15     2     3    1
    16     7    14   ar
    17    10     9    1
    18     9    12   ar
    19    16    17    1
    20    16    15    2
    21    14    15    2
    22    14    13   ar
    23    12    13   ar
