@<TRIPOS>MOLECULE
4a97_ZPC_A_1.pdb
 27 30 0 0 0
SMALL
GASTEIGER

@<TRIPOS>ATOM
      1  C01     -125.9910  -46.7830  -67.2540 C.3   1318  ZPC1318     0.0897
      2  N02     -126.4290  -45.5530  -67.8800 N.3   1318  ZPC1318    -0.2686
      3  C03     -127.8070  -45.3980  -68.3020 C.3   1318  ZPC1318     0.0941
      4  C04     -128.0660  -43.9960  -68.6860 C.3   1318  ZPC1318     0.1141
      5  N05     -127.0470  -43.0860  -69.2060 N.am  1318  ZPC1318    -0.2431
      6  C06     -125.7340  -43.2760  -68.7670 C.3   1318  ZPC1318     0.1141
      7  C07     -125.5010  -44.7570  -68.6670 C.3   1318  ZPC1318     0.0941
      8  C08     -127.8130  -41.8490  -69.2620 C.2   1318  ZPC1318     0.4065
      9  O09     -128.9560  -42.0130  -69.6020 O.2   1318  ZPC1318    -0.2261
     10  O10     -127.4710  -40.6460  -68.5810 O.3   1318  ZPC1318    -0.4125
     11  C11     -128.3540  -39.4960  -68.3570 C.3   1318  ZPC1318     0.2992
     12  N12     -129.4740  -39.1150  -69.2160 N.am  1318  ZPC1318    -0.1998
     13  C13     -130.7240  -38.9170  -68.4220 C.2   1318  ZPC1318     0.2757
     14  O14     -131.9330  -38.6270  -68.5010 O.2   1318  ZPC1318    -0.2677
     15  C15     -130.3140  -39.1840  -67.0470 C.ar  1318  ZPC1318     0.1538
     16  N16     -131.1520  -39.1070  -65.9970 N.ar  1318  ZPC1318    -0.2362
     17  C17     -130.5500  -39.3710  -64.8270 C.ar  1318  ZPC1318     0.1196
     18  C18     -129.1650  -39.7060  -64.6840 C.ar  1318  ZPC1318     0.1193
     19  N19     -128.3710  -39.7830  -65.7370 N.ar  1318  ZPC1318    -0.2395
     20  C20     -128.9510  -39.5060  -66.9600 C.ar  1318  ZPC1318     0.1413
     21  C21     -129.2840  -38.9600  -70.6940 C.ar  1318  ZPC1318     0.1405
     22  N22     -129.2930  -40.0550  -71.4920 N.ar  1318  ZPC1318    -0.2278
     23  C23     -129.1200  -40.0670  -72.8370 C.ar  1318  ZPC1318     0.1116
     24  C24     -128.9020  -38.8650  -73.4800 C.ar  1318  ZPC1318     0.0769
     25 CL       -128.7190  -38.9820  -75.2020 Cl    1318  ZPC1318    -0.0806
     26  C26     -128.8680  -37.6540  -72.7340 C.ar  1318  ZPC1318     0.0158
     27  C27     -129.0660  -37.7130  -71.3110 C.ar  1318  ZPC1318     0.0357
@<TRIPOS>BOND
     1    25    24    1
     2    24    23   ar
     3    24    26   ar
     4    23    22   ar
     5    26    27   ar
     6    22    21   ar
     7    27    21   ar
     8    21    12    1
     9     9     8    2
    10     8     5   am
    11     8    10    1
    12    12    13   am
    13    12    11    1
    14     5     6    1
    15     5     4    1
    16     6     7    1
    17     4     3    1
    18     7     2    1
    19    10    11    1
    20    14    13    2
    21    13    15    1
    22    11    20    1
    23     3     2    1
    24     2     1    1
    25    15    20   ar
    26    15    16   ar
    27    20    19   ar
    28    16    17   ar
    29    19    18   ar
    30    17    18   ar
