@<TRIPOS>MOLECULE
4a98_BFZ_A_1.pdb
 27 29 0 0 0
SMALL
GASTEIGER

@<TRIPOS>ATOM
      1  CAT     -132.0340  -37.5360  -75.0900 C.3   1318  BFZ1318     0.0188
      2  CAS     -133.2320  -38.4160  -75.4540 C.3   1318  BFZ1318     0.0722
      3  NAR     -132.9860  -39.8160  -75.0610 N.3   1318  BFZ1318    -0.2712
      4  CAW     -133.5820  -40.6850  -76.0880 C.3   1318  BFZ1318     0.0722
      5  CAX     -132.6670  -40.7160  -77.3150 C.3   1318  BFZ1318     0.0188
      6  CAQ     -133.6000  -40.0880  -73.7440 C.3   1318  BFZ1318     0.0942
      7  CAP     -133.1520  -41.4470  -73.1520 C.3   1318  BFZ1318     0.1155
      8  NAO     -132.0840  -41.2620  -72.1330 N.am  1318  BFZ1318    -0.2555
      9  C       -130.7960  -41.1360  -72.4990 C.2   1318  BFZ1318     0.2542
     10  O       -130.5440  -41.2070  -73.7060 O.2   1318  BFZ1318    -0.2724
     11  CA      -129.6410  -40.9530  -71.4920 C.3   1318  BFZ1318     0.2104
     12  N       -129.5750  -42.1600  -70.6570 N.2   1318  BFZ1318    -0.2604
     13  CAN     -132.4290  -41.2020  -70.8330 C.ar  1318  BFZ1318     0.0553
     14  CAV     -133.5340  -40.3750  -70.5920 C.ar  1318  BFZ1318     0.0155
     15  CAZ     -133.9720  -40.1570  -69.2810 C.ar  1318  BFZ1318     0.0080
     16  CAY     -133.2790  -40.7220  -68.2090 C.ar  1318  BFZ1318     0.0347
     17 BR       -133.8270  -40.4340  -66.4150 Br    1318  BFZ1318    -0.0490
     18  CAU     -132.1490  -41.4950  -68.4580 C.ar  1318  BFZ1318     0.0094
     19  CAM     -131.7350  -41.7850  -69.7580 C.ar  1318  BFZ1318     0.0315
     20  CAF     -130.5480  -42.5420  -69.8460 C.2   1318  BFZ1318     0.0799
     21  CAE     -130.3620  -43.7830  -69.2240 C.ar  1318  BFZ1318     0.0447
     22  CAL     -130.2480  -44.9240  -70.0450 C.ar  1318  BFZ1318     0.0037
     23  CAK     -130.0800  -46.1980  -69.4920 C.ar  1318  BFZ1318     0.0002
     24  CAJ     -129.9710  -46.3280  -68.1060 C.ar  1318  BFZ1318     0.0023
     25  CAC     -130.0680  -45.1940  -67.2850 C.ar  1318  BFZ1318     0.0297
     26  CAD     -130.2270  -43.9160  -67.8400 C.ar  1318  BFZ1318     0.1415
     27  FAA     -130.2910  -42.8210  -67.0480 F     1318  BFZ1318    -0.2041
@<TRIPOS>BOND
     1     5     4    1
     2     4     3    1
     3     2     1    1
     4     2     3    1
     5     3     6    1
     6     6     7    1
     7    10     9    2
     8     7     8    1
     9     9     8   am
    10     9    11    1
    11     8    13    1
    12    11    12    1
    13    13    14   ar
    14    13    19   ar
    15    12    20    2
    16    14    15   ar
    17    22    23   ar
    18    22    21   ar
    19    20    19    1
    20    20    21    1
    21    19    18   ar
    22    23    24   ar
    23    15    16   ar
    24    21    26   ar
    25    18    16   ar
    26    16    17    1
    27    24    25   ar
    28    26    25   ar
    29    26    27    1
