@<TRIPOS>MOLECULE
4a99_MIY_A_1.pdb
 33 36 0 0 0
SMALL
GASTEIGER

@<TRIPOS>ATOM
      1  O8         4.0440    4.2940   18.7430 O.2   391  MIY391     -0.2711
      2  C21        3.2550    4.7950   19.5780 C.2   391  MIY391      0.2700
      3  N2         3.0160    4.0240   20.6330 N.am  391  MIY391     -0.0874
      4  C2         2.6590    6.1660   19.4160 C.3   391  MIY391      0.1715
      5  C1         1.6020    6.5490   20.3010 C.2   391  MIY391      0.1960
      6  O1         1.5680    6.0950   21.4400 O.2   391  MIY391     -0.2924
      7  C3         2.9660    7.0810   18.4470 C.3   391  MIY391      0.1823
      8  O2         3.7730    6.7530   17.4510 O.3   391  MIY391     -0.2207
      9  C4         2.6070    8.5550   18.5040 C.3   391  MIY391      0.0922
     10  N1         2.5330    9.0090   17.0690 N.3   391  MIY391     -0.2692
     11  C20        2.4460   10.5040   17.1460 C.3   391  MIY391      0.0897
     12  C19        1.3770    8.4200   16.3350 C.3   391  MIY391      0.0897
     13  C5         1.4300    8.8970   19.4000 C.3   391  MIY391      0.0596
     14  C18        0.6430    7.6130   19.8200 C.3   391  MIY391      0.2327
     15  O7        -0.1370    7.0860   18.7800 O.3   391  MIY391     -0.2101
     16  C17       -0.3240    7.9160   20.9320 C.2   391  MIY391      0.2063
     17  O6        -1.2180    6.9700   21.2210 O.2   391  MIY391     -0.2885
     18  C16       -0.2840    9.0690   21.6220 C.2   391  MIY391      0.0543
     19  C7         0.7220   10.1450   21.2910 C.3   391  MIY391      0.0330
     20  C6         1.9170    9.4050   20.7000 C.3   391  MIY391      0.0096
     21  C15       -1.2360    9.2550   22.6950 C.2   391  MIY391      0.1973
     22  O5        -2.0810    8.3520   22.9200 O.2   391  MIY391     -0.2867
     23  C14       -1.1150   10.4760   23.5950 C.ar  391  MIY391      0.0748
     24  C9         0.0480   11.2650   23.5200 C.ar  391  MIY391     -0.0024
     25  C8         1.1770   10.8970   22.5580 C.3   391  MIY391      0.0324
     26  C13       -2.1740   10.8460   24.4610 C.ar  391  MIY391      0.1985
     27  O4        -3.2560   10.0790   24.5220 O.3   391  MIY391     -0.2865
     28  C12       -2.0750   11.9960   25.2700 C.ar  391  MIY391      0.0434
     29  C11       -0.9120   12.7950   25.1840 C.ar  391  MIY391      0.0175
     30  C10        0.1570   12.4260   24.3170 C.ar  391  MIY391      0.0442
     31  N7         1.3470   13.2090   24.1860 N.pl3 391  MIY391     -0.3043
     32  CN7        2.3860   12.7810   25.1030 C.3   391  MIY391      0.1122
     33  C71        1.1020   14.6350   24.4010 C.3   391  MIY391      0.1122
@<TRIPOS>BOND
     1    12    10    1
     2    10    11    1
     3    10     9    1
     4     8     7    1
     5     7     9    1
     6     7     4    1
     7     9    13    1
     8     1     2    2
     9    15    14    1
    10    13    14    1
    11    13    20    1
    12     4     2    1
    13     4     5    1
    14     2     3   am
    15    14     5    1
    16    14    16    1
    17     5     6    2
    18    20    19    1
    19    16    17    1
    20    16    18    2
    21    19    18    1
    22    19    25    1
    23    18    21    1
    24    25    24    1
    25    21    22    2
    26    21    23    1
    27    24    23   ar
    28    24    30   ar
    29    23    26   ar
    30    31    30    1
    31    31    33    1
    32    31    32    1
    33    30    29   ar
    34    26    27    1
    35    26    28   ar
    36    29    28   ar
