@<TRIPOS>MOLECULE
4a9c_B5F_B_1.pdb
 37 38 0 0 0
SMALL
GASTEIGER

@<TRIPOS>ATOM
      1  C1         1.2290   52.3450  -49.0570 C.ar  1732  B5F1732     0.0693
      2  C2         1.4830   53.7400  -49.0450 C.ar  1732  B5F1732     0.1549
      3  O2         1.1610   54.4960  -50.1550 O.3   1732  B5F1732    -0.3996
      4  P2         1.7250   56.0300  -50.3160 P.3   1732  B5F1732     0.5887
      5  C3         1.9670   54.3370  -47.8690 C.ar  1732  B5F1732     0.0750
      6  C4         2.2400   53.5790  -46.7310 C.ar  1732  B5F1732     0.1551
      7  O4         2.7930   54.1880  -45.6370 O.3   1732  B5F1732    -0.3996
      8  P4         1.8070   54.2900  -44.3580 P.3   1732  B5F1732     0.5887
      9  C5         2.0390   52.1970  -46.7680 C.ar  1732  B5F1732     0.0750
     10  C6         1.5680   51.5690  -47.9280 C.ar  1732  B5F1732     0.1549
     11  O6         1.2680   50.2320  -47.9090 O.3   1732  B5F1732    -0.3996
     12  P6         2.4300   49.1700  -47.5090 P.3   1732  B5F1732     0.5887
     13  C1'        0.7690   51.7110  -50.2290 C.ar  1732  B5F1732     0.0119
     14  C2'        1.5900   50.7770  -50.8890 C.ar  1732  B5F1732     0.0378
     15  O21        1.3560   56.4070  -51.8250 O.2   1732  B5F1732    -0.2114
     16  O22        0.8040   56.9880  -49.4010 O.3   1732  B5F1732    -0.1039
     17  O23        3.1790   56.1990  -50.0740 O.3   1732  B5F1732    -0.1039
     18  C3'        1.1560   50.1250  -52.0490 C.ar  1732  B5F1732     0.1521
     19  O3'        1.9760   49.2400  -52.6990 O.3   1732  B5F1732    -0.3997
     20  P3'        1.9310   47.7090  -52.1400 P.3   1732  B5F1732     0.5887
     21  O31        2.6800   46.8140  -53.2460 O.2   1732  B5F1732    -0.2114
     22  O32        2.9050   47.6700  -50.8610 O.3   1732  B5F1732    -0.1039
     23  O33        0.5710   47.2000  -51.8640 O.3   1732  B5F1732    -0.1039
     24  C4'       -0.0730   50.4890  -52.6140 C.ar  1732  B5F1732     0.0748
     25  O41        1.7930   52.8220  -43.6870 O.3   1732  B5F1732    -0.1039
     26  O42        2.5660   55.2380  -43.3050 O.3   1732  B5F1732    -0.1039
     27  O43        0.4560   54.7870  -44.6940 O.2   1732  B5F1732    -0.2114
     28  C5'       -0.9190   51.4100  -51.9690 C.ar  1732  B5F1732     0.1521
     29  O5'       -2.1280   51.8360  -52.4690 O.3   1732  B5F1732    -0.3997
     30  P5'       -3.0380   50.8340  -53.3770 P.3   1732  B5F1732     0.5887
     31  O51       -2.2550   50.5950  -54.7650 O.2   1732  B5F1732    -0.2114
     32  O52       -3.1020   49.4110  -52.6170 O.3   1732  B5F1732    -0.1039
     33  O53       -4.3770   51.4090  -53.6400 O.3   1732  B5F1732    -0.1039
     34  C6'       -0.4770   52.0260  -50.7910 C.ar  1732  B5F1732     0.0378
     35  O61        3.8610   49.7890  -47.9180 O.3   1732  B5F1732    -0.1039
     36  O62        2.3680   49.0650  -45.9080 O.3   1732  B5F1732    -0.1039
     37  O63        2.2040   47.8460  -48.1220 O.2   1732  B5F1732    -0.2114
@<TRIPOS>BOND
     1    31    30    2
     2    33    30    1
     3    30    32    1
     4    30    29    1
     5    21    20    2
     6    19    20    1
     7    19    18    1
     8    24    18   ar
     9    24    28   ar
    10    29    28    1
    11    20    23    1
    12    20    22    1
    13    18    14   ar
    14    28    34   ar
    15    15     4    2
    16    14    13   ar
    17    34    13   ar
    18     4     3    1
    19     4    17    1
    20     4    16    1
    21    13     1    1
    22     3     2    1
    23     1     2   ar
    24     1    10   ar
    25     2     5   ar
    26    37    12    2
    27    10    11    1
    28    10     9   ar
    29    35    12    1
    30    11    12    1
    31     5     6   ar
    32    12    36    1
    33     9     6   ar
    34     6     7    1
    35     7     8    1
    36    27     8    2
    37     8    25    1
    38     8    26    1
