@<TRIPOS>MOLECULE
4a9e_3PF_A_1.pdb
 12 13 0 0 0
SMALL
GASTEIGER

@<TRIPOS>ATOM
      1  CAA       19.0170    8.4040   -6.9490 C.3   1000  3PF1000     0.1259
      2  OAB       21.5460    8.1840   -7.8720 O.2   1000  3PF1000    -0.1930
      3  CAC       18.6850   11.9170  -11.9130 C.2   1000  3PF1000    -0.0040
      4  CAD       20.0130   11.7790  -12.2470 C.2   1000  3PF1000     0.0020
      5  CAE       18.1450   11.1720  -10.8890 C.2   1000  3PF1000    -0.0177
      6  CAF       20.8040   10.8900  -11.5500 C.2   1000  3PF1000     0.0289
      7  CAG       18.3880    9.4490   -9.0750 C.3   1000  3PF1000     0.1151
      8  NAH       21.0570    9.2400   -9.8120 N.2   1000  3PF1000    -0.3253
      9  CAI       20.7250    8.7450   -8.5870 C.1   1000  3PF1000     0.2682
     10  CAJ       18.9230   10.2780  -10.1830 C.3   1000  3PF1000     0.0958
     11  CAK       20.2690   10.1400  -10.5260 C.2   1000  3PF1000     0.1285
     12  NAL       19.4440    8.9310   -8.2190 N.am  1000  3PF1000    -0.2246
@<TRIPOS>BOND
     1     4     3    1
     2     4     6    2
     3     3     5    2
     4     6    11    1
     5     5    10    1
     6    11    10    1
     7    11     8    2
     8    10     7    1
     9     8     9    2
    10     7    12    1
    11     9    12   am
    12     9     2    2
    13    12     1    1
