@<TRIPOS>MOLECULE
4a9h_TVP_A_1.pdb
 14 15 0 0 0
SMALL
GASTEIGER

@<TRIPOS>ATOM
      1  O         20.9300    8.5430   -7.9070 O.2   1189  TVP1189    -0.2745
      2  C11       19.8760    9.0220   -8.2650 C.2   1189  TVP1189     0.2298
      3  C12       18.7610    9.2250   -7.2620 C.3   1189  TVP1189     0.0952
      4  N         19.6840    9.3850   -9.5810 N.am  1189  TVP1189    -0.2606
      5  C2        20.8600    9.2320  -10.4690 C.3   1189  TVP1189     0.0801
      6  C1        20.9590    7.8150  -11.0200 C.3   1189  TVP1189     0.0219
      7  C10       18.4750    9.9440  -10.1210 C.ar  1189  TVP1189     0.0497
      8  C5        18.6020   11.0870  -10.9080 C.ar  1189  TVP1189    -0.0084
      9  C4        19.9960   11.5350  -11.2440 C.3   1189  TVP1189     0.0293
     10  C3        20.8050   10.2950  -11.5620 C.3   1189  TVP1189     0.0249
     11  C9        17.2120    9.4430   -9.8140 C.ar  1189  TVP1189     0.0146
     12  C8        16.0730   10.0540  -10.3520 C.ar  1189  TVP1189     0.0013
     13  C7        16.1940   11.1550  -11.1630 C.ar  1189  TVP1189    -0.0002
     14  C6        17.4620   11.6620  -11.4570 C.ar  1189  TVP1189    -0.0030
@<TRIPOS>BOND
     1    10     9    1
     2    10     5    1
     3    14    13   ar
     4    14     8   ar
     5     9     8    1
     6    13    12   ar
     7     6     5    1
     8     8     7   ar
     9     5     4    1
    10    12    11   ar
    11     7    11   ar
    12     7     4    1
    13     4     2   am
    14     2     1    2
    15     2     3    1
