@<TRIPOS>MOLECULE
4a9i_P9I_A_1.pdb
 18 20 0 0 0
SMALL
GASTEIGER

@<TRIPOS>ATOM
      1  O         21.1960    8.2980   -8.4330 O.2   1185  P9I1185    -0.2898
      2  C2        20.0390    8.6830   -8.3300 C.2   1185  P9I1185     0.1894
      3  C1        19.2650    8.4230   -7.0690 C.3   1185  P9I1185     0.0789
      4  C3        19.3460    9.4180   -9.3820 C.ar  1185  P9I1185     0.0990
      5  N2        20.0200    9.8410  -10.5540 N.ar  1185  P9I1185    -0.3024
      6  C15       21.3380    9.6790  -10.9620 C.ar  1185  P9I1185     0.0801
      7  C14       21.7320   10.2070  -12.1810 C.ar  1185  P9I1185     0.0190
      8  C13       20.8060   10.8790  -12.9710 C.ar  1185  P9I1185     0.0030
      9  C12       19.5050   11.0430  -12.5840 C.ar  1185  P9I1185     0.0176
     10  C11       19.0860   10.5220  -11.3440 C.ar  1185  P9I1185     0.0656
     11  C5        17.8610   10.5490  -10.6860 C.ar  1185  P9I1185     0.0353
     12  C4        18.0310    9.8490   -9.4880 C.ar  1185  P9I1185     0.0234
     13  C6        16.5690   11.1380  -11.1800 C.ar  1185  P9I1185     0.0828
     14  N1        15.4400   10.6000  -10.6820 N.ar  1185  P9I1185    -0.2438
     15  C10       14.2650   11.0920  -11.1220 C.ar  1185  P9I1185     0.0988
     16  C9        14.1660   12.0990  -12.0650 C.ar  1185  P9I1185     0.0207
     17  C8        15.3290   12.6350  -12.5780 C.ar  1185  P9I1185     0.0031
     18  C7        16.5530   12.1480  -12.1330 C.ar  1185  P9I1185     0.0192
@<TRIPOS>BOND
     1     8     9   ar
     2     8     7   ar
     3     9    10   ar
     4    17    18   ar
     5    17    16   ar
     6     7     6   ar
     7    18    13   ar
     8    16    15   ar
     9    10    11   ar
    10    10     5   ar
    11    13    11    1
    12    13    14   ar
    13    15    14   ar
    14     6     5   ar
    15    11    12   ar
    16     5     4   ar
    17    12     4   ar
    18     4     2    1
    19     1     2    2
    20     2     3    1
