@<TRIPOS>MOLECULE
4a9j_TYL_A_1.pdb
 11 11 0 0 0
SMALL
GASTEIGER

@<TRIPOS>ATOM
      1  C1        20.2940    9.5030  -10.4510 C.ar  1188  TYL1188     0.0736
      2  C2        19.5690   10.3650  -11.2780 C.ar  1188  TYL1188     0.0199
      3  C3        20.1180   10.8570  -12.4600 C.ar  1188  TYL1188     0.0434
      4  C4        21.4050   10.4860  -12.8220 C.ar  1188  TYL1188     0.1958
      5  C5        22.1360    9.6340  -11.9970 C.ar  1188  TYL1188     0.0434
      6  C6        21.5840    9.1480  -10.8260 C.ar  1188  TYL1188     0.0199
      7  N         19.6710    9.0870   -9.2480 N.am  1188  TYL1188    -0.1792
      8  C         20.2200    8.4330   -8.1870 C.2   1188  TYL1188     0.2461
      9  CM        19.2890    8.2210   -7.0200 C.3   1188  TYL1188     0.0968
     10  O4        21.9500   10.9570  -13.9760 O.3   1188  TYL1188    -0.2866
     11  O         21.3800    8.0520   -8.1590 O.2   1188  TYL1188    -0.2730
@<TRIPOS>BOND
     1    10     4    1
     2     4     3   ar
     3     4     5   ar
     4     3     2   ar
     5     5     6   ar
     6     2     1   ar
     7     6     1   ar
     8     1     7    1
     9     7     8   am
    10     8    11    2
    11     8     9    1
