@<TRIPOS>MOLECULE
4a9k_TYL_A_1.pdb
 11 11 0 0 0
SMALL
GASTEIGER

@<TRIPOS>ATOM
      1  C1       -18.0870   27.5550   -0.1700 C.ar  2200  TYL2200     0.0736
      2  C2       -16.7810   28.0140   -0.3630 C.ar  2200  TYL2200     0.0199
      3  C3       -16.2490   29.0210    0.4440 C.ar  2200  TYL2200     0.0434
      4  C4       -17.0250   29.5770    1.4570 C.ar  2200  TYL2200     0.1958
      5  C5       -18.3220   29.1210    1.6430 C.ar  2200  TYL2200     0.0434
      6  C6       -18.8490   28.1240    0.8440 C.ar  2200  TYL2200     0.0199
      7  N        -18.5740   26.5500   -1.0470 N.am  2200  TYL2200    -0.1792
      8  C        -19.8320   26.0460   -1.1380 C.2   2200  TYL2200     0.2461
      9  CM       -20.0260   24.9690   -2.1700 C.3   2200  TYL2200     0.0968
     10  O4       -16.5310   30.5620    2.2670 O.3   2200  TYL2200    -0.2866
     11  O        -20.7570   26.4260   -0.4420 O.2   2200  TYL2200    -0.2730
@<TRIPOS>BOND
     1     9     8    1
     2     8     7   am
     3     8    11    2
     4     7     1    1
     5     2     1   ar
     6     2     3   ar
     7     1     6   ar
     8     3     4   ar
     9     6     5   ar
    10     4     5   ar
    11     4    10    1
