@<TRIPOS>MOLECULE
4a9l_P9L_A_1.pdb
 22 24 0 0 0
SMALL
GASTEIGER

@<TRIPOS>ATOM
      1  O3        29.3020   51.1620   -3.3720 O.2   1171  P9L1171    -0.1528
      2  S         29.4120   49.9960   -2.5410 S.O2  1171  P9L1171     0.0634
      3  O2        30.5260   49.9600   -1.6300 O.2   1171  P9L1171    -0.1528
      4  N3        29.5340   48.7060   -3.5200 N.3   1171  P9L1171    -0.1504
      5  C14       29.9370   47.4060   -2.9400 C.3   1171  P9L1171     0.1279
      6  C13       30.3890   46.4660   -4.0280 C.3   1171  P9L1171     0.1613
      7  O4        29.3970   46.3210   -5.0110 O.3   1171  P9L1171    -0.3507
      8  C12       29.3900   47.5510   -5.6990 C.3   1171  P9L1171     0.1613
      9  C11       28.8500   48.6770   -4.8360 C.3   1171  P9L1171     0.1279
     10  C5        27.8930   49.6800   -1.7250 C.ar  1171  P9L1171     0.1220
     11  C4        27.9020   48.8350   -0.6290 C.ar  1171  P9L1171     0.0185
     12  C6        26.7110   50.1080   -2.3140 C.ar  1171  P9L1171     0.0212
     13  C7        25.5000   49.7830   -1.7240 C.ar  1171  P9L1171     0.0161
     14  C8        25.5080   49.0000   -0.5770 C.ar  1171  P9L1171     0.0530
     15  C3        26.6940   48.5120   -0.0400 C.ar  1171  P9L1171     0.0128
     16  C2        26.6680   47.6510    1.1980 C.3   1171  P9L1171     0.1230
     17  N2        24.3410   48.5700    0.0700 N.am  1171  P9L1171    -0.2416
     18  C9        23.0720   49.0950   -0.4580 C.3   1171  P9L1171     0.1216
     19  C10       24.2910   47.3420    0.6990 C.2   1171  P9L1171     0.3113
     20  O1        23.2940   46.6500    0.6050 O.2   1171  P9L1171    -0.2520
     21  N1        25.4470   46.8370    1.1930 N.am  1171  P9L1171    -0.2579
     22  C1        25.4880   45.5380    1.8740 C.3   1171  P9L1171     0.1168
@<TRIPOS>BOND
     1     8     7    1
     2     8     9    1
     3     7     6    1
     4     9     4    1
     5     6     5    1
     6     4     5    1
     7     4     2    1
     8     1     2    2
     9     2    10    1
    10     2     3    2
    11    12    10   ar
    12    12    13   ar
    13    10    11   ar
    14    13    14   ar
    15    11    15   ar
    16    14    15   ar
    17    14    17    1
    18    18    17    1
    19    15    16    1
    20    17    19   am
    21    20    19    2
    22    19    21   am
    23    21    16    1
    24    21    22    1
