@<TRIPOS>MOLECULE
4a9m_P9M_A_1.pdb
 23 25 0 0 0
SMALL
GASTEIGER

@<TRIPOS>ATOM
      1  O3        21.1020   12.6740  -12.7700 O.2   1187  P9M1187    -0.1516
      2  S         19.6900   12.8060  -12.9660 S.O2  1187  P9M1187     0.0765
      3  O2        19.1180   12.4780  -14.2450 O.2   1187  P9M1187    -0.1516
      4  N2        19.3260   14.3290  -12.6780 N.3   1187  P9M1187    -0.0793
      5  C13       19.7060   14.8620  -11.3620 C.3   1187  P9M1187     0.0977
      6  C17       20.4260   16.1850  -11.5540 C.3   1187  P9M1187     0.0193
      7  C16       20.2630   16.8790  -10.2280 C.3   1187  P9M1187     0.0015
      8  C15       18.9040   16.4300   -9.7270 C.3   1187  P9M1187     0.0015
      9  C14       18.4530   15.2740  -10.6000 C.3   1187  P9M1187     0.0193
     10  C11       18.8950   11.7690  -11.7550 C.ar  1187  P9M1187     0.1196
     11  C9        17.5020   11.7520  -11.5850 C.ar  1187  P9M1187    -0.0032
     12  C10       16.5300   12.5950  -12.3890 C.3   1187  P9M1187     0.0324
     13  C8        16.9970   10.8860  -10.6040 C.ar  1187  P9M1187    -0.0029
     14  C7        17.8240   10.0720   -9.8240 C.ar  1187  P9M1187    -0.0001
     15  C12       19.7170   10.9690  -10.9760 C.ar  1187  P9M1187     0.0198
     16  C6        19.2050   10.1120  -10.0120 C.ar  1187  P9M1187     0.0053
     17  C5        20.1280    9.2710   -9.2000 C.ar  1187  P9M1187     0.0497
     18  C2        20.0480    8.9300   -7.8340 C.ar  1187  P9M1187     0.1006
     19  C1        19.0070    9.2850   -6.8150 C.3   1187  P9M1187     0.0556
     20  C3        21.2640    8.6810   -9.6490 C.ar  1187  P9M1187     0.1544
     21  C4        21.9780    8.6200  -10.9720 C.3   1187  P9M1187     0.0754
     22  O1        21.8620    8.0190   -8.6390 O.2   1187  P9M1187    -0.3581
     23  N1        21.0610    8.1840   -7.4760 N.ar  1187  P9M1187    -0.0817
@<TRIPOS>BOND
     1     3     2    2
     2     2     1    2
     3     2     4    1
     4     2    10    1
     5     4     5    1
     6    12    11    1
     7    10    11   ar
     8    10    15   ar
     9    11    13   ar
    10     6     5    1
    11     6     7    1
    12     5     9    1
    13    15    16   ar
    14    21    20    1
    15    13    14   ar
    16     9     8    1
    17     7     8    1
    18    16    14   ar
    19    16    17    1
    20    20    17   ar
    21    20    22   ar
    22    17    18   ar
    23    22    23   ar
    24    18    23   ar
    25    18    19    1
