@<TRIPOS>MOLECULE
4a9n_A9N_A_1.pdb
 21 23 0 0 0
SMALL
GASTEIGER

@<TRIPOS>ATOM
      1  O3        20.7720   13.3460  -11.6160 O.2   1190  A9N1190    -0.1516
      2  S         19.4320   13.2300  -12.1150 S.O2  1190  A9N1190     0.0765
      3  O2        19.2070   12.9750  -13.5020 O.2   1190  A9N1190    -0.1516
      4  N2        18.6690   14.5960  -11.7380 N.3   1190  A9N1190    -0.0793
      5  C13       18.6580   15.1070  -10.3710 C.3   1190  A9N1190     0.0978
      6  C15       19.7200   16.0250   -9.8860 C.3   1190  A9N1190     0.0208
      7  C14       18.5520   16.5590  -10.0920 C.3   1190  A9N1190     0.0208
      8  C11       18.7060   11.8940  -11.2040 C.ar  1190  A9N1190     0.1196
      9  C9        17.3240   11.6620  -11.2660 C.ar  1190  A9N1190    -0.0032
     10  C10       16.3770   12.4820  -12.0690 C.3   1190  A9N1190     0.0324
     11  C8        16.8380   10.5980  -10.5290 C.ar  1190  A9N1190    -0.0029
     12  C7        17.6600    9.7950   -9.7610 C.ar  1190  A9N1190    -0.0001
     13  C12       19.5340   11.0990  -10.4430 C.ar  1190  A9N1190     0.0198
     14  C6        19.0150   10.0460   -9.7160 C.ar  1190  A9N1190     0.0053
     15  C5        19.9240    9.2170   -8.9040 C.ar  1190  A9N1190     0.0497
     16  C2        19.8120    8.9360   -7.5260 C.ar  1190  A9N1190     0.1006
     17  C1        18.8610    9.3010   -6.6640 C.3   1190  A9N1190     0.0556
     18  C3        21.0740    8.6200   -9.3460 C.ar  1190  A9N1190     0.1544
     19  C4        21.7450    8.5410  -10.6500 C.3   1190  A9N1190     0.0754
     20  O1        21.6670    7.9810   -8.3070 O.2   1190  A9N1190    -0.3581
     21  N1        20.8700    8.1940   -7.1870 N.ar  1190  A9N1190    -0.0817
@<TRIPOS>BOND
     1     3     2    2
     2     2     4    1
     3     2     1    2
     4     2     8    1
     5    10     9    1
     6     4     5    1
     7     9     8   ar
     8     9    11   ar
     9     8    13   ar
    10    19    18    1
    11    11    12   ar
    12    13    14   ar
    13     5     7    1
    14     5     6    1
    15     7     6    1
    16    12    14   ar
    17    14    15    1
    18    18    15   ar
    19    18    20   ar
    20    15    16   ar
    21    20    21   ar
    22    16    21   ar
    23    16    17    1
