@<TRIPOS>MOLECULE
4a9o_A9O_A_1.pdb
 14 15 0 0 0
SMALL
GASTEIGER

@<TRIPOS>ATOM
      1  C5        18.6590    9.0620   -6.9010 C.3   1190  A9O1190     0.0556
      2  C4        19.6400    8.9640   -8.0240 C.ar  1190  A9O1190     0.1006
      3  N         20.7870    8.3800   -7.8090 N.ar  1190  A9O1190    -0.0817
      4  O         21.4900    8.4420   -9.0480 O.2   1190  A9O1190    -0.3581
      5  C6        19.5360    9.4170   -9.3530 C.ar  1190  A9O1190     0.0496
      6  C3        20.7010    9.0690   -9.9410 C.ar  1190  A9O1190     0.1539
      7  C2        21.2690    9.2400  -11.3090 C.3   1190  A9O1190     0.0673
      8  C1        22.0130    8.0200  -11.8010 C.3   1190  A9O1190     0.0085
      9  C7        18.4030   10.1260  -10.0010 C.ar  1190  A9O1190     0.0039
     10  C12       18.6180   11.2890  -10.7350 C.ar  1190  A9O1190     0.0001
     11  C11       17.5600   11.9070  -11.3910 C.ar  1190  A9O1190     0.0000
     12  C10       16.2780   11.3800  -11.3090 C.ar  1190  A9O1190     0.0000
     13  C9        16.0520   10.2240  -10.5760 C.ar  1190  A9O1190     0.0000
     14  C8        17.1130    9.6000   -9.9270 C.ar  1190  A9O1190     0.0001
@<TRIPOS>BOND
     1     8     7    1
     2    11    12   ar
     3    11    10   ar
     4     7     6    1
     5    12    13   ar
     6    10     9   ar
     7    13    14   ar
     8     9    14   ar
     9     9     5    1
    10     6     5   ar
    11     6     4   ar
    12     5     2   ar
    13     4     3   ar
    14     2     3   ar
    15     2     1    1
