@<TRIPOS>MOLECULE
4a9r_RU5_A_1.pdb
 26 29 0 0 0
SMALL
GASTEIGER

@<TRIPOS>ATOM
      1  C1       -11.8510   46.4550    2.8050 C.2   1514  RU51514     0.2843
      2  N1       -10.8140   45.5480    2.3540 N.am  1514  RU51514    -0.0837
      3  O1        -6.4010   50.4710   12.4620 O.3   1514  RU51514    -0.4535
      4  C2       -11.7380   47.1090    4.1770 C.ar  1514  RU51514     0.0594
      5  C3       -10.5620   47.2190    4.7490 C.ar  1514  RU51514     0.0403
      6  N3        -9.3400   48.1210    6.9480 N.2   1514  RU51514    -0.3372
      7  C4       -10.4390   47.8740    6.1220 C.ar  1514  RU51514     0.1742
      8  N4       -11.0710   48.9070    8.0410 N.2   1514  RU51514    -0.3372
      9  C5        -9.7970   48.7670    8.1330 C.1   1514  RU51514     0.1379
     10  C6       -11.5030   48.3270    6.7310 C.ar  1514  RU51514     0.1741
     11  C7       -12.8720   48.2000    6.0670 C.ar  1514  RU51514     0.0358
     12  C8       -12.9800   47.6350    4.8850 C.ar  1514  RU51514     0.0074
     13  C9        -8.9140   49.2120    9.2940 C.ar  1514  RU51514     0.0858
     14 CLA        -9.3920   53.9070   16.3940 Cl    1514  RU51514    -0.0822
     15  C10       -9.5140   49.4920   10.6690 C.ar  1514  RU51514     0.0152
     16  C11       -8.7360   49.8830   11.6560 C.ar  1514  RU51514     0.0382
     17  C12       -7.2400   50.0690   11.4200 C.ar  1514  RU51514     0.1453
     18  C13       -6.7260   49.8320   10.2350 C.ar  1514  RU51514     0.0382
     19  C14       -7.6260   49.3770    9.0930 C.ar  1514  RU51514     0.0152
     20  C15       -7.1000   51.2660   13.3730 C.ar  1514  RU51514     0.1454
     21  C16       -7.7890   50.6260   14.5740 C.ar  1514  RU51514     0.0384
     22  C17       -8.4430   51.3760   15.4340 C.ar  1514  RU51514     0.0145
     23  C18       -8.5080   52.8860   15.2300 C.ar  1514  RU51514     0.0579
     24  C19       -7.9130   53.4390   14.1960 C.ar  1514  RU51514     0.0145
     25  C20       -7.1550   52.5680   13.1990 C.ar  1514  RU51514     0.0384
     26  OAB      -12.7770   46.6870    2.1060 O.2   1514  RU51514    -0.2667
@<TRIPOS>BOND
     1    26     1    2
     2     2     1   am
     3     1     4    1
     4     4     5   ar
     5     4    12   ar
     6     5     7   ar
     7    12    11   ar
     8    11    10   ar
     9     7    10   ar
    10     7     6    2
    11    10     8    2
    12     6     9    2
    13     8     9    2
    14     9    13    1
    15    19    13   ar
    16    19    18   ar
    17    13    15   ar
    18    18    17   ar
    19    15    16   ar
    20    17    16   ar
    21    17     3    1
    22     3    20    1
    23    25    20   ar
    24    25    24   ar
    25    20    21   ar
    26    24    23   ar
    27    21    22   ar
    28    23    22   ar
    29    23    14    1
