@<TRIPOS>MOLECULE
4a9s_RU9_A_1.pdb
 26 29 0 0 0
SMALL
GASTEIGER

@<TRIPOS>ATOM
      1  C1        34.2940  -33.4430   12.5970 C.2   1515  RU91515     0.2843
      2  N1        34.8150  -32.4800   13.5500 N.am  1515  RU91515    -0.0837
      3  O1        40.6020  -30.7750    2.8740 O.3   1515  RU91515    -0.4534
      4  C2        34.9550  -33.5930   11.2290 C.ar  1515  RU91515     0.0594
      5  C3        35.6430  -32.6000   10.7030 C.ar  1515  RU91515     0.0403
      6  N3        37.0970  -31.9200    8.5460 N.2   1515  RU91515    -0.3372
      7  C4        36.3190  -32.7730    9.3420 C.ar  1515  RU91515     0.1742
      8  N4        36.9610  -33.7980    7.4190 N.2   1515  RU91515    -0.3372
      9  C5        37.4750  -32.6220    7.3600 C.1   1515  RU91515     0.1379
     10  C6        36.2080  -33.9140    8.7060 C.ar  1515  RU91515     0.1741
     11  C7        35.4100  -35.0650    9.3190 C.ar  1515  RU91515     0.0358
     12  C8        34.8300  -34.9160   10.4870 C.ar  1515  RU91515     0.0074
     13  C9        38.3140  -32.1010    6.1960 C.ar  1515  RU91515     0.0858
     14  C10       38.1690  -32.7810    4.8390 C.ar  1515  RU91515     0.0152
     15  C11       38.8810  -32.3670    3.8170 C.ar  1515  RU91515     0.0382
     16  C12       39.8600  -31.2070    3.9820 C.ar  1515  RU91515     0.1453
     17  C13       39.9890  -30.6190    5.1560 C.ar  1515  RU91515     0.0382
     18  C14       39.1600  -31.1010    6.3480 C.ar  1515  RU91515     0.0152
     19  C15       41.2190  -31.8710    2.2550 C.ar  1515  RU91515     0.1485
     20  C16       42.5890  -32.3500    2.7330 C.ar  1515  RU91515     0.0377
     21  C17       43.1690  -33.3810    2.1560 C.ar  1515  RU91515     0.0064
     22  C18       42.4710  -34.1010    1.0040 C.ar  1515  RU91515     0.0422
     23  C19       41.2910  -33.6890    0.5910 C.ar  1515  RU91515     0.1988
     24  C20       40.6190  -32.4920    1.2600 C.ar  1515  RU91515     0.0795
     25  OAB       33.4430  -34.2030   12.9250 O.2   1515  RU91515    -0.2667
     26  OAC       40.6500  -34.3550   -0.4590 O.3   1515  RU91515    -0.2865
@<TRIPOS>BOND
     1    26    23    1
     2    23    22   ar
     3    23    24   ar
     4    22    21   ar
     5    24    19   ar
     6    21    20   ar
     7    19    20   ar
     8    19     3    1
     9     3    16    1
    10    15    16   ar
    11    15    14   ar
    12    16    17   ar
    13    14    13   ar
    14    17    18   ar
    15    13    18   ar
    16    13     9    1
    17     9     8    2
    18     9     6    2
    19     8    10    2
    20     6     7    2
    21    10    11   ar
    22    10     7   ar
    23    11    12   ar
    24     7     5   ar
    25    12     4   ar
    26     5     4   ar
    27     4     1    1
    28     1    25    2
    29     1     2   am
