@<TRIPOS>MOLECULE
4a9t_A9T_A_1.pdb
 26 29 0 0 0
SMALL
GASTEIGER

@<TRIPOS>ATOM
      1  C1        11.4690  -46.5400    2.8530 C.2   1514  A9T1514     0.2843
      2  N1        10.3200  -46.1600    2.3060 N.am  1514  A9T1514    -0.0837
      3  O1         6.1750  -50.4400   12.2230 O.3   1514  A9T1514    -0.4755
      4  C2        11.3450  -47.1850    4.2410 C.ar  1514  A9T1514     0.0594
      5  C3        10.0920  -47.3170    4.8370 C.ar  1514  A9T1514     0.0403
      6  N3         8.9250  -48.1660    6.8740 N.2   1514  A9T1514    -0.3372
      7  C4         9.9710  -47.9020    6.0950 C.ar  1514  A9T1514     0.1742
      8  N4        10.6930  -48.8550    7.9230 N.2   1514  A9T1514    -0.3372
      9  C5         9.3650  -48.7250    8.0050 C.1   1514  A9T1514     0.1379
     10  C6        11.1010  -48.3510    6.7600 C.ar  1514  A9T1514     0.1741
     11  C7        12.3560  -48.2210    6.1680 C.ar  1514  A9T1514     0.0358
     12  C8        12.4790  -47.6350    4.9120 C.ar  1514  A9T1514     0.0074
     13  C9         8.5610  -49.1470    9.0690 C.ar  1514  A9T1514     0.0858
     14  C10        9.1350  -49.6490   10.2350 C.ar  1514  A9T1514     0.0151
     15  C11        8.3240  -50.0600   11.2890 C.ar  1514  A9T1514     0.0376
     16  C12        6.9370  -49.9870   11.1840 C.ar  1514  A9T1514     0.1386
     17  C13        6.3620  -49.5380    9.9990 C.ar  1514  A9T1514     0.0376
     18  C14        7.1730  -49.1040    8.9530 C.ar  1514  A9T1514     0.0151
     19  C20        4.2610  -52.8700   14.8740 C.3   1514  A9T1514     0.0888
     20  C19        4.6650  -52.2130   13.5550 C.3   1514  A9T1514     0.0226
     21  C18        4.3820  -50.7270   13.5850 C.3   1514  A9T1514     0.0466
     22  C17        5.0060  -50.0910   14.8250 C.3   1514  A9T1514     0.0226
     23  C16        4.5800  -50.8440   16.0890 C.3   1514  A9T1514     0.0888
     24  NBG        5.0390  -52.2520   15.9760 N.3   1514  A9T1514    -0.2180
     25  CAS        4.7740  -50.0280   12.2760 C.3   1514  A9T1514     0.2054
     26  OAB       12.5630  -46.3810    2.3140 O.2   1514  A9T1514    -0.2667
@<TRIPOS>BOND
     1     2     1   am
     2    26     1    2
     3     1     4    1
     4     4     5   ar
     5     4    12   ar
     6     5     7   ar
     7    12    11   ar
     8     7    10   ar
     9     7     6    2
    10    11    10   ar
    11    10     8    2
    12     6     9    2
    13     8     9    2
    14     9    13    1
    15    18    13   ar
    16    18    17   ar
    17    13    14   ar
    18    17    16   ar
    19    14    15   ar
    20    16    15   ar
    21    16     3    1
    22     3    25    1
    23    25    21    1
    24    20    21    1
    25    20    19    1
    26    21    22    1
    27    22    23    1
    28    19    24    1
    29    24    23    1
