@<TRIPOS>MOLECULE
4a9u_A9U_A_1.pdb
 26 29 0 0 0
SMALL
GASTEIGER

@<TRIPOS>ATOM
      1  C1        34.5160  -33.4250   12.6700 C.2   1516  A9U1516     0.2843
      2  N1        34.9870  -32.4320   13.6130 N.am  1516  A9U1516    -0.0837
      3  O1        40.8970  -30.5630    3.0780 O.3   1516  A9U1516    -0.4755
      4  C2        35.2110  -33.5870   11.3200 C.ar  1516  A9U1516     0.0594
      5  C3        35.8410  -32.5690   10.7730 C.ar  1516  A9U1516     0.0403
      6  N3        37.2650  -31.8550    8.6100 N.2   1516  A9U1516    -0.3372
      7  C4        36.5330  -32.7380    9.4180 C.ar  1516  A9U1516     0.1742
      8  N4        37.2390  -33.7650    7.5240 N.2   1516  A9U1516    -0.3372
      9  C5        37.6640  -32.5580    7.4260 C.1   1516  A9U1516     0.1379
     10  C6        36.4910  -33.8960    8.8070 C.ar  1516  A9U1516     0.1741
     11  C7        35.7600  -35.0770    9.4440 C.ar  1516  A9U1516     0.0358
     12  C8        35.1660  -34.9330   10.6100 C.ar  1516  A9U1516     0.0074
     13  C9        38.5030  -32.0110    6.2730 C.ar  1516  A9U1516     0.0858
     14  C10       38.5970  -32.7990    4.9670 C.ar  1516  A9U1516     0.0151
     15  C11       39.3320  -32.3440    3.9720 C.ar  1516  A9U1516     0.0376
     16  C12       40.0940  -31.0290    4.1250 C.ar  1516  A9U1516     0.1386
     17  C13       40.0180  -30.3530    5.2540 C.ar  1516  A9U1516     0.0376
     18  C14       39.1660  -30.8800    6.4090 C.ar  1516  A9U1516     0.0151
     19  C20       43.8310  -29.7100    0.6420 C.3   1516  A9U1516     0.0888
     20  C19       42.7390  -29.9040    1.6970 C.3   1516  A9U1516     0.0226
     21  C18       41.6020  -29.0800    1.4560 C.3   1516  A9U1516     0.0466
     22  C17       41.1530  -29.2070    0.1140 C.3   1516  A9U1516     0.0226
     23  C16       42.2900  -29.0090   -0.8850 C.3   1516  A9U1516     0.0888
     24  NBH       43.3020  -29.9110   -0.6210 N.3   1516  A9U1516    -0.2180
     25  CAS       40.5480  -29.4090    2.3680 C.3   1516  A9U1516     0.2054
     26  OAB       33.5880  -34.1090   12.9460 O.2   1516  A9U1516    -0.2667
@<TRIPOS>BOND
     1    23    24    1
     2    23    22    1
     3    24    19    1
     4    22    21    1
     5    19    20    1
     6    21    20    1
     7    21    25    1
     8    25     3    1
     9     3    16    1
    10    15    16   ar
    11    15    14   ar
    12    16    17   ar
    13    14    13   ar
    14    17    18   ar
    15    13    18   ar
    16    13     9    1
    17     9     8    2
    18     9     6    2
    19     8    10    2
    20     6     7    2
    21    10     7   ar
    22    10    11   ar
    23     7     5   ar
    24    11    12   ar
    25    12     4   ar
    26     5     4   ar
    27     4     1    1
    28     1    26    2
    29     1     2   am
