@<TRIPOS>MOLECULE
4a9x_ACP_A_1.pdb
 48 50 0 0 0
SMALL
GASTEIGER

@<TRIPOS>ATOM
      1  PG       -34.4900   -3.8390   -9.9270 P.3   1000  ACP1000     0.3692
      2  O1G      -34.4130   -2.6970  -10.8930 O.2   1000  ACP1000    -0.2557
      3  O2G      -33.1190   -4.5310   -9.7330 O.3   1000  ACP1000    -0.3221
      4  O3G      -35.0600   -3.4040   -8.5600 O.3   1000  ACP1000    -0.1401
      5  PB       -36.7370   -4.4380  -11.5090 P.3   1000  ACP1000     0.3503
      6  O1B      -37.2890   -3.0650  -11.1370 O.2   1000  ACP1000    -0.2576
      7  O2B      -36.4510   -4.7430  -13.0170 O.3   1000  ACP1000    -0.3232
      8  C3B      -35.5710   -5.0460  -10.4720 C.3   1000  ACP1000     0.1533
      9  PA       -38.6700   -6.6160  -11.9550 P.3   1000  ACP1000     0.4819
     10  O1A      -37.6650   -7.7040  -12.0420 O.2   1000  ACP1000    -0.2269
     11  O2A      -39.5410   -6.3360  -13.1690 O.3   1000  ACP1000    -0.3022
     12  O3A      -38.1330   -5.2120  -11.3950 O.3   1000  ACP1000    -0.2077
     13  O5'      -39.8980   -6.9770  -10.8940 O.3   1000  ACP1000    -0.2837
     14  C5'      -40.7060   -6.0070  -10.1930 C.3   1000  ACP1000     0.0879
     15  C4'      -40.5340   -6.1520   -8.6970 C.3   1000  ACP1000     0.1132
     16  O4'      -41.0900   -7.4100   -8.2550 O.3   1000  ACP1000    -0.3474
     17  C3'      -39.1130   -6.1070   -8.1350 C.3   1000  ACP1000     0.1133
     18  O3'      -39.1240   -5.5320   -6.8330 O.3   1000  ACP1000    -0.3864
     19  C2'      -38.7320   -7.5820   -8.0600 C.3   1000  ACP1000     0.1266
     20  O2'      -37.7480   -7.8190   -7.0570 O.3   1000  ACP1000    -0.3849
     21  C1'      -40.0770   -8.2160   -7.6790 C.3   1000  ACP1000     0.1617
     22  N9       -40.2780   -9.5800   -8.1570 N.pl3 1000  ACP1000    -0.2234
     23  C8       -39.8690  -10.1120   -9.3520 C.2   1000  ACP1000     0.1451
     24  N7       -40.2330  -11.3560   -9.5360 N.2   1000  ACP1000    -0.3871
     25  C5       -40.9360  -11.6680   -8.3820 C.2   1000  ACP1000     0.2211
     26  C6       -41.5750  -12.8490   -7.9460 C.2   1000  ACP1000     0.2227
     27  N6       -41.5180  -14.0130   -8.6040 N.pl3 1000  ACP1000    -0.3300
     28  N1       -42.2010  -12.8190   -6.7490 N.2   1000  ACP1000    -0.3296
     29  C2       -42.1480  -11.6950   -6.0240 C.1   1000  ACP1000     0.0930
     30  N3       -41.5620  -10.5290   -6.3230 N.2   1000  ACP1000    -0.3287
     31  C4       -40.9750  -10.5800   -7.5240 C.2   1000  ACP1000     0.2354
     32 HOG2      -33.0650   -5.2820   -9.0850 H     1000  ACP1000     0.2198
     33 HOB2      -37.1480   -4.6330  -13.7160 H     1000  ACP1000     0.2198
     34 H3B1      -35.0500   -5.8570  -10.9790 H     1000  ACP1000     0.0514
     35 H3B2      -36.0130   -5.5880   -9.6370 H     1000  ACP1000     0.0514
     36 HOA2      -40.2010   -5.6120  -13.3340 H     1000  ACP1000     0.2220
     37 H5'1      -40.5000   -4.9990  -10.5490 H     1000  ACP1000     0.0592
     38 H5'2      -41.7580   -6.1580  -10.4330 H     1000  ACP1000     0.0592
     39  H4'      -41.1930   -5.4320   -8.2140 H     1000  ACP1000     0.0647
     40  H3'      -38.4210   -5.5500   -8.7650 H     1000  ACP1000     0.0647
     41 HO3'      -38.2480   -5.7340   -6.4100 H     1000  ACP1000     0.2100
     42  H2'      -38.3370   -7.8970   -9.0240 H     1000  ACP1000     0.0663
     43 HO2'      -37.0920   -8.4620   -7.4340 H     1000  ACP1000     0.2101
     44  H1'      -40.1980   -8.2230   -6.5980 H     1000  ACP1000     0.0841
     45  H8       -39.2960   -9.5820  -10.1120 H     1000  ACP1000     0.1149
     46 HN61      -41.9940  -14.8260   -8.2270 H     1000  ACP1000     0.1448
     47 HN62      -40.9920  -14.0780   -9.4700 H     1000  ACP1000     0.1448
     48  H2       -42.6300  -11.7550   -5.0490 H     1000  ACP1000     0.1751
@<TRIPOS>BOND
     1    33     7    1
     2    36    11    1
     3    11     9    1
     4     7     5    1
     5    10     9    2
     6     9    12    1
     7     9    13    1
     8     5    12    1
     9     5     6    2
    10     5     8    1
    11    34     8    1
    12    13    14    1
    13     2     1    2
    14    37    14    1
    15     8     1    1
    16     8    35    1
    17    38    14    1
    18    14    15    1
    19    45    23    1
    20     1     3    1
    21     1     4    1
    22     3    32    1
    23    24    23    2
    24    24    25    2
    25    47    27    1
    26    23    22    1
    27    42    19    1
    28    40    17    1
    29    15    16    1
    30    15    39    1
    31    15    17    1
    32    27    46    1
    33    27    26    1
    34    25    26    1
    35    25    31    1
    36    16    21    1
    37    22    21    1
    38    22    31    1
    39    17    19    1
    40    17    18    1
    41    19    21    1
    42    19    20    1
    43    26    28    2
    44    21    44    1
    45    31    30    2
    46    43    20    1
    47    18    41    1
    48    28    29    2
    49    30    29    2
    50    29    48    1
