@<TRIPOS>MOLECULE
4aa0_AA0_A_1.pdb
 40 45 0 0 0
SMALL
GASTEIGER

@<TRIPOS>ATOM
      1  C3        -4.0470    0.0810   24.7150 C.2   1353  AA01353    -0.0053
      2  C4        -4.0520   -0.7470   23.6010 C.3   1353  AA01353     0.0728
      3  C5        -4.0860   -0.1840   22.3320 C.2   1353  AA01353     0.0645
      4  N6        -4.0880   -1.0350   21.1970 N.2   1353  AA01353    -0.2515
      5  C9        -4.1350    1.7980   20.8860 C.2   1353  AA01353     0.2553
      6  N10       -4.1360    0.9010   19.8270 N.am  1353  AA01353    -0.2339
      7  C11       -4.3230    1.4180   18.5090 C.ar  1353  AA01353     0.0532
      8  C12       -3.2660    2.0260   17.8420 C.ar  1353  AA01353     0.0312
      9  C13       -3.4990    2.5460   16.5630 C.ar  1353  AA01353     0.0749
     10  N14       -2.5080    3.2070   15.7910 N.am  1353  AA01353    -0.1754
     11  C15       -1.1510    2.9030   15.8110 C.2   1353  AA01353     0.2691
     12  O16       -0.6360    2.0640   16.5550 O.2   1353  AA01353    -0.2680
     13  C17       -0.2900    3.6170   14.8150 C.ar  1353  AA01353     0.0597
     14  C18       -0.6110    4.8860   14.3690 C.ar  1353  AA01353     0.0253
     15  C19        0.2550    5.4680   13.4620 C.ar  1353  AA01353     0.1005
     16  N20        1.3800    4.8820   13.0000 N.ar  1353  AA01353    -0.2292
     17  C21        1.6940    3.6320   13.4140 C.ar  1353  AA01353     0.1320
     18  C22        0.8610    2.9950   14.3380 C.ar  1353  AA01353     0.0389
     19  N23        2.8650    2.9920   12.8790 N.pl3 1353  AA01353    -0.2881
     20  C28        3.3520    1.7780   13.5340 C.3   1353  AA01353     0.1242
     21  C27        4.4100    1.0460   12.7050 C.3   1353  AA01353     0.1636
     22  O26        5.5030    1.9080   12.3560 O.3   1353  AA01353    -0.3501
     23  C25        4.9830    3.0510   11.6340 C.3   1353  AA01353     0.1636
     24  C24        3.9560    3.8630   12.4350 C.3   1353  AA01353     0.1242
     25  C29       -4.7610    2.4720   16.0070 C.ar  1353  AA01353     0.0164
     26  C30       -5.8220    1.8800   16.6590 C.ar  1353  AA01353    -0.0017
     27  C31       -5.5880    1.3500   17.9240 C.ar  1353  AA01353    -0.0080
     28  C20       -4.1140   -0.4600   20.0290 C.3   1353  AA01353     0.2258
     29  C32       -6.7400    0.7070   18.6280 C.3   1353  AA01353     0.0323
     30  C33       -4.1080    1.1950   22.2360 C.2   1353  AA01353     0.0687
     31  C34       -4.1000    2.0200   23.3500 C.2   1353  AA01353     0.0199
     32  C35       -4.0690    1.4570   24.6210 C.2   1353  AA01353     0.0442
     33  C41       -3.4460    1.6010   26.9710 C.3   1353  AA01353     0.1081
     34  C40       -2.0690    2.1540   27.2670 C.3   1353  AA01353     0.0938
     35  N31       -4.0760    2.2300   25.8030 N.pl3 1353  AA01353    -0.3049
     36  N39       -2.0730    3.6410   27.1310 N.3   1353  AA01353    -0.2686
     37  C38       -2.5430    4.1080   25.7970 C.3   1353  AA01353     0.0938
     38  O39       -4.1440    3.0160   20.7820 O.2   1353  AA01353    -0.2695
     39  C37       -3.9830    3.6670   25.6130 C.3   1353  AA01353     0.1081
     40  C43       -0.7200    4.1760   27.3700 C.3   1353  AA01353     0.0897
@<TRIPOS>BOND
     1    23    22    1
     2    23    24    1
     3    22    21    1
     4    24    19    1
     5    21    20    1
     6    19    17    1
     7    19    20    1
     8    16    17   ar
     9    16    15   ar
    10    17    18   ar
    11    15    14   ar
    12    18    13   ar
    13    14    13   ar
    14    13    11    1
    15    10    11   am
    16    10     9    1
    17    11    12    2
    18    25     9   ar
    19    25    26   ar
    20     9     8   ar
    21    26    27   ar
    22     8     7   ar
    23    27     7   ar
    24    27    29    1
    25     7     6    1
    26     6    28    1
    27     6     5   am
    28    28     4    1
    29    38     5    2
    30     5    30    1
    31     4     3    2
    32    30     3    1
    33    30    31    2
    34     3     2    1
    35    31    32    1
    36     2     1    1
    37    32     1    2
    38    32    35    1
    39    39    37    1
    40    39    35    1
    41    37    36    1
    42    35    33    1
    43    33    34    1
    44    36    34    1
    45    36    40    1
