@<TRIPOS>MOLECULE
4aa1_III_P_1.pdb
 37 39 0 0 0
SMALL
GASTEIGER

@<TRIPOS>ATOM
      1  N         -9.0950   23.2670   21.3540 N.3     3  TYR3       -0.1227
      2  CA       -10.4390   23.1330   20.7090 C.3     3  TYR3        0.1736
      3  C        -11.5130   22.6190   21.6800 C.2     3  TYR3        0.2595
      4  O        -11.5660   21.4330   22.0120 O.2     3  TYR3       -0.2718
      5  CB       -10.3450   22.2750   19.4430 C.3     3  TYR3        0.0548
      6  CG        -9.7940   23.0400   18.2590 C.ar    3  TYR3       -0.0200
      7  CD1       -8.4220   23.1050   18.0200 C.ar    3  TYR3       -0.0009
      8  CD2      -10.6450   23.7190   17.3880 C.ar    3  TYR3       -0.0009
      9  CE1       -7.9150   23.8190   16.9310 C.ar    3  TYR3        0.0417
     10  CE2      -10.1460   24.4360   16.3010 C.ar    3  TYR3        0.0417
     11  CZ        -8.7820   24.4790   16.0750 C.ar    3  TYR3        0.1957
     12  OH        -8.2910   25.1830   14.9950 O.3     3  TYR3       -0.2866
     13  N        -12.3830   23.5340   22.1010 N.am    4  ILE4       -0.1966
     14  CA       -13.2750   23.3190   23.2460 C.3     4  ILE4        0.1727
     15  C        -14.7490   23.0380   22.8980 C.2     4  ILE4        0.2616
     16  O        -15.2170   23.3500   21.7970 O.2     4  ILE4       -0.2715
     17  CB       -13.1790   24.5010   24.2680 C.3     4  ILE4        0.0290
     18  CG1      -12.8550   25.8360   23.5710 C.3     4  ILE4        0.0022
     19  CG2      -12.1450   24.2050   25.3390 C.3     4  ILE4        0.0023
     20  CD1      -11.3490   26.0990   23.2810 C.3     4  ILE4        0.0001
     21  N        -15.4520   22.4220   23.8540 N.am    5  HIS5       -0.1960
     22  CA       -16.8950   22.1630   23.7960 C.3     5  HIS5        0.1769
     23  C        -17.6620   23.4880   23.9480 C.2     5  HIS5        0.2462
     24  O        -17.1560   24.4040   24.5910 O.2     5  HIS5       -0.2730
     25  CB       -17.2560   21.1920   24.9300 C.3     5  HIS5        0.0744
     26  CG       -18.6980   20.7940   24.9690 C.2     5  HIS5        0.0653
     27  ND1      -19.2320   19.8390   24.1290 N.2     5  HIS5       -0.2310
     28  CD2      -19.7160   21.2090   25.7610 C.3     5  HIS5        0.1683
     29  CE1      -20.5180   19.6930   24.3930 C.2     5  HIS5        0.1939
     30  NE2      -20.8380   20.5140   25.3780 N.2     5  HIS5       -0.2440
     31  N        -18.8690   23.6080   23.3430 N.am    6  PRO6       -0.2727
     32  CA       -19.6740   24.8300   23.5320 C.3     6  PRO6        0.1402
     33  C        -20.0240   25.1220   24.9940 C.2     6  PRO6        0.2269
     34  O        -20.3300   26.2540   25.3600 O.2     6  PRO6       -0.2865
     35  CB       -20.9580   24.5530   22.7310 C.3     6  PRO6        0.0296
     36  CG       -20.9000   23.1180   22.3320 C.3     6  PRO6        0.0237
     37  CD       -19.4540   22.7360   22.3100 C.3     6  PRO6        0.0939
@<TRIPOS>BOND
     1    12    11    1
     2    11    10   ar
     3    11     9   ar
     4    10     8   ar
     5     9     7   ar
     6     8     6   ar
     7     7     6   ar
     8     6     5    1
     9     5     2    1
    10     2     1    1
    11     2     3    1
    12     3     4    2
    13     3    13   am
    14    16    15    2
    15    13    14    1
    16    37    36    1
    17    37    31    1
    18    36    35    1
    19    35    32    1
    20    15    14    1
    21    15    21   am
    22    14    17    1
    23    20    18    1
    24    31    32    1
    25    31    23   am
    26    32    33    1
    27    18    17    1
    28    22    21    1
    29    22    23    1
    30    22    25    1
    31    23    24    2
    32    27    29    1
    33    27    26    2
    34    17    19    1
    35    29    30    2
    36    25    26    1
    37    26    28    1
    38    33    34    2
    39    30    28    1
