@<TRIPOS>MOLECULE
4aa2_III_P_1.pdb
 50 52 0 0 0
SMALL
GASTEIGER

@<TRIPOS>ATOM
      1  N         25.5220    9.3440   14.3110 N.3     6  ARG6       -0.1231
      2  CA        25.5600    8.7300   12.9450 C.3     6  ARG6        0.1679
      3  C         24.9820    7.3020   12.9490 C.2     6  ARG6        0.2434
      4  O         24.9070    6.6750   14.0160 O.2     6  ARG6       -0.2733
      5  CB        26.9970    8.7220   12.4140 C.3     6  ARG6        0.0321
      6  CG        27.1070    9.0270   10.9190 C.3     6  ARG6        0.0489
      7  CD        28.1380    8.1350   10.2310 C.3     6  ARG6        0.2205
      8  NE        29.4500    8.2470   10.8640 N.pl3   6  ARG6       -0.0865
      9  CZ        30.3670    9.1580   10.5470 C.cat   6  ARG6        0.5346
     10  NH1       30.1300   10.0490    9.5880 N.pl3   6  ARG6        0.1354
     11  NH2       31.5250    9.1790   11.1940 N.pl3   6  ARG6        0.1354
     12  N         24.5620    6.7850   11.7650 N.am    7  PRO7       -0.2718
     13  CA        24.0340    5.4210   11.6680 C.3     7  PRO7        0.1535
     14  C         25.0070    4.3470   12.1460 C.2     7  PRO7        0.2598
     15  O         26.2310    4.5170   12.0580 O.2     7  PRO7       -0.2715
     16  CB        23.7700    5.2440   10.1600 C.3     7  PRO7        0.0310
     17  CG        24.5390    6.3380    9.4930 C.3     7  PRO7        0.0237
     18  CD        24.4410    7.4720   10.4680 C.3     7  PRO7        0.0939
     19  N         24.4430    3.2490   12.6430 N.am    8  LYS8       -0.1964
     20  CA        25.2120    2.1170   13.1330 C.3     8  LYS8        0.1728
     21  C         25.2470    1.0480   12.0490 C.2     8  LYS8        0.2616
     22  O         24.1980    0.6370   11.5520 O.2     8  LYS8       -0.2715
     23  CB        24.5620    1.5540   14.3920 C.3     8  LYS8        0.0311
     24  CG        24.2060    2.5750   15.4670 C.3     8  LYS8        0.0038
     25  CD        25.2700    2.6340   16.5480 C.3     8  LYS8        0.0206
     26  CE        26.2060    3.7960   16.3580 C.3     8  LYS8        0.1093
     27  NZ        25.6340    5.0430   16.9210 N.3     8  LYS8       -0.1314
     28  N         26.4470    0.5920   11.7000 N.am    9  ILE9       -0.1964
     29  CA        26.6460   -0.2640   10.5250 C.3     9  ILE9        0.1712
     30  C         27.3650   -1.5950   10.8480 C.2     9  ILE9        0.2458
     31  O         28.0680   -1.6860   11.8580 O.2     9  ILE9       -0.2730
     32  CB        27.3870    0.5170    9.3990 C.3     9  ILE9        0.0289
     33  CG1       28.8170    0.8710    9.8180 C.3     9  ILE9        0.0022
     34  CG2       26.6170    1.7880    9.0240 C.3     9  ILE9        0.0023
     35  CD1       29.6410    1.4980    8.7160 C.3     9  ILE9        0.0001
     36  N         27.1940   -2.6320    9.9970 N.am   10  PRO10      -0.2716
     37  CA        27.8960   -3.8910   10.2480 C.3    10  PRO10       0.1521
     38  C         29.3980   -3.7390   10.0110 C.2    10  PRO10       0.2441
     39  O         29.8140   -2.7780    9.3500 O.2    10  PRO10      -0.2731
     40  CB        27.3100   -4.8520    9.1940 C.3    10  PRO10       0.0310
     41  CG        26.1910   -4.1320    8.5490 C.3    10  PRO10       0.0237
     42  CD        26.4520   -2.6810    8.7270 C.3    10  PRO10       0.0939
     43  N         30.2110   -4.6700   10.5510 N.am   11  PRO11      -0.2700
     44  CA        31.6500   -4.6520   10.3020 C.3    11  PRO11       0.1791
     45  C         31.9760   -4.8190    8.8200 C.2    11  PRO11       0.3825
     46  O         33.0810   -4.5050    8.3970 O.co2  11  PRO11      -0.2438
     47  CB        32.1640   -5.8630   11.0870 C.3    11  PRO11       0.0332
     48  CG        30.9730   -6.6830   11.3910 C.3    11  PRO11       0.0238
     49  CD        29.8440   -5.7270   11.5090 C.3    11  PRO11       0.0940
     50  OXT       31.1490   -5.2650    8.0230 O.co2  11  PRO11      -0.2438
@<TRIPOS>BOND
     1    50    45   ar
     2    46    45   ar
     3    41    42    1
     4    41    40    1
     5    35    33    1
     6    42    36    1
     7    45    44    1
     8    34    32    1
     9    40    37    1
    10    39    38    2
    11    32    33    1
    12    32    29    1
    13    17    16    1
    14    17    18    1
    15    10     9    1
    16    36    37    1
    17    36    30   am
    18    38    37    1
    19    38    43   am
    20    16    13    1
    21     7     8    1
    22     7     6    1
    23    44    43    1
    24    44    47    1
    25    18    12    1
    26    29    30    1
    27    29    28    1
    28     9     8    2
    29     9    11    1
    30    43    49    1
    31    30    31    2
    32     6     5    1
    33    47    48    1
    34    48    49    1
    35    22    21    2
    36    13    12    1
    37    13    14    1
    38    28    21   am
    39    12     3   am
    40    21    20    1
    41    15    14    2
    42    14    19   am
    43     5     2    1
    44    19    20    1
    45     2     3    1
    46     2     1    1
    47     3     4    2
    48    20    23    1
    49    23    24    1
    50    24    25    1
    51    26    25    1
    52    26    27    1
