@<TRIPOS>MOLECULE
4aa4_QC0_A_1.pdb
 33 37 0 0 0
SMALL
GASTEIGER

@<TRIPOS>ATOM
      1  C1        -1.6050    4.7270   28.7740 C.3   1356  QC01356     0.0897
      2  N2        -1.5040    3.9930   27.4690 N.3   1356  QC01356    -0.2691
      3  C3        -1.8150    2.5480   27.6680 C.3   1356  QC01356     0.0897
      4  C4        -1.7780    1.7820   26.3350 C.3   1356  QC01356     0.0901
      5  N5        -2.6960    2.4250   25.3660 N.3   1356  QC01356    -0.2644
      6  C6        -2.3770    3.8580   25.1680 C.3   1356  QC01356     0.0901
      7  C7        -2.4840    4.5830   26.5210 C.3   1356  QC01356     0.0897
      8  C8        -2.8100    1.6540   24.1920 C.3   1356  QC01356     0.1028
      9  C9        -2.7520    0.2420   24.3080 C.2   1356  QC01356    -0.0045
     10  C10       -2.8940   -0.5770   23.2110 C.2   1356  QC01356     0.0160
     11  C11       -3.0980    0.0220   21.9450 C.2   1356  QC01356     0.0819
     12  N12       -3.2000   -0.7290   20.8050 N.2   1356  QC01356    -0.2475
     13  C13       -3.4150   -0.2360   19.6040 C.3   1356  QC01356     0.2262
     14  N14       -3.5370    1.1240   19.4100 N.am  1356  QC01356    -0.2339
     15  C15       -3.8550    1.6790   18.1540 C.ar  1356  QC01356     0.0532
     16  C16       -2.9580    2.2330   17.2470 C.ar  1356  QC01356     0.0312
     17  C17       -3.4820    2.7730   16.0520 C.ar  1356  QC01356     0.0749
     18  N18       -2.6520    3.3420   15.0770 N.am  1356  QC01356    -0.1753
     19  C19       -1.3630    2.9840   14.9120 C.2   1356  QC01356     0.2722
     20  O20       -0.7530    2.1590   15.5780 O.2   1356  QC01356    -0.2679
     21  C21       -0.7200    3.6590   13.7990 C.ar  1356  QC01356     0.0960
     22  C22        0.3680    3.1150   12.9600 C.ar  1356  QC01356     0.0484
     23  C23        0.5310    4.1100   12.0580 C.ar  1356  QC01356     0.1799
     24  O24       -0.3270    5.1510   12.3070 O.2   1356  QC01356    -0.4472
     25  C25       -1.0880    4.8940   13.3380 C.ar  1356  QC01356     0.1843
     26  C26       -4.8520    2.7340   15.7450 C.ar  1356  QC01356     0.0164
     27  C27       -5.7200    2.1350   16.6440 C.ar  1356  QC01356    -0.0017
     28  C28       -5.2220    1.6300   17.8510 C.ar  1356  QC01356    -0.0080
     29  C29       -6.2750    1.0140   18.7780 C.3   1356  QC01356     0.0323
     30  C30       -3.4080    2.0020   20.4630 C.2   1356  QC01356     0.2553
     31  C32       -3.1820    1.4450   21.8280 C.2   1356  QC01356     0.0686
     32  C31       -3.0370    2.2510   22.9430 C.2   1356  QC01356     0.0000
     33  O31       -3.4780    3.2070   20.2630 O.2   1356  QC01356    -0.2695
@<TRIPOS>BOND
     1    23    24   ar
     2    23    22   ar
     3    24    25   ar
     4    22    21   ar
     5    25    21   ar
     6    21    19    1
     7    19    18   am
     8    19    20    2
     9    18    17    1
    10    26    17   ar
    11    26    27   ar
    12    17    16   ar
    13    27    28   ar
    14    16    15   ar
    15    28    15   ar
    16    28    29    1
    17    15    14    1
    18    14    13    1
    19    14    30   am
    20    13    12    1
    21    33    30    2
    22    30    31    1
    23    12    11    2
    24    31    11    1
    25    31    32    2
    26    11    10    1
    27    32     8    1
    28    10     9    2
    29     8     9    1
    30     8     5    1
    31     6     5    1
    32     6     7    1
    33     5     4    1
    34     4     3    1
    35     7     2    1
    36     2     3    1
    37     2     1    1
