@<TRIPOS>MOLECULE
4aa5_NQB_A_1.pdb
 31 35 0 0 0
SMALL
GASTEIGER

@<TRIPOS>ATOM
      1  C1        -1.8880    0.9780   26.3390 C.3   1353  NQB1353     0.1081
      2  C2        -1.0510    1.8380   27.3070 C.3   1353  NQB1353     0.0938
      3  C8        -1.0950    3.8890   28.7120 C.3   1353  NQB1353     0.0897
      4  C9        -2.9130    1.5970   22.7000 C.2   1353  NQB1353     0.0031
      5  C10       -2.7100    0.9730   23.9540 C.2   1353  NQB1353     0.0445
      6  C11       -2.7410   -0.4370   23.9670 C.2   1353  NQB1353     0.0154
      7  C12       -2.9340   -1.2150   22.8170 C.2   1353  NQB1353     0.0164
      8  C14       -2.4940    1.3950   17.0060 C.ar  1353  NQB1353     0.0192
      9  C15       -2.7190    1.9480   15.7260 C.ar  1353  NQB1353     0.0563
     10  C16       -4.0530    2.0670   15.2410 C.ar  1353  NQB1353     0.0043
     11  C19       -1.4930    2.2910   14.9380 C.2   1353  NQB1353     0.2648
     12  C20       -0.4810    3.5000   12.9720 C.3   1353  NQB1353     0.0957
     13  C21       -0.6000    3.2540   11.4870 C.3   1353  NQB1353     0.0234
     14  C22        0.3790    2.4760   12.3290 C.3   1353  NQB1353     0.0234
     15  N29       -3.3920    0.5290   19.1270 N.am  1353  NQB1353    -0.2369
     16  C30       -3.2740    1.4280   20.1820 C.2   1353  NQB1353     0.2401
     17  N3        -1.7190    3.1280   27.6270 N.3   1353  NQB1353    -0.2686
     18  C4        -1.8140    3.9390   26.4010 C.3   1353  NQB1353     0.0938
     19  C5        -2.4380    3.2220   25.1550 C.3   1353  NQB1353     0.1081
     20  C17       -5.1120    1.6920   16.0560 C.ar  1353  NQB1353    -0.0029
     21  C18       -4.9010    1.1660   17.3500 C.ar  1353  NQB1353    -0.0081
     22  C23       -6.0520    0.7470   18.2100 C.3   1353  NQB1353     0.0323
     23  O24       -0.4790    1.7730   15.3020 O.2   1353  NQB1353    -0.2684
     24  C13       -3.5770    1.0110   17.8070 C.ar  1353  NQB1353     0.0518
     25  C25       -3.0980    0.8210   21.5290 C.3   1353  NQB1353     0.1398
     26  C26       -3.1110   -0.5930   21.5900 C.2   1353  NQB1353     0.0682
     27  N27       -3.2850   -1.4150   20.4920 N.2   1353  NQB1353    -0.2512
     28  C28       -3.4000   -0.8370   19.3480 C.3   1353  NQB1353     0.2256
     29  N5        -2.4970    1.7220   25.1670 N.pl3 1353  NQB1353    -0.3049
     30  O29       -3.2420    2.6220   20.0660 O.2   1353  NQB1353    -0.2737
     31  N32       -1.5610    3.1110   13.8350 N.am  1353  NQB1353    -0.2034
@<TRIPOS>BOND
     1    13    14    1
     2    13    12    1
     3    14    12    1
     4    12    31    1
     5    31    11   am
     6    11    23    2
     7    11     9    1
     8    10     9   ar
     9    10    20   ar
    10     9     8   ar
    11    20    21   ar
    12     8    24   ar
    13    21    24   ar
    14    21    22    1
    15    24    15    1
    16    15    28    1
    17    15    16   am
    18    28    27    1
    19    30    16    2
    20    16    25    1
    21    27    26    2
    22    25    26    1
    23    25     4    1
    24    26     7    1
    25     4     5    2
    26     7     6    2
    27     5     6    1
    28     5    29    1
    29    19    29    1
    30    19    18    1
    31    29     1    1
    32     1     2    1
    33    18    17    1
    34     2    17    1
    35    17     3    1
