@<TRIPOS>MOLECULE
4aa7_R82_A_1.pdb
 27 29 0 0 0
SMALL
GASTEIGER

@<TRIPOS>ATOM
      1  C1        45.1510    7.4410   15.7540 C.3   1454  R821454     0.2525
      2  O2        45.9100    8.6050   15.3170 O.3   1454  R821454    -0.4700
      3  C3        46.2320    9.4270   16.3590 C.ar  1454  R821454     0.1570
      4  C4        46.1030    8.9770   17.6800 C.ar  1454  R821454     0.0765
      5  C5        46.4520    9.8220   18.7770 C.ar  1454  R821454     0.1606
      6  O6        46.3360    9.3870   20.1220 O.3   1454  R821454    -0.4700
      7  C7        45.8610    8.0690   20.4100 C.3   1454  R821454     0.2525
      8  C8        46.9010   11.1510   18.5230 C.ar  1454  R821454     0.1606
      9  C9        47.0230   11.5750   17.1690 C.ar  1454  R821454     0.0430
     10  C10       46.6480   10.7440   16.0850 C.ar  1454  R821454     0.1087
     11  N11       46.7730   11.1960   14.7050 N.am  1454  R821454    -0.1761
     12  C12       46.7670   12.4960   14.2750 C.2   1454  R821454     0.2462
     13  O13       46.5770   13.5000   14.9860 O.2   1454  R821454    -0.2730
     14  C14       47.0020   12.7060   12.8030 C.3   1454  R821454     0.0968
     15  S15       47.4190   12.2620   19.8660 S.O2  1454  R821454     0.0795
     16  O16       46.3790   12.4180   20.8600 O.2   1454  R821454    -0.1496
     17  O17       48.0180   13.3480   19.1800 O.2   1454  R821454    -0.1496
     18  N18       48.6620   11.3850   20.5190 N.pl3 1454  R821454    -0.1922
     19  C19       48.6600   10.8020   21.8950 C.3   1454  R821454     0.1005
     20  C20       49.3000   11.6310   23.0080 C.3   1454  R821454     0.0237
     21  C21       49.2850    9.3960   21.6870 C.3   1454  R821454     0.0492
     22  C22       49.9910    9.4990   20.3560 C.ar  1454  R821454    -0.0056
     23  C23       50.8690    8.6010   19.7530 C.ar  1454  R821454    -0.0029
     24  C24       51.3950    8.9680   18.5310 C.ar  1454  R821454    -0.0002
     25  C25       51.0730   10.1750   17.9130 C.ar  1454  R821454     0.0013
     26  C26       50.1860   11.0740   18.4910 C.ar  1454  R821454     0.0158
     27  C27       49.6450   10.7500   19.7540 C.ar  1454  R821454     0.0648
@<TRIPOS>BOND
     1    14    12    1
     2    12    11   am
     3    12    13    2
     4    11    10    1
     5     2     1    1
     6     2     3    1
     7    10     3   ar
     8    10     9   ar
     9     3     4   ar
    10     9     8   ar
    11     4     5   ar
    12    25    26   ar
    13    25    24   ar
    14    26    27   ar
    15     8     5   ar
    16     8    15    1
    17    24    23   ar
    18     5     6    1
    19    17    15    2
    20    23    22   ar
    21    27    22   ar
    22    27    18    1
    23    15    18    1
    24    15    16    2
    25     6     7    1
    26    22    21    1
    27    18    19    1
    28    21    19    1
    29    19    20    1
