@<TRIPOS>MOLECULE
4aaa_DKI_A_1.pdb
 28 30 0 0 0
SMALL
GASTEIGER

@<TRIPOS>ATOM
      1  FAF       34.0090    8.4610   75.1160 F     500  DKI500     -0.2027
      2  CAU       34.3390    9.6970   74.7550 C.ar  500  DKI500      0.1575
      3  CAI       35.3500    9.8540   73.7520 C.ar  500  DKI500      0.0311
      4  CAH       35.6810   11.1130   73.3550 C.ar  500  DKI500      0.0047
      5  CAJ       35.1150   12.2120   73.9600 C.ar  500  DKI500      0.0311
      6  CAV       34.1380   11.9920   74.9380 C.ar  500  DKI500      0.1575
      7  FAG       33.5850   13.1300   75.4720 F     500  DKI500     -0.2027
      8  CAZ       33.7840   10.7630   75.3660 C.ar  500  DKI500      0.1271
      9  NAQ       32.7900   10.6090   76.3300 N.am  500  DKI500     -0.1854
     10  CAS       32.9440    9.9450   77.4680 C.2   500  DKI500      0.1862
     11  SAE       34.3210    9.2880   78.1190 S.2   500  DKI500     -0.0145
     12  NBA       31.8040   10.0950   78.2560 N.am  500  DKI500     -0.1152
     13  NAP       30.7170   10.8450   77.8050 N.2   500  DKI500     -0.0877
     14  CAT       31.5070    9.6350   79.5540 C.2   500  DKI500      0.3142
     15  NAA       32.2840    8.9100   80.3060 N.pl3 500  DKI500     -0.0755
     16  NAO       30.2890   10.0540   79.8920 N.2   500  DKI500     -0.2988
     17  CAX       29.8400   10.7910   78.8200 C.1   500  DKI500      0.1878
     18  NAR       28.6190   11.3810   78.8250 N.pl3 500  DKI500     -0.1347
     19  CAW       27.9440   12.0830   77.8840 C.ar  500  DKI500      0.0827
     20  CAL       26.5790   12.3950   78.1000 C.ar  500  DKI500      0.0187
     21  CAN       25.8310   13.0800   77.1050 C.ar  500  DKI500      0.0214
     22  CAK       28.5270   12.4390   76.6470 C.ar  500  DKI500      0.0187
     23  CAM       27.7360   13.0880   75.6800 C.ar  500  DKI500      0.0214
     24  CAY       26.4370   13.4150   75.8730 C.ar  500  DKI500      0.1251
     25  SBB       25.4980   14.2180   74.6570 S.O2  500  DKI500      0.0935
     26  OAC       24.1900   13.8260   74.9250 O.2   500  DKI500     -0.1503
     27  OAD       26.1620   13.9720   73.4180 O.2   500  DKI500     -0.1503
     28  NAB       25.6450   15.8050   74.8720 N.3   500  DKI500      0.0392
@<TRIPOS>BOND
     1     4     3   ar
     2     4     5   ar
     3    27    25    2
     4     3     2   ar
     5     5     6   ar
     6    25    28    1
     7    25    26    2
     8    25    24    1
     9     2     1    1
    10     2     8   ar
    11     6     8   ar
    12     6     7    1
    13     8     9    1
    14    23    24   ar
    15    23    22   ar
    16    24    21   ar
    17     9    10    1
    18    22    19   ar
    19    21    20   ar
    20    10    11    2
    21    10    12    1
    22    13    12    1
    23    13    17    2
    24    19    20   ar
    25    19    18    1
    26    12    14    1
    27    17    18    1
    28    17    16    2
    29    14    16    2
    30    14    15    1
