@<TRIPOS>MOLECULE
4aac_AAV_A_1.pdb
 33 37 0 0 0
SMALL
GASTEIGER

@<TRIPOS>ATOM
      1  C1        -1.3550    4.3410   28.7110 C.3   1360  AAV1360     0.0897
      2  N2        -1.3390    3.6250   27.4340 N.3   1360  AAV1360    -0.2686
      3  C3        -1.5470    2.1630   27.7190 C.3   1360  AAV1360     0.0938
      4  C4        -1.6820    1.3900   26.3920 C.3   1360  AAV1360     0.1081
      5  N5        -2.6900    2.0010   25.4850 N.pl3 1360  AAV1360    -0.3049
      6  C6        -2.3690    3.4190   25.1930 C.3   1360  AAV1360     0.1081
      7  C7        -2.3940    4.1700   26.5420 C.3   1360  AAV1360     0.0938
      8  C8        -2.8050    1.2250   24.3120 C.2   1360  AAV1360     0.0445
      9  C9        -2.8240   -0.1850   24.4250 C.2   1360  AAV1360     0.0154
     10  C10       -2.9610   -1.0100   23.3360 C.2   1360  AAV1360     0.0164
     11  C11       -3.0640   -0.4160   22.0710 C.2   1360  AAV1360     0.0682
     12  N12       -3.2070   -1.1900   20.9550 N.2   1360  AAV1360    -0.2512
     13  C13       -3.3930   -0.6730   19.7690 C.3   1360  AAV1360     0.2256
     14  N14       -3.3990    0.6830   19.5600 N.am  1360  AAV1360    -0.2369
     15  C15       -3.6030    1.1900   18.2760 C.ar  1360  AAV1360     0.0518
     16  C16       -2.5290    1.5860   17.4710 C.ar  1360  AAV1360     0.0192
     17  C17       -2.7860    2.1000   16.1950 C.ar  1360  AAV1360     0.0566
     18  N18       -2.1810    3.2720   14.1690 N.am  1360  AAV1360    -0.1534
     19  C19       -1.7600    2.5280   15.1910 C.2   1360  AAV1360     0.2704
     20  O20       -0.5740    2.2130   15.1870 O.2   1360  AAV1360    -0.2680
     21  C22       -1.3220    4.8510   12.3900 C.ar  1360  AAV1360     0.0830
     22  C23       -0.2530    4.7390   11.5590 C.ar  1360  AAV1360     0.2153
     23  O24        0.3530    3.5680   11.8350 O.2   1360  AAV1360    -0.3489
     24  C25       -1.2710    3.6680   13.1700 C.ar  1360  AAV1360     0.1965
     25  C26       -4.1280    2.2000   15.8030 C.ar  1360  AAV1360     0.0043
     26  C27       -5.1860    1.8530   16.6170 C.ar  1360  AAV1360    -0.0029
     27  C28       -4.9340    1.3230   17.8570 C.ar  1360  AAV1360    -0.0081
     28  C29       -6.1270    0.9280   18.7100 C.3   1360  AAV1360     0.0323
     29  N29       -0.2220    2.9800   12.7370 N.ar  1360  AAV1360    -0.0598
     30  C30       -3.2030    1.5650   20.5840 C.2   1360  AAV1360     0.2401
     31  C31       -2.9280    1.8280   23.0550 C.2   1360  AAV1360     0.0031
     32  O31       -3.2060    2.7730   20.3910 O.2   1360  AAV1360    -0.2737
     33  C32       -3.0430    1.0060   21.9400 C.3   1360  AAV1360     0.1398
@<TRIPOS>BOND
     1    22    23   ar
     2    22    21   ar
     3    23    29   ar
     4    21    24   ar
     5    29    24   ar
     6    24    18    1
     7    18    19   am
     8    20    19    2
     9    19    17    1
    10    25    17   ar
    11    25    26   ar
    12    17    16   ar
    13    26    27   ar
    14    16    15   ar
    15    27    15   ar
    16    27    28    1
    17    15    14    1
    18    14    13    1
    19    14    30   am
    20    13    12    1
    21    32    30    2
    22    30    33    1
    23    12    11    2
    24    33    11    1
    25    33    31    1
    26    11    10    1
    27    31     8    2
    28    10     9    2
    29     8     9    1
    30     8     5    1
    31     6     5    1
    32     6     7    1
    33     5     4    1
    34     4     3    1
    35     7     2    1
    36     2     3    1
    37     2     1    1
