@<TRIPOS>MOLECULE
4aah_PQQ_A_1.pdb
 24 26 0 0 0
SMALL
GASTEIGER

@<TRIPOS>ATOM
      1  N1       -16.3180   17.8870   13.4830 N.2   701  PQQ701     -0.3986
      2  C2       -15.8190   17.0940   12.4980 C.2   701  PQQ701      0.2104
      3  C2X      -16.6870   16.2520   11.8280 C.2   701  PQQ701      0.4168
      4  O2A      -17.8260   16.0630   12.2950 O.co2 701  PQQ701     -0.2377
      5  O2B      -16.2940   15.5230   10.9370 O.co2 701  PQQ701     -0.2377
      6  C3       -14.4440   17.2260   12.4470 C.2   701  PQQ701      0.0444
      7  C3A      -14.0800   18.1380   13.3810 C.2   701  PQQ701      0.0711
      8  C1A      -15.2300   18.5340   14.0170 C.2   701  PQQ701      0.1232
      9  C4       -12.8320   18.6280   13.7630 C.2   701  PQQ701      0.2387
     10  O4       -11.6360   18.2320   13.1860 O.2   701  PQQ701     -0.2830
     11  C5       -12.7460   19.5530   14.7720 C.2   701  PQQ701      0.2601
     12  O5       -11.5210   20.0370   15.1120 O.2   701  PQQ701     -0.2807
     13  C6A      -13.9120   19.9680   15.4600 C.2   701  PQQ701      0.1617
     14  N6       -13.6240   20.8670   16.4270 N.2   701  PQQ701     -0.3954
     15  C7       -14.6780   21.2940   17.1140 C.2   701  PQQ701      0.2103
     16  C7X      -14.3040   22.2310   18.0980 C.2   701  PQQ701      0.4168
     17  O7A      -13.1670   22.7650   18.0640 O.co2 701  PQQ701     -0.2377
     18  O7B      -15.1100   22.5580   19.0150 O.co2 701  PQQ701     -0.2377
     19  C8       -15.9570   20.8730   16.8340 C.2   701  PQQ701      0.0420
     20  C9       -16.2310   19.9240   15.8410 C.2   701  PQQ701      0.0734
     21  C9X      -17.5630   19.4830   15.6120 C.2   701  PQQ701      0.3847
     22  O9A      -18.4300   19.5970   16.4950 O.co2 701  PQQ701     -0.2409
     23  O9B      -17.9470   18.9300   14.5940 O.co2 701  PQQ701     -0.2409
     24  C9A      -15.1730   19.4460   15.0950 C.3   701  PQQ701      0.1366
@<TRIPOS>BOND
     1     5     3   ar
     2     3     4   ar
     3     3     2    1
     4     6     2    1
     5     6     7    2
     6     2     1    2
     7    10     9    1
     8     7     9    1
     9     7     8    1
    10     1     8    2
    11     9    11    2
    12     8    24    1
    13    23    21   ar
    14    11    12    1
    15    11    13    1
    16    24    13    1
    17    24    20    1
    18    13    14    2
    19    21    20    1
    20    21    22   ar
    21    20    19    2
    22    14    15    2
    23    19    15    1
    24    15    16    1
    25    17    16   ar
    26    16    18   ar
