@<TRIPOS>MOLECULE
4aal_HEC_A_1.pdb
 43 50 0 0 0
SMALL
GASTEIGER

@<TRIPOS>ATOM
      1  CHA      -27.8360  -46.5700   -3.5990 C.2   423  HEC423      0.0000
      2  CHB      -29.1780  -50.8960   -1.7550 C.2   423  HEC423      0.0000
      3  CHC      -32.2510  -48.4370    1.1930 C.2   423  HEC423      0.0000
      4  CHD      -31.9980  -44.7420   -1.9470 C.2   423  HEC423      0.0000
      5  C1A      -27.9270  -47.9360   -3.3260 C.ar  423  HEC423      0.0000
      6  C2A      -27.1240  -48.9500   -3.8980 C.ar  423  HEC423      0.0000
      7  C3A      -27.5270  -50.1360   -3.3490 C.ar  423  HEC423      0.0000
      8  C4A      -28.5540  -49.8950   -2.4760 C.ar  423  HEC423      0.0000
      9  CMA      -26.9570  -51.5260   -3.6220 C.3   423  HEC423      0.0000
     10  CAA      -25.9010  -48.8290   -4.8170 C.3   423  HEC423      0.0000
     11  CBA      -26.3060  -49.4160   -6.1500 C.3   423  HEC423      0.0000
     12  CGA      -25.0800  -49.2800   -7.0450 C.2   423  HEC423      0.0000
     13  O1A      -25.0680  -48.2570   -7.6810 O.co2 423  HEC423      0.0000
     14  O2A      -24.1220  -50.1200   -7.1540 O.co2 423  HEC423      0.0000
     15  C1B      -30.0470  -50.6290   -0.6590 C.2   423  HEC423      0.0000
     16  C2B      -30.5060  -51.5490    0.3050 C.2   423  HEC423      0.0000
     17  C3B      -31.3300  -50.8480    1.1720 C.2   423  HEC423      0.0000
     18  C4B      -31.4710  -49.4870    0.6390 C.2   423  HEC423      0.0000
     19  CMB      -30.0520  -53.0130    0.3360 C.3   423  HEC423      0.0000
     20  CAB      -32.0640  -51.2820    2.3870 C.3   423  HEC423      0.0000
     21  CBB      -31.1780  -51.4890    3.4430 C.3   423  HEC423      0.0000
     22  C1C      -32.5400  -47.2520    0.4920 C.ar  423  HEC423      0.0000
     23  C2C      -33.6260  -46.4220    0.7290 C.ar  423  HEC423      0.0000
     24  C3C      -33.5670  -45.3550   -0.1680 C.ar  423  HEC423      0.0000
     25  C4C      -32.4270  -45.6050   -0.9580 C.ar  423  HEC423      0.0000
     26  CMC      -34.6410  -46.6550    1.8470 C.3   423  HEC423      0.0000
     27  CAC      -34.4630  -44.1490   -0.3380 C.3   423  HEC423      0.0000
     28  CBC      -34.9560  -43.3800    0.7310 C.3   423  HEC423      0.0000
     29  C1D      -30.7410  -44.9380   -2.5530 C.2   423  HEC423      0.0000
     30  C2D      -30.1120  -43.8750   -3.3600 C.2   423  HEC423      0.0000
     31  C3D      -28.9560  -44.4070   -3.7800 C.2   423  HEC423      0.0000
     32  C4D      -28.8830  -45.7460   -3.2720 C.2   423  HEC423      0.0000
     33  CMD      -30.6540  -42.4520   -3.5920 C.3   423  HEC423      0.0000
     34  CAD      -27.8810  -43.6950   -4.5970 C.3   423  HEC423      0.0000
     35  CBD      -26.9650  -43.0280   -3.5090 C.3   423  HEC423      0.0000
     36  CGD      -25.6490  -42.4420   -4.0960 C.2   423  HEC423      0.0000
     37  O1D      -24.7370  -43.1050   -4.6050 O.co2 423  HEC423      0.0000
     38  O2D      -25.5100  -41.1870   -4.1570 O.co2 423  HEC423      0.0000
     39  NA       -28.8260  -48.5560   -2.4890 N.ar  423  HEC423      0.0000
     40  NB       -30.6650  -49.4810   -0.3800 N.2   423  HEC423      0.0000
     41  NC       -31.8980  -46.7670   -0.5620 N.ar  423  HEC423      0.0000
     42  ND       -30.0050  -46.0750   -2.5390 N.2   423  HEC423      0.0000
     43 FE        -30.3130  -47.6690   -1.5480 Fe    423  HEC423      0.0000
@<TRIPOS>BOND
     1    13    12   ar
     2    14    12   ar
     3    12    11    1
     4    11    10    1
     5    10     6    1
     6    37    36   ar
     7    34    31    1
     8    34    35    1
     9    38    36   ar
    10    36    35    1
    11     6     7   ar
    12     6     5   ar
    13    31    30    2
    14    31    32    1
    15     9     7    1
    16     1     5    2
    17     1    32    1
    18    33    30    1
    19    30    29    1
    20     7     8   ar
    21     5    39   ar
    22    32    42    2
    23    29    42    1
    24    29     4    2
    25    42    43    1
    26    39     8   ar
    27    39    43    1
    28     8     2    2
    29     4    25    1
    30     2    15    1
    31    43    41    1
    32    43    40    1
    33    25    41   ar
    34    25    24   ar
    35    15    40    2
    36    15    16    1
    37    41    22   ar
    38    40    18    1
    39    27    24    1
    40    27    28    1
    41    24    23   ar
    42    16    19    1
    43    16    17    2
    44    22    23   ar
    45    22     3    1
    46    18    17    1
    47    18     3    2
    48    23    26    1
    49    17    20    1
    50    20    21    1
