@<TRIPOS>MOLECULE
4aam_HEC_A_1.pdb
 43 50 0 0 0
SMALL
GASTEIGER

@<TRIPOS>ATOM
      1 FE         -5.5780   -4.2100  -12.0070 Fe    400  HEC400      0.0000
      2  CHA       -5.2580   -4.6830  -15.3320 C.2   400  HEC400      0.0000
      3  CHB       -6.9690   -1.1210  -12.4410 C.2   400  HEC400      0.0000
      4  CHC       -6.8000   -4.3040   -8.7670 C.2   400  HEC400      0.0000
      5  CHD       -3.5710   -6.8740  -11.3810 C.2   400  HEC400      0.0000
      6  NA        -5.9540   -3.0850  -13.5730 N.ar  400  HEC400      0.0000
      7  C1A       -5.7740   -3.4670  -14.8740 C.ar  400  HEC400      0.0000
      8  C2A       -6.1410   -2.3670  -15.6990 C.ar  400  HEC400      0.0000
      9  C3A       -6.6080   -1.3870  -14.8850 C.ar  400  HEC400      0.0000
     10  C4A       -6.5340   -1.8330  -13.5450 C.ar  400  HEC400      0.0000
     11  CMA       -7.1580   -0.0490  -15.3080 C.3   400  HEC400      0.0000
     12  CAA       -6.0340   -2.3100  -17.2180 C.3   400  HEC400      0.0000
     13  CBA       -4.9590   -1.3020  -17.6740 C.3   400  HEC400      0.0000
     14  CGA       -4.5490   -1.4970  -19.1310 C.2   400  HEC400      0.0000
     15  O1A       -3.7450   -0.6400  -19.6710 O.co2 400  HEC400      0.0000
     16  O2A       -4.9710   -2.5110  -19.8060 O.co2 400  HEC400      0.0000
     17  C1B       -7.2690   -1.6810  -11.1760 C.2   400  HEC400      0.0000
     18  C2B       -8.0520   -1.1400  -10.1170 C.2   400  HEC400      0.0000
     19  C3B       -8.0050   -2.0510   -9.0890 C.2   400  HEC400      0.0000
     20  C4B       -7.1840   -3.1760   -9.5320 C.2   400  HEC400      0.0000
     21  CMB       -8.7890    0.1820  -10.1980 C.3   400  HEC400      0.0000
     22  CAB       -8.6960   -2.0390   -7.8020 C.3   400  HEC400      0.0000
     23  CBB      -10.0710   -2.1040   -7.9770 C.3   400  HEC400      0.0000
     24  NC        -5.2140   -5.3930  -10.3440 N.ar  400  HEC400      0.0000
     25  C1C       -5.7880   -5.2260   -9.1070 C.ar  400  HEC400      0.0000
     26  C2C       -5.1160   -6.0960   -8.2140 C.ar  400  HEC400      0.0000
     27  C3C       -4.2040   -6.8410   -8.9560 C.ar  400  HEC400      0.0000
     28  C4C       -4.3230   -6.4080  -10.3200 C.ar  400  HEC400      0.0000
     29  CMC       -5.4150   -6.1360   -6.7030 C.3   400  HEC400      0.0000
     30  CAC       -3.2320   -7.8940   -8.5320 C.2   400  HEC400      0.0000
     31  CBC       -3.4870   -8.8810   -7.6600 C.2   400  HEC400      0.0000
     32  ND        -4.6010   -5.4410  -13.1020 N.2   400  HEC400      0.0000
     33  C1D       -3.9120   -6.5300  -12.6960 C.2   400  HEC400      0.0000
     34  C2D       -3.4400   -7.3610  -13.8390 C.2   400  HEC400      0.0000
     35  C3D       -3.9230   -6.7380  -14.9350 C.2   400  HEC400      0.0000
     36  C4D       -4.6940   -5.5690  -14.4290 C.2   400  HEC400      0.0000
     37  CMD       -2.5840   -8.6300  -13.8200 C.3   400  HEC400      0.0000
     38  CAD       -3.7480   -7.1970  -16.3820 C.3   400  HEC400      0.0000
     39  CBD       -4.8700   -8.2250  -16.5710 C.3   400  HEC400      0.0000
     40  CGD       -5.2400   -8.5660  -17.9940 C.2   400  HEC400      0.0000
     41  O1D       -5.8860   -9.6310  -18.2680 O.co2 400  HEC400      0.0000
     42  O2D       -4.9440   -7.7850  -18.9600 O.co2 400  HEC400      0.0000
     43  NB        -6.7780   -2.7800  -10.7150 N.2   400  HEC400      0.0000
@<TRIPOS>BOND
     1    16    14   ar
     2    15    14   ar
     3    14    13    1
     4    42    40   ar
     5    41    40   ar
     6    40    39    1
     7    13    12    1
     8    12     8    1
     9    39    38    1
    10    38    35    1
    11     8     9   ar
    12     8     7   ar
    13     2     7    2
    14     2    36    1
    15    11     9    1
    16    35    36    1
    17    35    34    2
    18     9    10   ar
    19     7     6   ar
    20    36    32    2
    21    34    37    1
    22    34    33    1
    23     6    10   ar
    24     6     1    1
    25    10     3    2
    26    32    33    1
    27    32     1    1
    28    33     5    2
    29     3    17    1
    30     1    43    1
    31     1    24    1
    32     5    28    1
    33    17    43    2
    34    17    18    1
    35    43    20    1
    36    24    28   ar
    37    24    25   ar
    38    28    27   ar
    39    21    18    1
    40    18    19    2
    41    20    19    1
    42    20     4    2
    43    25     4    1
    44    25    26   ar
    45    19    22    1
    46    27    30    1
    47    27    26   ar
    48    30    31    2
    49    26    29    1
    50    23    22    1
