@<TRIPOS>MOLECULE
4aan_HEC_A_1.pdb
 43 50 0 0 0
SMALL
GASTEIGER

@<TRIPOS>ATOM
      1  CHA        6.0340  -29.3880  -23.6310 C.2   400  HEC400      0.0000
      2  CHB        7.7780  -25.9180  -26.5160 C.2   400  HEC400      0.0000
      3  CHC        7.4230  -29.0270  -30.2380 C.2   400  HEC400      0.0000
      4  CHD        4.3040  -31.5720  -27.5720 C.2   400  HEC400      0.0000
      5  C1A        6.4940  -28.1630  -24.0550 C.2   400  HEC400      0.0000
      6  C2A        6.8730  -27.0220  -23.2690 C.2   400  HEC400      0.0000
      7  C3A        7.3080  -26.0420  -24.0680 C.2   400  HEC400      0.0000
      8  C4A        7.2670  -26.5830  -25.4070 C.2   400  HEC400      0.0000
      9  CMA        7.8310  -24.6640  -23.6820 C.3   400  HEC400      0.0000
     10  CAA        6.7980  -26.9870  -21.7580 C.3   400  HEC400      0.0000
     11  CBA        5.7410  -25.9990  -21.2470 C.3   400  HEC400      0.0000
     12  CGA        5.5330  -26.1280  -19.7400 C.2   400  HEC400      0.0000
     13  O1A        4.6160  -25.3670  -19.2000 O.co2 400  HEC400      0.0000
     14  O2A        6.1230  -27.0240  -19.0450 O.co2 400  HEC400      0.0000
     15  C1B        7.9530  -26.5440  -27.7830 C.ar  400  HEC400      0.0000
     16  C2B        8.7670  -25.9980  -28.8400 C.ar  400  HEC400      0.0000
     17  C3B        8.6970  -26.9030  -29.8690 C.ar  400  HEC400      0.0000
     18  C4B        7.8320  -28.0110  -29.4440 C.ar  400  HEC400      0.0000
     19  CMB        9.5060  -24.6990  -28.7680 C.3   400  HEC400      0.0000
     20  CAB        9.3810  -26.8710  -31.2040 C.3   400  HEC400      0.0000
     21  CBB       10.8590  -26.9220  -31.1300 C.3   400  HEC400      0.0000
     22  C1C        6.4830  -29.9970  -29.8450 C.2   400  HEC400      0.0000
     23  C2C        5.8270  -30.8800  -30.7430 C.2   400  HEC400      0.0000
     24  C3C        4.8950  -31.6060  -30.0070 C.2   400  HEC400      0.0000
     25  C4C        5.0090  -31.1560  -28.6600 C.2   400  HEC400      0.0000
     26  CMC        6.0920  -30.9320  -32.2300 C.3   400  HEC400      0.0000
     27  CAC        3.8120  -32.4590  -30.5110 C.3   400  HEC400      0.0000
     28  CBC        4.1670  -33.6440  -31.2800 C.3   400  HEC400      0.0000
     29  C1D        4.6270  -31.2950  -26.2280 C.ar  400  HEC400      0.0000
     30  C2D        4.2000  -32.1070  -25.0830 C.ar  400  HEC400      0.0000
     31  C3D        4.7520  -31.5300  -24.0150 C.ar  400  HEC400      0.0000
     32  C4D        5.4550  -30.3320  -24.4730 C.ar  400  HEC400      0.0000
     33  CMD        3.3470  -33.3910  -25.1350 C.3   400  HEC400      0.0000
     34  CAD        4.7200  -31.9980  -22.5780 C.3   400  HEC400      0.0000
     35  CBD        5.7750  -33.1570  -22.4170 C.3   400  HEC400      0.0000
     36  CGD        6.2030  -33.5170  -20.9760 C.2   400  HEC400      0.0000
     37  O1D        5.8140  -32.7760  -20.0560 O.co2 400  HEC400      0.0000
     38  O2D        6.9460  -34.5090  -20.8390 O.co2 400  HEC400      0.0000
     39  NA         6.7420  -27.8310  -25.3980 N.2   400  HEC400      0.0000
     40  NB         7.4130  -27.7410  -28.1810 N.ar  400  HEC400      0.0000
     41  NC         5.9200  -30.1120  -28.5840 N.2   400  HEC400      0.0000
     42  ND         5.3190  -30.1940  -25.8140 N.ar  400  HEC400      0.0000
     43 FE          6.2900  -28.9530  -26.9880 Fe    400  HEC400      0.0000
@<TRIPOS>BOND
     1    26    23    1
     2    28    27    1
     3    20    21    1
     4    20    17    1
     5    23    24    2
     6    23    22    1
     7    27    24    1
     8     3    22    2
     9     3    18    1
    10    24    25    1
    11    17    18   ar
    12    17    16   ar
    13    22    41    1
    14    18    40   ar
    15    16    19    1
    16    16    15   ar
    17    25    41    2
    18    25     4    1
    19    41    43    1
    20    40    15   ar
    21    40    43    1
    22    15     2    1
    23     4    29    2
    24    43    42    1
    25    43    39    1
    26     2     8    2
    27    29    42   ar
    28    29    30   ar
    29    42    32   ar
    30     8    39    1
    31     8     7    1
    32    39     5    2
    33    33    30    1
    34    30    31   ar
    35    32    31   ar
    36    32     1    2
    37     7     9    1
    38     7     6    2
    39     5     1    1
    40     5     6    1
    41    31    34    1
    42     6    10    1
    43    34    35    1
    44    35    36    1
    45    10    11    1
    46    11    12    1
    47    36    38   ar
    48    36    37   ar
    49    12    13   ar
    50    12    14   ar
