@<TRIPOS>MOLECULE
4aao_HEC_A_1.pdb
 43 50 0 0 0
SMALL
GASTEIGER

@<TRIPOS>ATOM
      1 FE         29.3790   48.0680   -1.5270 Fe    400  HEC400      0.0000
      2  CHA       26.7900   47.0060   -3.4650 C.2   400  HEC400      0.0000
      3  CHB       28.1680   51.3610   -1.6600 C.2   400  HEC400      0.0000
      4  CHC       31.4510   48.9280    1.0160 C.2   400  HEC400      0.0000
      5  CHD       30.9160   45.0350   -1.7990 C.2   400  HEC400      0.0000
      6  NA        27.8250   49.0000   -2.4010 N.ar  400  HEC400      0.0000
      7  C1A       26.9200   48.3640   -3.2340 C.ar  400  HEC400      0.0000
      8  C2A       26.1540   49.3900   -3.8310 C.ar  400  HEC400      0.0000
      9  C3A       26.5150   50.5990   -3.3070 C.ar  400  HEC400      0.0000
     10  C4A       27.5160   50.3490   -2.3600 C.ar  400  HEC400      0.0000
     11  CMA       25.9150   51.9830   -3.6450 C.3   400  HEC400      0.0000
     12  CAA       25.0340   49.1930   -4.8510 C.3   400  HEC400      0.0000
     13  CBA       25.5250   49.8460   -6.1360 C.3   400  HEC400      0.0000
     14  CGA       24.4420   49.6910   -7.2340 C.2   400  HEC400      0.0000
     15  O1A       23.3840   50.3980   -7.2080 O.co2 400  HEC400      0.0000
     16  O2A       24.6610   48.8490   -8.1790 O.co2 400  HEC400      0.0000
     17  NB        29.7880   49.9900   -0.4570 N.2   400  HEC400      0.0000
     18  C1B       29.1310   51.1030   -0.6610 C.2   400  HEC400      0.0000
     19  C2B       29.6440   52.0220    0.3050 C.2   400  HEC400      0.0000
     20  C3B       30.5390   51.3340    1.0910 C.2   400  HEC400      0.0000
     21  C4B       30.6060   49.9550    0.5830 C.2   400  HEC400      0.0000
     22  CMB       29.2220   53.4730    0.3920 C.3   400  HEC400      0.0000
     23  CAB       31.2850   51.7910    2.2400 C.3   400  HEC400      0.0000
     24  CBB       30.4700   51.8870    3.3490 C.3   400  HEC400      0.0000
     25  NC        30.9640   47.1340   -0.5910 N.ar  400  HEC400      0.0000
     26  C1C       31.7030   47.6790    0.3910 C.ar  400  HEC400      0.0000
     27  C2C       32.7910   46.8000    0.6300 C.ar  400  HEC400      0.0000
     28  C3C       32.6100   45.6730   -0.1670 C.ar  400  HEC400      0.0000
     29  C4C       31.4250   45.9100   -0.8850 C.ar  400  HEC400      0.0000
     30  CMC       33.9180   47.0850    1.6090 C.3   400  HEC400      0.0000
     31  CAC       33.4320   44.4470   -0.3150 C.2   400  HEC400      0.0000
     32  CBC       33.9160   43.8010    0.7870 C.2   400  HEC400      0.0000
     33  ND        29.0000   46.4220   -2.3990 N.2   400  HEC400      0.0000
     34  C1D       29.7060   45.2830   -2.3930 C.2   400  HEC400      0.0000
     35  C2D       29.0450   44.2080   -3.1510 C.2   400  HEC400      0.0000
     36  C3D       27.8610   44.7340   -3.5620 C.2   400  HEC400      0.0000
     37  C4D       27.8400   46.1390   -3.0770 C.2   400  HEC400      0.0000
     38  CMD       29.5320   42.7580   -3.3330 C.3   400  HEC400      0.0000
     39  CAD       26.7930   44.0310   -4.3810 C.3   400  HEC400      0.0000
     40  CBD       25.7520   43.5760   -3.3240 C.3   400  HEC400      0.0000
     41  CGD       24.6100   42.7980   -3.9830 C.2   400  HEC400      0.0000
     42  O1D       23.9130   43.3100   -4.8740 O.co2 400  HEC400      0.0000
     43  O2D       24.3100   41.6090   -3.7400 O.co2 400  HEC400      0.0000
@<TRIPOS>BOND
     1    16    14   ar
     2    14    15   ar
     3    14    13    1
     4    13    12    1
     5    42    41   ar
     6    12     8    1
     7    39    36    1
     8    39    40    1
     9    41    43   ar
    10    41    40    1
    11     8     9   ar
    12     8     7   ar
    13    11     9    1
    14    36    35    2
    15    36    37    1
    16     2     7    2
    17     2    37    1
    18    38    35    1
    19     9    10   ar
    20     7     6   ar
    21    35    34    1
    22    37    33    2
    23     6    10   ar
    24     6     1    1
    25    33    34    1
    26    33     1    1
    27    34     5    2
    28    10     3    2
    29     5    29    1
    30     3    18    1
    31     1    25    1
    32     1    17    1
    33    29    25   ar
    34    29    28   ar
    35    18    17    2
    36    18    19    1
    37    25    26   ar
    38    17    21    1
    39    31    28    1
    40    31    32    2
    41    28    27   ar
    42    19    22    1
    43    19    20    2
    44    26    27   ar
    45    26     4    1
    46    21     4    2
    47    21    20    1
    48    27    30    1
    49    20    23    1
    50    23    24    1
