@<TRIPOS>MOLECULE
4aap_OGA_A_1.pdb
 10 9 0 0 0
SMALL
GASTEIGER

@<TRIPOS>ATOM
      1  C1        31.4410   -7.8760    2.9560 C.2   501  OGA501      0.4419
      2  C2        32.7890   -8.5430    3.1070 C.2   501  OGA501      0.3455
      3  C4        34.5460   -9.9880    2.1540 C.3   501  OGA501      0.2290
      4  C5        34.7000  -10.8770    0.9250 C.2   501  OGA501      0.3866
      5  O1        30.9740   -7.1790    3.8980 O.co2 501  OGA501     -0.2354
      6  O2        30.8170   -7.9960    1.9080 O.co2 501  OGA501     -0.2354
      7  O2'       33.4010   -8.3970    4.1750 O.2   501  OGA501     -0.2611
      8  O3        33.6810  -11.1680    0.2630 O.co2 501  OGA501     -0.2437
      9  N1        33.2290   -9.2780    2.0590 N.am  501  OGA501     -0.1838
     10  O4        35.8550  -11.2550    0.6480 O.co2 501  OGA501     -0.2437
@<TRIPOS>BOND
     1     8     4   ar
     2    10     4   ar
     3     4     3    1
     4     6     1   ar
     5     9     3    1
     6     9     2   am
     7     1     2    1
     8     1     5   ar
     9     2     7    2
