@<TRIPOS>MOLECULE
4aaq_ATP_A_1.pdb
 43 45 0 0 0
SMALL
GASTEIGER

@<TRIPOS>ATOM
      1  PG       -21.8690   38.6360   22.3620 P.3   1525  ATP1525     0.5373
      2  O1G      -21.9890   37.2620   21.7840 O.2   1525  ATP1525    -0.2221
      3  O2G      -20.5870   38.9450   23.0530 O.3   1525  ATP1525    -0.1143
      4  O3G      -23.1290   39.1590   23.0190 O.3   1525  ATP1525    -0.1143
      5  PB       -21.8370   41.0370   21.1020 P.3   1525  ATP1525     0.2277
      6  O1B      -22.2030   41.5390   22.5030 O.3   1525  ATP1525    -0.4368
      7  O2B      -20.5300   41.5830   20.5520 O.2   1525  ATP1525    -0.5168
      8  O3B      -21.7680   39.4290   20.9980 O.3   1525  ATP1525    -0.2258
      9  PA       -24.3140   40.9520   20.4490 P.3   1525  ATP1525     0.2182
     10  O1A      -24.5480   39.6890   19.7220 O.2   1525  ATP1525    -0.5170
     11  O2A      -24.6120   40.9900   21.9200 O.3   1525  ATP1525    -0.4371
     12  O3A      -22.9490   41.4610   20.0660 O.3   1525  ATP1525    -0.2700
     13  O5'      -25.1970   42.0360   19.7620 O.3   1525  ATP1525    -0.3246
     14  C5'      -25.1230   43.4080   20.2210 C.3   1525  ATP1525     0.0836
     15  C4'      -24.7680   44.3580   19.0700 C.3   1525  ATP1525     0.1131
     16  O4'      -25.9250   44.5430   18.1800 O.3   1525  ATP1525    -0.3474
     17  C3'      -24.4800   45.7640   19.6460 C.3   1525  ATP1525     0.1133
     18  O3'      -23.5550   46.5850   18.9120 O.3   1525  ATP1525    -0.3864
     19  C2'      -25.8920   46.3260   19.6650 C.3   1525  ATP1525     0.1266
     20  O2'      -25.9690   47.7290   19.7930 O.3   1525  ATP1525    -0.3849
     21  C1'      -26.3530   45.8790   18.3310 C.3   1525  ATP1525     0.1617
     22  N9       -27.7760   46.0210   18.2100 N.pl3 1525  ATP1525    -0.2234
     23  C8       -28.7610   45.4860   19.0010 C.2   1525  ATP1525     0.1451
     24  N7       -29.9720   45.8320   18.6240 N.2   1525  ATP1525    -0.3871
     25  C5       -29.7370   46.6750   17.5430 C.2   1525  ATP1525     0.2211
     26  C6       -30.5930   47.3830   16.6830 C.2   1525  ATP1525     0.2227
     27  N6       -31.9180   47.1940   16.6140 N.pl3 1525  ATP1525    -0.3300
     28  N1       -30.0400   48.2760   15.8350 N.2   1525  ATP1525    -0.3296
     29  C2       -28.7110   48.3930   15.8020 C.1   1525  ATP1525     0.0930
     30  N3       -27.8110   47.6130   16.3860 N.2   1525  ATP1525    -0.3287
     31  C4       -28.3880   46.8230   17.3070 C.2   1525  ATP1525     0.2354
     32 H5'1      -26.1070   43.6840   20.6570 H     1525  ATP1525     0.0591
     33 H5'2      -24.3700   43.5640   21.0360 H     1525  ATP1525     0.0591
     34  H4'      -23.8790   43.9970   18.5070 H     1525  ATP1525     0.0647
     35  H3'      -24.1080   45.6560   20.6890 H     1525  ATP1525     0.0647
     36 HO3'      -23.3970   47.3780   19.4800 H     1525  ATP1525     0.2100
     37  H2'      -26.4610   45.8480   20.4960 H     1525  ATP1525     0.0663
     38 HO2'      -25.4640   47.9160   20.6290 H     1525  ATP1525     0.2101
     39  H1'      -25.8110   46.4610   17.5450 H     1525  ATP1525     0.0841
     40  H8       -28.5190   44.8080   19.8250 H     1525  ATP1525     0.1149
     41  H2       -28.3110   49.1110   15.0750 H     1525  ATP1525     0.1751
     42  H62      -32.3590   46.6890   17.3510 H     1525  ATP1525     0.1448
     43  H61      -32.4230   47.9700   16.2090 H     1525  ATP1525     0.1448
@<TRIPOS>BOND
     1    41    29    1
     2    29    28    2
     3    29    30    2
     4    28    26    2
     5    43    27    1
     6    30    31    2
     7    27    26    1
     8    27    42    1
     9    26    25    1
    10    31    25    1
    11    31    22    1
    12    25    24    2
    13    39    21    1
    14    16    21    1
    15    16    15    1
    16    22    21    1
    17    22    23    1
    18    21    19    1
    19    34    15    1
    20    24    23    2
    21    18    36    1
    22    18    17    1
    23    23    40    1
    24    15    17    1
    25    15    14    1
    26    17    19    1
    27    17    35    1
    28    19    20    1
    29    19    37    1
    30    10     9    2
    31    13    14    1
    32    13     9    1
    33    20    38    1
    34    12     9    1
    35    12     5    1
    36    14    32    1
    37    14    33    1
    38     9    11    1
    39     7     5    2
    40     8     5    1
    41     8     1    1
    42     5     6    1
    43     2     1    2
    44     1     4    1
    45     1     3    1
