@<TRIPOS>MOLECULE
4aar_ATP_A_1.pdb
 43 45 0 0 0
SMALL
GASTEIGER

@<TRIPOS>ATOM
      1  PG       -21.6930   39.8570   23.0460 P.3   1525  ATP1525     0.5373
      2  O1G      -21.8680   38.4570   22.5340 O.2   1525  ATP1525    -0.2221
      3  O2G      -20.3740   40.1760   23.6620 O.3   1525  ATP1525    -0.1143
      4  O3G      -22.9130   40.4390   23.7270 O.3   1525  ATP1525    -0.1143
      5  PB       -21.6710   42.2060   21.6720 P.3   1525  ATP1525     0.2277
      6  O1B      -21.9980   42.7760   23.0560 O.3   1525  ATP1525    -0.4368
      7  O2B      -20.3730   42.7170   21.0700 O.2   1525  ATP1525    -0.5168
      8  O3B      -21.6240   40.5930   21.6470 O.3   1525  ATP1525    -0.2258
      9  PA       -24.1660   42.1080   21.0890 P.3   1525  ATP1525     0.2182
     10  O1A      -24.4260   40.8130   20.4290 O.2   1525  ATP1525    -0.5170
     11  O2A      -24.4270   42.2160   22.5630 O.3   1525  ATP1525    -0.4371
     12  O3A      -22.8090   42.5900   20.6470 O.3   1525  ATP1525    -0.2700
     13  O5'      -25.0650   43.1620   20.3720 O.3   1525  ATP1525    -0.3246
     14  C5'      -24.9460   44.5590   20.7300 C.3   1525  ATP1525     0.0836
     15  C4'      -24.5950   45.4180   19.5070 C.3   1525  ATP1525     0.1131
     16  O4'      -25.7630   45.5530   18.6220 O.3   1525  ATP1525    -0.3474
     17  C3'      -24.2850   46.8580   19.9740 C.3   1525  ATP1525     0.1133
     18  O3'      -23.3580   47.6120   19.1730 O.3   1525  ATP1525    -0.3864
     19  C2'      -25.6900   47.4390   19.9730 C.3   1525  ATP1525     0.1266
     20  O2'      -25.7480   48.8490   19.9940 O.3   1525  ATP1525    -0.3849
     21  C1'      -26.1840   46.8980   18.6880 C.3   1525  ATP1525     0.1617
     22  N9       -27.6100   47.0350   18.6000 N.pl3 1525  ATP1525    -0.2234
     23  C8       -28.5720   46.5380   19.4420 C.2   1525  ATP1525     0.1451
     24  N7       -29.7930   46.8670   19.0840 N.2   1525  ATP1525    -0.3871
     25  C5       -29.5900   47.6590   17.9600 C.2   1525  ATP1525     0.2211
     26  C6       -30.4720   48.3140   17.0830 C.2   1525  ATP1525     0.2227
     27  N6       -31.7990   48.1230   17.0630 N.pl3 1525  ATP1525    -0.3300
     28  N1       -29.9430   49.1510   16.1650 N.2   1525  ATP1525    -0.3296
     29  C2       -28.6150   49.2710   16.0920 C.1   1525  ATP1525     0.0930
     30  N3       -27.6970   48.5290   16.6980 N.2   1525  ATP1525    -0.3287
     31  C4       -28.2480   47.7950   17.6780 C.2   1525  ATP1525     0.2354
     32 H5'1      -25.9130   44.8910   21.1670 H     1525  ATP1525     0.0591
     33  H5'      -24.1710   44.7530   21.5170 H     1525  ATP1525     0.0591
     34  H4'      -23.7200   45.0050   18.9600 H     1525  ATP1525     0.0647
     35  H3'      -23.8980   46.8190   21.0180 H     1525  ATP1525     0.0647
     36 HO3'      -23.1930   48.4440   19.6780 H     1525  ATP1525     0.2100
     37  H2'      -26.2470   47.0360   20.8500 H     1525  ATP1525     0.0663
     38 HO2'      -25.2320   49.0890   20.8080 H     1525  ATP1525     0.2101
     39  H1'      -25.6650   47.4210   17.8490 H     1525  ATP1525     0.0841
     40  H8       -28.3060   45.8980   20.2880 H     1525  ATP1525     0.1149
     41  H62      -32.2240   47.6730   17.8440 H     1525  ATP1525     0.1448
     42  H61      -32.3110   48.8670   16.6110 H     1525  ATP1525     0.1448
     43  H2       -28.2340   49.9430   15.3140 H     1525  ATP1525     0.1751
@<TRIPOS>BOND
     1    43    29    1
     2    29    28    2
     3    29    30    2
     4    28    26    2
     5    42    27    1
     6    30    31    2
     7    27    26    1
     8    27    41    1
     9    26    25    1
    10    31    25    1
    11    31    22    1
    12    39    21    1
    13    25    24    2
    14    22    21    1
    15    22    23    1
    16    16    21    1
    17    16    15    1
    18    21    19    1
    19    34    15    1
    20    24    23    2
    21    18    36    1
    22    18    17    1
    23    23    40    1
    24    15    17    1
    25    15    14    1
    26    19    17    1
    27    19    20    1
    28    19    37    1
    29    17    35    1
    30    20    38    1
    31    13    14    1
    32    13     9    1
    33    10     9    2
    34    12     9    1
    35    12     5    1
    36    14    32    1
    37    14    33    1
    38     7     5    2
    39     9    11    1
    40     8     5    1
    41     8     1    1
    42     5     6    1
    43     2     1    2
    44     1     3    1
    45     1     4    1
