@<TRIPOS>MOLECULE
4aas_ATP_A_1.pdb
 31 33 0 0 0
SMALL
GASTEIGER

@<TRIPOS>ATOM
      1  PG       -22.8230   40.1110   23.7690 P.3   1527  ATP1527     0.5373
      2  O1G      -23.0380   38.6320   23.5260 O.2   1527  ATP1527    -0.2221
      3  O2G      -21.4760   40.4620   24.3370 O.3   1527  ATP1527    -0.1143
      4  O3G      -23.9840   40.6960   24.5830 O.3   1527  ATP1527    -0.1143
      5  PB       -22.8260   42.4270   22.4320 P.3   1527  ATP1527     0.2277
      6  O1B      -23.0220   42.9920   23.8490 O.3   1527  ATP1527    -0.4368
      7  O2B      -21.5650   42.9410   21.7590 O.2   1527  ATP1527    -0.5168
      8  O3B      -22.8570   40.8110   22.3440 O.3   1527  ATP1527    -0.2258
      9  PA       -25.3240   42.6320   22.0450 P.3   1527  ATP1527     0.2189
     10  O1A      -25.8760   41.4730   21.3320 O.2   1527  ATP1527    -0.5170
     11  O2A      -25.4850   42.6550   23.5420 O.3   1527  ATP1527    -0.4371
     12  O3A      -23.9690   42.9640   21.5100 O.3   1527  ATP1527    -0.2700
     13  O5'      -26.1010   43.8770   21.4890 O.3   1527  ATP1527    -0.3112
     14  C5'      -25.7040   45.2400   21.7900 C.3   1527  ATP1527     0.1813
     15  C4'      -25.4500   46.1270   20.5380 C.3   1527  ATP1527     0.1821
     16  O4'      -26.5840   46.0810   19.5820 O.3   1527  ATP1527    -0.3135
     17  C3'      -25.3320   47.6240   20.9590 C.3   1527  ATP1527     0.2184
     18  O3'      -24.3770   48.4470   20.2620 O.3   1527  ATP1527    -0.2174
     19  C2'      -26.7710   48.0730   20.7650 C.3   1527  ATP1527     0.2570
     20  O2'      -26.9590   49.4760   20.7040 O.3   1527  ATP1527    -0.2130
     21  C1'      -27.1260   47.3840   19.4750 C.3   1527  ATP1527     0.3186
     22  N9       -28.5780   47.3800   19.2510 N.pl3 1527  ATP1527    -0.1439
     23  C8       -29.5370   46.8720   20.0910 C.3   1527  ATP1527     0.3377
     24  N7       -30.7700   47.0860   19.6780 N.2   1527  ATP1527    -0.2095
     25  C5       -30.6030   47.8000   18.4960 C.2   1527  ATP1527     0.2526
     26  C6       -31.5190   48.4190   17.6090 C.2   1527  ATP1527     0.4393
     27  N6       -32.8530   48.4360   17.7780 N.pl3 1527  ATP1527     0.2180
     28  N1       -31.0250   49.0840   16.5370 N.2   1527  ATP1527     0.0021
     29  C2       -29.7020   49.1300   16.3830 C.3   1527  ATP1527     0.5254
     30  N3       -28.7490   48.5680   17.1250 N.2   1527  ATP1527    -0.0055
     31  C4       -29.2600   47.9640   18.2090 C.2   1527  ATP1527     0.3518
@<TRIPOS>BOND
     1    29    28    1
     2    29    30    1
     3    28    26    2
     4    30    31    2
     5    26    27    1
     6    26    25    1
     7    31    25    1
     8    31    22    1
     9    25    24    2
    10    22    21    1
    11    22    23    1
    12    21    16    1
    13    21    19    1
    14    16    15    1
    15    24    23    1
    16    18    17    1
    17    15    17    1
    18    15    14    1
    19    20    19    1
    20    19    17    1
    21    10     9    2
    22    13    14    1
    23    13     9    1
    24    12     9    1
    25    12     5    1
    26     7     5    2
    27     9    11    1
    28     8     5    1
    29     8     1    1
    30     5     6    1
    31     2     1    2
    32     1     3    1
    33     1     4    1
