@<TRIPOS>MOLECULE
4aau_ATP_A_1.pdb
 43 45 0 0 0
SMALL
GASTEIGER

@<TRIPOS>ATOM
      1  PG        21.7470   41.9730  -24.8670 P.3   1528  ATP1528     0.5373
      2  O1G       21.9850   40.5710  -24.3730 O.3   1528  ATP1528    -0.1143
      3  O2G       20.4110   42.2580  -25.4620 O.3   1528  ATP1528    -0.1143
      4  O3G       22.9330   42.6370  -25.5430 O.2   1528  ATP1528    -0.2221
      5  PB        21.5990   44.3080  -23.4770 P.3   1528  ATP1528     0.2277
      6  O1B       21.8940   44.9140  -24.8550 O.2   1528  ATP1528    -0.5168
      7  O2B       20.2790   44.7680  -22.8770 O.3   1528  ATP1528    -0.4368
      8  O3B       21.6210   42.6920  -23.4620 O.3   1528  ATP1528    -0.2258
      9  PA        24.0820   44.2870  -22.8980 P.3   1528  ATP1528     0.2182
     10  O1A       24.3700   42.9620  -22.3100 O.3   1528  ATP1528    -0.4371
     11  O2A       24.3460   44.4840  -24.3620 O.2   1528  ATP1528    -0.5170
     12  O3A       22.7180   44.7280  -22.4400 O.3   1528  ATP1528    -0.2700
     13  O5'       24.9560   45.3080  -22.1040 O.3   1528  ATP1528    -0.3246
     14  C5'       24.8780   46.7190  -22.4170 C.3   1528  ATP1528     0.0836
     15  C4'       24.3950   47.5500  -21.2180 C.3   1528  ATP1528     0.1131
     16  O4'       25.4960   47.7240  -20.2610 O.3   1528  ATP1528    -0.3474
     17  C3'       24.0450   48.9860  -21.6860 C.3   1528  ATP1528     0.1133
     18  O3'       23.0440   49.6840  -20.9250 O.3   1528  ATP1528    -0.3864
     19  C2'       25.4190   49.6350  -21.6170 C.3   1528  ATP1528     0.1266
     20  O2'       25.4040   51.0490  -21.5860 O.3   1528  ATP1528    -0.3849
     21  C1'       25.9160   49.0720  -20.3320 C.3   1528  ATP1528     0.1617
     22  N9        27.3460   49.1970  -20.2480 N.pl3 1528  ATP1528    -0.2234
     23  C8        28.3020   48.6140  -21.0410 C.2   1528  ATP1528     0.1451
     24  N7        29.5270   48.9610  -20.7140 N.2   1528  ATP1528    -0.3871
     25  C5        29.3360   49.8660  -19.6790 C.2   1528  ATP1528     0.2211
     26  C6        30.2280   50.6360  -18.9130 C.2   1528  ATP1528     0.2227
     27  N6        31.5640   50.5180  -18.9480 N.pl3 1528  ATP1528    -0.3300
     28  N1        29.7070   51.5420  -18.0600 N.2   1528  ATP1528    -0.3296
     29  C2        28.3770   51.6410  -17.9570 C.1   1528  ATP1528     0.0930
     30  N3        27.4540   50.8480  -18.4840 N.2   1528  ATP1528    -0.3287
     31  C4        27.9960   50.0310  -19.4010 C.2   1528  ATP1528     0.2354
     32 H5'1       25.8950   47.0540  -22.7090 H     1528  ATP1528     0.0591
     33  H4'       23.5050   47.0880  -20.7350 H     1528  ATP1528     0.0647
     34  H3'       23.7120   48.9450  -22.7480 H     1528  ATP1528     0.0647
     35 HO3'       22.8750   50.5240  -21.4140 H     1528  ATP1528     0.2100
     36  H2'       26.0200   49.2930  -22.4900 H     1528  ATP1528     0.0663
     37 HO2'       24.9340   51.3040  -22.4240 H     1528  ATP1528     0.2101
     38  H1'       25.4020   49.5960  -19.4900 H     1528  ATP1528     0.0841
     39  H8        28.0260   47.9030  -21.8260 H     1528  ATP1528     0.1149
     40  H2        28.0010   52.3740  -17.2340 H     1528  ATP1528     0.1751
     41  H5'       24.2100   46.9420  -23.2880 H     1528  ATP1528     0.0591
     42  H62       31.9820   50.0680  -19.7320 H     1528  ATP1528     0.1448
     43  H61       32.0450   51.3000  -18.5290 H     1528  ATP1528     0.1448
@<TRIPOS>BOND
     1     4     1    2
     2     3     1    1
     3     1     2    1
     4     1     8    1
     5     6     5    2
     6    11     9    2
     7     5     8    1
     8     5     7    1
     9     5    12    1
    10    41    14    1
    11     9    12    1
    12     9    10    1
    13     9    13    1
    14    34    17    1
    15    32    14    1
    16    36    19    1
    17    37    20    1
    18    14    13    1
    19    14    15    1
    20    39    23    1
    21    17    19    1
    22    17    15    1
    23    17    18    1
    24    19    20    1
    25    19    21    1
    26    35    18    1
    27    15    33    1
    28    15    16    1
    29    23    24    2
    30    23    22    1
    31    24    25    2
    32    21    16    1
    33    21    22    1
    34    21    38    1
    35    22    31    1
    36    42    27    1
    37    25    31    1
    38    25    26    1
    39    31    30    2
    40    27    26    1
    41    27    43    1
    42    26    28    2
    43    30    29    2
    44    28    29    2
    45    29    40    1
