@<TRIPOS>MOLECULE
4aaw_R84_A_1.pdb
 44 46 0 0 0
SMALL
GASTEIGER

@<TRIPOS>ATOM
      1  C1        57.1290   17.3790  -22.2320 C.3   1460  R841460     0.2525
      2  O2        56.0480   18.1420  -21.7730 O.3   1460  R841460    -0.4700
      3  C3        55.5530   18.9290  -22.8040 C.ar  1460  R841460     0.1570
      4  C4        55.9300   18.6970  -24.1350 C.ar  1460  R841460     0.0765
      5  C5        55.4010   19.5410  -25.1180 C.ar  1460  R841460     0.1604
      6  O6        55.7120   19.3700  -26.4520 O.3   1460  R841460    -0.4700
      7  C7        56.3610   18.0590  -26.6780 C.3   1460  R841460     0.2525
      8  C8        54.5360   20.6000  -24.7940 C.ar  1460  R841460     0.1588
      9  C9        54.1550   20.7830  -23.4740 C.ar  1460  R841460     0.0427
     10  C10       54.6850   19.9870  -22.4780 C.ar  1460  R841460     0.1087
     11  N11       54.2960   20.1990  -21.1410 N.am  1460  R841460    -0.1761
     12  C12       53.8940   21.4100  -20.5220 C.2   1460  R841460     0.2462
     13  O13       53.8920   22.4660  -21.1020 O.2   1460  R841460    -0.2730
     14  C14       53.4050   21.4540  -19.1170 C.3   1460  R841460     0.0990
     15  C15       54.5910   21.2760  -18.1570 C.3   1460  R841460     0.1237
     16  C16       54.0480   21.3560  -16.7420 C.2   1460  R841460     0.3654
     17  O17       54.8250   21.7930  -15.8630 O.co2 1460  R841460    -0.2456
     18  O18       52.7270   21.0000  -16.5270 O.co2 1460  R841460    -0.2456
     19  S19       53.8680   21.6210  -26.0930 S.O2  1460  R841460     0.0801
     20  O20       52.9840   22.3650  -25.2530 O.2   1460  R841460    -0.1515
     21  O21       54.9720   22.0780  -26.8870 O.2   1460  R841460    -0.1515
     22  N22       52.9680   20.5530  -27.1010 N.3   1460  R841460    -0.0728
     23  C23       51.8650   19.5500  -26.7360 C.3   1460  R841460     0.1430
     24  C24       52.2760   18.0640  -26.8680 C.ar  1460  R841460     0.0105
     25  C25       52.0850   17.1330  -25.8370 C.ar  1460  R841460    -0.0016
     26  C26       52.4810   15.7960  -25.9550 C.ar  1460  R841460    -0.0002
     27  C27       53.1010   15.2860  -27.1060 C.ar  1460  R841460     0.0012
     28  C28       53.2490   16.2010  -28.1420 C.ar  1460  R841460     0.0142
     29  C29       52.8580   17.5650  -28.0080 C.ar  1460  R841460     0.0452
     30  N30       53.0380   18.4500  -29.0340 N.pl3 1460  R841460    -0.3077
     31  C31       53.7960   17.8090  -30.0870 C.3   1460  R841460     0.0909
     32  C32       54.3390   18.9820  -30.9110 C.3   1460  R841460     0.0252
     33  C33       53.2240   19.9200  -31.3880 C.3   1460  R841460     0.0473
     34  C34       53.0160   19.7640  -32.8820 C.3   1460  R841460     0.2084
     35  O35       52.6010   21.0650  -33.4090 O.3   1460  R841460    -0.4485
     36  C36       51.6900   21.1790  -34.4100 C.2   1460  R841460     0.3176
     37  O37       50.7210   20.4240  -34.4780 O.2   1460  R841460    -0.2501
     38  C38       51.9060   22.2590  -35.4540 C.3   1460  R841460     0.1213
     39  C39       50.8190   22.1850  -36.5450 C.3   1460  R841460     0.1257
     40  C40       50.9890   21.0810  -37.5880 C.2   1460  R841460     0.3654
     41  O41       50.0710   20.8070  -38.3390 O.co2 1460  R841460    -0.2456
     42  O42       52.1360   20.3850  -37.7150 O.co2 1460  R841460    -0.2456
     43  C43       51.9180   19.9140  -30.5910 C.3   1460  R841460     0.0252
     44  C44       51.7240   18.7630  -29.6250 C.3   1460  R841460     0.0909
@<TRIPOS>BOND
     1    41    40   ar
     2    42    40   ar
     3    40    39    1
     4    39    38    1
     5    38    36    1
     6    37    36    2
     7    36    35    1
     8    35    34    1
     9    34    33    1
    10    33    32    1
    11    33    43    1
    12    32    31    1
    13    43    44    1
    14    31    30    1
    15    44    30    1
    16    30    29    1
    17    28    29   ar
    18    28    27   ar
    19    29    24   ar
    20    27    26   ar
    21    22    23    1
    22    22    19    1
    23    21    19    2
    24    24    23    1
    25    24    25   ar
    26     7     6    1
    27     6     5    1
    28    19    20    2
    29    19     8    1
    30    26    25   ar
    31     5     8   ar
    32     5     4   ar
    33     8     9   ar
    34     4     3   ar
    35     9    10   ar
    36     3    10   ar
    37     3     2    1
    38    10    11    1
    39     1     2    1
    40    11    12   am
    41    13    12    2
    42    12    14    1
    43    14    15    1
    44    15    16    1
    45    16    18   ar
    46    16    17   ar
