@<TRIPOS>MOLECULE
4aax_NGA_A_1.pdb
 15 15 0 0 0
SMALL
GASTEIGER

@<TRIPOS>ATOM
      1  C1       -27.3140   -9.3450  -23.3580 C.3   4641  NGA4641     0.2917
      2  O1       -28.6810   -9.1270  -23.6690 O.3   4641  NGA4641    -0.1879
      3  C2       -26.6450   -8.0260  -23.0190 C.3   4641  NGA4641     0.1871
      4  N2       -26.9460   -6.9540  -23.9720 N.am  4641  NGA4641    -0.1991
      5  C7       -27.9000   -6.0210  -23.7670 C.2   4641  NGA4641     0.2421
      6  C8       -28.1490   -5.0440  -24.8850 C.3   4641  NGA4641     0.0964
      7  O7       -28.5530   -5.9620  -22.7270 O.2   4641  NGA4641    -0.2733
      8  C3       -25.1530   -8.3660  -22.9350 C.3   4641  NGA4641     0.2095
      9  O3       -24.3780   -7.1820  -22.7230 O.3   4641  NGA4641    -0.2183
     10  C4       -24.9140   -9.4000  -21.8340 C.3   4641  NGA4641     0.2136
     11  O4       -25.1510   -8.7900  -20.5410 O.3   4641  NGA4641    -0.2176
     12  C5       -25.8270  -10.6170  -22.0540 C.3   4641  NGA4641     0.1835
     13  C6       -25.7420  -11.6340  -20.9230 C.3   4641  NGA4641     0.2142
     14  O6       -26.1990  -12.9460  -21.2970 O.3   4641  NGA4641    -0.2176
     15  O5       -27.1820  -10.1290  -22.1770 O.3   4641  NGA4641    -0.3242
@<TRIPOS>BOND
     1     6     5    1
     2     4     5   am
     3     4     3    1
     4     5     7    2
     5     2     1    1
     6     1     3    1
     7     1    15    1
     8     3     8    1
     9     8     9    1
    10     8    10    1
    11    15    12    1
    12    12    10    1
    13    12    13    1
    14    10    11    1
    15    14    13    1
