@<TRIPOS>MOLECULE
4aay_MGD_A_1.pdb
 47 52 0 0 0
SMALL
GASTEIGER

@<TRIPOS>ATOM
      1  PB         4.1540  -41.9400   59.1650 P.3   2001  MGD2001     0.2189
      2  O1B        4.0250  -40.8220   58.1560 O.2   2001  MGD2001    -0.5170
      3  O2B        3.3690  -43.2250   59.0090 O.3   2001  MGD2001    -0.4371
      4  O3B        3.7300  -41.3090   60.5700 O.3   2001  MGD2001    -0.2703
      5  O3A        2.5720  -41.7700   62.6810 O.3   2001  MGD2001    -0.3109
      6  PA         3.9600  -42.0790   61.9520 P.3   2001  MGD2001     0.2189
      7  O1A        4.0200  -43.5500   61.6820 O.2   2001  MGD2001    -0.5170
      8  O2A        5.0710  -41.3480   62.6380 O.3   2001  MGD2001    -0.4371
      9  O5'        5.7030  -42.2350   59.3760 O.3   2001  MGD2001    -0.3112
     10  C5'        6.2810  -43.2810   58.6420 C.3   2001  MGD2001     0.1813
     11  C4'        7.7740  -43.1020   58.7430 C.3   2001  MGD2001     0.1799
     12  O4'        8.3850  -44.3050   58.3060 O.3   2001  MGD2001    -0.3326
     13  C3'        8.2740  -41.9720   57.8380 C.3   2001  MGD2001     0.2158
     14  O3'        9.3660  -41.2880   58.4330 O.3   2001  MGD2001    -0.2175
     15  C2'        8.7260  -42.7160   56.6160 C.3   2001  MGD2001     0.2310
     16  O2'        9.7560  -42.0120   55.9450 O.3   2001  MGD2001    -0.2158
     17  C1'        9.2390  -44.0010   57.2110 C.3   2001  MGD2001     0.2293
     18  N9         9.2410  -45.1650   56.3160 N.pl3 2001  MGD2001    -0.2354
     19  C8         8.4920  -45.4520   55.2290 C.3   2001  MGD2001     0.2246
     20  N7         8.8390  -46.6600   54.7180 N.2   2001  MGD2001    -0.2322
     21  C5         9.8080  -47.1460   55.5150 C.2   2001  MGD2001     0.2182
     22  C6        10.6170  -48.3690   55.5780 C.1   2001  MGD2001     0.2372
     23  O6        10.4540  -49.2640   54.7110 O.2   2001  MGD2001    -0.2069
     24  N1        11.5240  -48.4650   56.5700 N.2   2001  MGD2001    -0.2485
     25  C2        11.7000  -47.4890   57.4820 C.1   2001  MGD2001     0.2531
     26  N2        12.6000  -47.6400   58.4630 N.pl3 2001  MGD2001    -0.0226
     27  N3        10.9960  -46.3510   57.4810 N.2   2001  MGD2001    -0.3074
     28  C4        10.0640  -46.1530   56.5480 C.2   2001  MGD2001     0.2300
     29  C10        1.3520  -42.0800   62.0120 C.3   2001  MGD2001     0.1837
     30  C11        0.3160  -42.1930   63.1090 C.3   2001  MGD2001     0.1762
     31  O11       -0.0900  -40.8560   63.4000 O.3   2001  MGD2001    -0.3271
     32  C12       -0.9020  -43.0290   62.8020 C.2   2001  MGD2001     0.0473
     33  S12       -0.8910  -44.3640   61.7650 S.2   2001  MGD2001    -0.0526
     34  C13       -2.0480  -42.7310   63.4200 C.2   2001  MGD2001     0.0449
     35  S13       -3.4030  -43.7140   63.2320 S.2   2001  MGD2001    -0.0530
     36  C14       -2.1730  -41.5540   64.3300 C.3   2001  MGD2001     0.1850
     37  N15       -3.2520  -40.6840   63.8810 N.2   2001  MGD2001    -0.2411
     38  C16       -3.3510  -39.4530   64.3720 C.2   2001  MGD2001     0.2467
     39  C17       -4.6090  -38.7110   64.3900 C.1   2001  MGD2001     0.2441
     40  O17       -5.6320  -39.1840   63.8800 O.2   2001  MGD2001    -0.2063
     41  N18       -4.6420  -37.5130   64.9480 N.2   2001  MGD2001    -0.2474
     42  C19       -3.5460  -36.9890   65.5020 C.1   2001  MGD2001     0.2608
     43  N19       -3.6150  -35.7660   66.0640 N.pl3 2001  MGD2001    -0.0220
     44  N20       -2.3640  -37.6320   65.5520 N.2   2001  MGD2001    -0.2682
     45  C21       -2.2020  -38.8510   65.0180 C.1   2001  MGD2001     0.1293
     46  N22       -1.0230  -39.5020   65.0660 N.2   2001  MGD2001    -0.1763
     47  C23       -0.8510  -40.8500   64.5850 C.3   2001  MGD2001     0.2573
@<TRIPOS>BOND
     1    23    22    2
     2    20    19    1
     3    20    21    2
     4    19    18    1
     5    21    22    1
     6    21    28    1
     7    22    24    2
     8    16    15    1
     9    18    28    1
    10    18    17    1
    11    28    27    2
    12    24    25    2
    13    15    17    1
    14    15    13    1
    15    17    12    1
    16    27    25    2
    17    25    26    1
    18    13    14    1
    19    13    11    1
    20     2     1    2
    21    12    11    1
    22    10    11    1
    23    10     9    1
    24     3     1    1
    25     1     9    1
    26     1     4    1
    27     4     6    1
    28     7     6    2
    29    33    32    2
    30     6     8    1
    31     6     5    1
    32    29     5    1
    33    29    30    1
    34    32    30    1
    35    32    34    1
    36    30    31    1
    37    35    34    2
    38    31    47    1
    39    34    36    1
    40    40    39    2
    41    37    36    1
    42    37    38    2
    43    36    47    1
    44    38    39    1
    45    38    45    1
    46    39    41    2
    47    47    46    1
    48    41    42    2
    49    45    46    2
    50    45    44    2
    51    42    44    2
    52    42    43    1
