@<TRIPOS>MOLECULE
4ab2_ATP_A_1.pdb
 43 45 0 0 0
SMALL
GASTEIGER

@<TRIPOS>ATOM
      1  PG        23.1710   40.9590  -24.7450 P.3   1525  ATP1525     0.5373
      2  O1G       23.2590   39.5330  -24.2630 O.3   1525  ATP1525    -0.1143
      3  O2G       21.9910   41.3140  -25.5860 O.2   1525  ATP1525    -0.2221
      4  O3G       24.4880   41.6010  -25.1510 O.3   1525  ATP1525    -0.1143
      5  PB        22.8350   43.2690  -23.3280 P.3   1525  ATP1525     0.2277
      6  O1B       23.2460   43.9030  -24.6580 O.2   1525  ATP1525    -0.5168
      7  O2B       21.4640   43.6910  -22.8790 O.3   1525  ATP1525    -0.4368
      8  O3B       22.8930   41.6540  -23.3530 O.3   1525  ATP1525    -0.2258
      9  PA        25.1730   43.4040  -22.4510 P.3   1525  ATP1525     0.2182
     10  O1A       25.4040   42.0720  -21.8810 O.3   1525  ATP1525    -0.4371
     11  O2A       25.5970   43.6330  -23.8700 O.2   1525  ATP1525    -0.5170
     12  O3A       23.7580   43.7760  -22.1680 O.3   1525  ATP1525    -0.2700
     13  O5'       25.8730   44.4540  -21.5260 O.3   1525  ATP1525    -0.3246
     14  C5'       25.7510   45.8510  -21.8590 C.3   1525  ATP1525     0.0836
     15  C4'       25.6530   46.7710  -20.6270 C.3   1525  ATP1525     0.1131
     16  O4'       26.8570   46.7380  -19.7910 O.3   1525  ATP1525    -0.3474
     17  C3'       25.6160   48.1950  -21.1830 C.3   1525  ATP1525     0.1133
     18  O3'       24.8780   49.1490  -20.4010 O.3   1525  ATP1525    -0.3864
     19  C2'       27.1110   48.4940  -21.3720 C.3   1525  ATP1525     0.1266
     20  O2'       27.4010   49.8780  -21.4280 O.3   1525  ATP1525    -0.3849
     21  C1'       27.7370   47.7810  -20.1830 C.3   1525  ATP1525     0.1617
     22  N9        29.0490   47.2060  -20.5000 N.pl3 1525  ATP1525    -0.2234
     23  C8        29.2770   46.0920  -21.2820 C.2   1525  ATP1525     0.1451
     24  N7        30.5480   45.7700  -21.3810 N.2   1525  ATP1525    -0.3871
     25  C5        31.1900   46.7200  -20.6020 C.2   1525  ATP1525     0.2211
     26  C6        32.5460   46.8930  -20.2520 C.2   1525  ATP1525     0.2227
     27  N6        33.5340   46.0770  -20.6610 N.pl3 1525  ATP1525    -0.3300
     28  N1        32.8730   47.9320  -19.4470 N.2   1525  ATP1525    -0.3296
     29  C2        31.8930   48.7390  -19.0350 C.1   1525  ATP1525     0.0930
     30  N3        30.5770   48.6340  -19.2220 N.2   1525  ATP1525    -0.3287
     31  C4        30.2840   47.6110  -20.0490 C.2   1525  ATP1525     0.2354
     32 H5'1       26.6370   46.1130  -22.4630 H     1525  ATP1525     0.0591
     33  H5'       24.8500   46.0730  -22.4900 H     1525  ATP1525     0.0591
     34  H4'       24.7440   46.5520  -20.0270 H     1525  ATP1525     0.0647
     35  H3'       25.1450   48.1620  -22.1920 H     1525  ATP1525     0.0647
     36 HO3'       24.5360   49.8000  -21.0630 H     1525  ATP1525     0.2100
     37  H2'       27.4350   48.0280  -22.3260 H     1525  ATP1525     0.0663
     38 HO2'       26.8770   50.2270  -22.1940 H     1525  ATP1525     0.2101
     39  H1'       27.7940   48.4910  -19.3260 H     1525  ATP1525     0.0841
     40  H8        28.4540   45.5350  -21.7390 H     1525  ATP1525     0.1149
     41  H62       33.3510   45.2970  -21.2630 H     1525  ATP1525     0.1448
     42  H61       34.4660   46.3920  -20.5250 H     1525  ATP1525     0.1448
     43  H2        32.2090   49.5700  -18.3940 H     1525  ATP1525     0.1751
@<TRIPOS>BOND
     1     3     1    2
     2     4     1    1
     3     1     2    1
     4     1     8    1
     5     6     5    2
     6    11     9    2
     7     8     5    1
     8     5     7    1
     9     5    12    1
    10    33    14    1
    11    32    14    1
    12     9    12    1
    13     9    10    1
    14     9    13    1
    15    37    19    1
    16    38    20    1
    17    35    17    1
    18    14    13    1
    19    14    15    1
    20    40    23    1
    21    20    19    1
    22    24    23    2
    23    24    25    2
    24    19    17    1
    25    19    21    1
    26    23    22    1
    27    41    27    1
    28    17    15    1
    29    17    18    1
    30    36    18    1
    31    27    42    1
    32    27    26    1
    33    15    34    1
    34    15    16    1
    35    25    26    1
    36    25    31    1
    37    22    21    1
    38    22    31    1
    39    26    28    2
    40    21    16    1
    41    21    39    1
    42    31    30    2
    43    28    29    2
    44    30    29    2
    45    29    43    1
