@<TRIPOS>MOLECULE
4ab3_ATP_A_1.pdb
 31 33 0 0 0
SMALL
GASTEIGER

@<TRIPOS>ATOM
      1  PG         3.0470  -50.0700   24.5780 P.3   1527  ATP1527     0.5373
      2  O1G        3.8210  -48.7930   24.3280 O.2   1527  ATP1527    -0.2221
      3  O2G        1.6790  -49.8630   25.1660 O.3   1527  ATP1527    -0.1143
      4  O3G        3.8950  -51.0570   25.3880 O.3   1527  ATP1527    -0.1143
      5  PB         2.1120  -52.1940   23.2580 P.3   1527  ATP1527     0.2277
      6  O1B        2.0960  -52.7960   24.6710 O.3   1527  ATP1527    -0.4368
      7  O2B        0.7430  -52.1760   22.6020 O.2   1527  ATP1527    -0.5168
      8  O3B        2.7940  -50.7320   23.1590 O.3   1527  ATP1527    -0.2258
      9  PA         4.3110  -53.4850   22.8360 P.3   1527  ATP1527     0.2189
     10  O1A        5.3250  -52.7840   22.0330 O.2   1527  ATP1527    -0.5170
     11  O2A        4.4920  -53.4430   24.3320 O.3   1527  ATP1527    -0.4371
     12  O3A        2.9600  -53.0960   22.3200 O.3   1527  ATP1527    -0.2700
     13  O5'        4.2860  -55.0040   22.4390 O.3   1527  ATP1527    -0.3112
     14  C5'        3.1700  -55.8810   22.7700 C.3   1527  ATP1527     0.1813
     15  C4'        2.5090  -56.6060   21.5520 C.3   1527  ATP1527     0.1821
     16  O4'        3.4730  -56.8990   20.4890 O.3   1527  ATP1527    -0.3135
     17  C3'        1.9900  -58.0040   21.9760 C.3   1527  ATP1527     0.2184
     18  O3'        0.8410  -58.5130   21.2680 O.3   1527  ATP1527    -0.2174
     19  C2'        3.2590  -58.8480   21.8280 C.3   1527  ATP1527     0.2570
     20  O2'        3.0210  -60.2370   21.6350 O.3   1527  ATP1527    -0.2130
     21  C1'        3.9340  -58.2240   20.6240 C.3   1527  ATP1527     0.3186
     22  N9         5.3940  -58.2500   20.7460 N.pl3 1527  ATP1527    -0.1439
     23  C8         6.1800  -57.5940   21.6730 C.3   1527  ATP1527     0.3377
     24  N7         7.4730  -57.8340   21.5330 N.2   1527  ATP1527    -0.2095
     25  C5         7.5230  -58.6710   20.4250 C.2   1527  ATP1527     0.2526
     26  C6         8.6020  -59.2600   19.7330 C.2   1527  ATP1527     0.4393
     27  N6         9.8910  -59.0970   20.0790 N.pl3 1527  ATP1527     0.2180
     28  N1         8.3310  -60.0540   18.6690 N.2   1527  ATP1527     0.0021
     29  C2         7.0510  -60.2440   18.3440 C.3   1527  ATP1527     0.5254
     30  N3         5.9510  -59.7160   18.8760 N.2   1527  ATP1527    -0.0055
     31  C4         6.2560  -58.9370   19.9350 C.2   1527  ATP1527     0.3518
@<TRIPOS>BOND
     1    29    28    1
     2    29    30    1
     3    28    26    2
     4    30    31    2
     5    26    27    1
     6    26    25    1
     7    31    25    1
     8    31    22    1
     9    25    24    2
    10    16    21    1
    11    16    15    1
    12    21    22    1
    13    21    19    1
    14    22    23    1
    15    18    17    1
    16    24    23    1
    17    15    17    1
    18    15    14    1
    19    20    19    1
    20    19    17    1
    21    10     9    2
    22    12     9    1
    23    12     5    1
    24    13    14    1
    25    13     9    1
    26     7     5    2
    27     9    11    1
    28     8     5    1
    29     8     1    1
    30     5     6    1
    31     2     1    2
    32     1     3    1
    33     1     4    1
