@<TRIPOS>MOLECULE
4ab4_TNL_A_1.pdb
 21 21 0 0 0
SMALL
GASTEIGER

@<TRIPOS>ATOM
      1  C1       -18.1650   14.7620  -17.1300 C.ar  1357  TNL1357     0.0100
      2  C7       -18.1000   14.6750  -18.6220 C.3   1357  TNL1357    -0.0354
      3  C2       -18.1670   13.6080  -16.3520 C.ar  1357  TNL1357     0.1334
      4  N2       -18.1070   12.3150  -16.9530 N.pl3 1357  TNL1357     0.0568
      5  O21      -17.4030   11.3910  -16.3840 O.2   1357  TNL1357    -0.1261
      6  O22      -18.7320   12.0770  -17.9770 O.2   1357  TNL1357    -0.1261
      7  C3       -18.2260   13.7010  -14.9680 C.ar  1357  TNL1357    -0.0008
      8  C4       -18.2950   14.9440  -14.3560 C.ar  1357  TNL1357     0.1305
      9  N4       -18.3520   15.0590  -12.9420 N.pl3 1357  TNL1357     0.0566
     10  O41      -17.5480   14.3560  -12.1710 O.2   1357  TNL1357    -0.1261
     11  O42      -19.1180   15.8580  -12.4080 O.2   1357  TNL1357    -0.1261
     12  C5       -18.2930   16.0890  -15.1270 C.ar  1357  TNL1357    -0.0008
     13  C6       -18.2280   16.0050  -16.5100 C.ar  1357  TNL1357     0.1334
     14  N6       -18.2480   17.2210  -17.2660 N.pl3 1357  TNL1357     0.0568
     15  O61      -17.2110   17.6210  -17.9220 O.2   1357  TNL1357    -0.1261
     16  O62      -19.2650   17.8970  -17.2860 O.2   1357  TNL1357    -0.1261
     17 H7C1      -17.7060   13.8230  -18.8750 H     1357  TNL1357     0.0279
     18 H7C2      -18.9980   14.7330  -18.9920 H     1357  TNL1357     0.0279
     19 H7C3      -17.5480   15.3990  -18.9690 H     1357  TNL1357     0.0279
     20  H3       -18.2250   12.8950  -14.4280 H     1357  TNL1357     0.0663
     21  H5       -18.3390   16.9580  -14.6990 H     1357  TNL1357     0.0663
@<TRIPOS>BOND
     1    18     2    1
     2    19     2    1
     3    17     2    1
     4     2     1    1
     5     6     4    2
     6    15    14    2
     7    16    14    2
     8    14    13    1
     9     1    13   ar
    10     1     3   ar
    11     4     5    2
    12     4     3    1
    13    13    12   ar
    14     3     7   ar
    15    12    21    1
    16    12     8   ar
    17     7    20    1
    18     7     8   ar
    19     8     9    1
    20     9    11    2
    21     9    10    2
