@<TRIPOS>MOLECULE
4ab4_FMN_A_1.pdb
 39 41 0 0 0
SMALL
GASTEIGER

@<TRIPOS>ATOM
      1  N1       -17.8070   11.0980  -12.2690 N.2   1351  FMN1351    -0.2887
      2  C2       -17.1740   11.3300  -11.0670 C.1   1351  FMN1351     0.3669
      3  O2       -15.9710   11.0840  -10.9640 O.2   1351  FMN1351    -0.1744
      4  N3       -17.9030   11.7950   -9.9840 N.2   1351  FMN1351    -0.2300
      5  C4       -19.2390   12.0860  -10.0970 C.1   1351  FMN1351     0.2513
      6  O4       -19.8690   12.4790   -9.1050 O.2   1351  FMN1351    -0.2057
      7  C4A      -19.8670   11.8690  -11.3220 C.2   1351  FMN1351     0.2706
      8  N5       -21.2030   12.1480  -11.4530 N.2   1351  FMN1351    -0.3848
      9  C5A      -21.8370   11.8730  -12.6340 C.2   1351  FMN1351     0.1368
     10  C6       -23.2000   12.1400  -12.7280 C.2   1351  FMN1351    -0.0226
     11  C7       -23.8580   11.8890  -13.9150 C.2   1351  FMN1351    -0.0587
     12  C7M      -25.3300   12.1490  -14.0190 C.3   1351  FMN1351    -0.0425
     13  C8       -23.1430   11.3750  -14.9930 C.3   1351  FMN1351     0.0216
     14  C8M      -23.8620   11.1050  -16.2820 C.3   1351  FMN1351    -0.0512
     15  C9       -21.7860   11.1080  -14.9030 C.2   1351  FMN1351    -0.0484
     16  C9A      -21.1220   11.3660  -13.7200 C.2   1351  FMN1351     0.0713
     17  N10      -19.7600   11.1320  -13.6110 N.pl3 1351  FMN1351    -0.2550
     18  C10      -19.1390   11.3660  -12.4040 C.2   1351  FMN1351     0.2449
     19  C1'      -19.0010   10.5180  -14.7480 C.3   1351  FMN1351     0.1336
     20  C2'      -19.2910    9.0140  -14.6520 C.3   1351  FMN1351     0.2048
     21  O2'      -18.6520    8.4680  -13.5010 O.3   1351  FMN1351    -0.2185
     22  C3'      -18.7110    8.2430  -15.8270 C.3   1351  FMN1351     0.2165
     23  O3'      -17.3560    8.5760  -15.9930 O.3   1351  FMN1351    -0.2175
     24  C4'      -19.4090    8.6410  -17.1280 C.3   1351  FMN1351     0.2147
     25  O4'      -20.8080    8.6030  -16.9830 O.3   1351  FMN1351    -0.2176
     26  C5'      -18.9640    7.7750  -18.3000 C.3   1351  FMN1351     0.1892
     27  O5'      -19.2080    6.3970  -18.0450 O.3   1351  FMN1351    -0.2674
     28  P        -20.4880    5.6730  -18.7330 P.3   1351  FMN1351     0.5327
     29  O1P      -21.7230    6.3540  -18.1830 O.3   1351  FMN1351    -0.1145
     30  O2P      -20.3770    4.2280  -18.3210 O.3   1351  FMN1351    -0.1145
     31  O3P      -20.3770    5.8640  -20.2370 O.2   1351  FMN1351    -0.2224
     32  H6       -23.7060   12.6800  -11.9280 H     1351  FMN1351     0.0650
     33 HM71      -25.6770   11.8760  -15.0150 H     1351  FMN1351     0.0275
     34 HM72      -25.5250   13.2070  -13.8430 H     1351  FMN1351     0.0275
     35 HM73      -25.8570   11.5540  -13.2740 H     1351  FMN1351     0.0275
     36 HM81      -23.1590   10.7090  -17.0140 H     1351  FMN1351     0.0241
     37 HM82      -24.2940   12.0330  -16.6570 H     1351  FMN1351     0.0241
     38 HM83      -24.6560   10.3780  -16.1100 H     1351  FMN1351     0.0241
     39  H9       -21.2220   10.8410  -15.7970 H     1351  FMN1351     0.0600
@<TRIPOS>BOND
     1    31    28    2
     2    28    30    1
     3    28    29    1
     4    28    27    1
     5    26    27    1
     6    26    24    1
     7    24    25    1
     8    24    22    1
     9    36    14    1
    10    37    14    1
    11    14    38    1
    12    14    13    1
    13    23    22    1
    14    22    20    1
    15    39    15    1
    16    33    12    1
    17    13    15    1
    18    13    11    1
    19    15    16    2
    20    19    20    1
    21    19    17    1
    22    20    21    1
    23    12    11    1
    24    12    34    1
    25    12    35    1
    26    11    10    2
    27    16    17    1
    28    16     9    1
    29    17    18    1
    30    10     9    1
    31    10    32    1
    32     9     8    2
    33    18     1    2
    34    18     7    1
    35     1     2    2
    36     8     7    2
    37     7     5    1
    38     2     3    2
    39     2     4    2
    40     5     4    2
    41     5     6    2
