@<TRIPOS>MOLECULE
4ab7_NLG_D_1.pdb
 13 12 0 0 0
SMALL
GASTEIGER

@<TRIPOS>ATOM
      1  CA       -15.9520  -20.7720  -19.5300 C.3   1503  NLG1503     0.1983
      2  C        -16.7760  -19.9430  -18.4840 C.2   1503  NLG1503     0.3842
      3  OXT      -17.9500  -20.3360  -18.2200 O.co2 1503  NLG1503    -0.2437
      4  O        -16.2040  -18.9350  -17.9810 O.co2 1503  NLG1503    -0.2437
      5  CB       -14.8490  -21.4990  -18.7010 C.3   1503  NLG1503     0.0451
      6  CG       -15.5200  -22.2660  -17.5170 C.3   1503  NLG1503     0.1164
      7  CD       -15.8770  -23.7570  -17.8550 C.2   1503  NLG1503     0.3649
      8  OE1      -16.7530  -24.3570  -17.1480 O.co2 1503  NLG1503    -0.2457
      9  OE2      -15.2530  -24.2930  -18.8250 O.co2 1503  NLG1503    -0.2457
     10  C7       -14.3820  -19.3190  -20.8950 C.2   1503  NLG1503     0.2423
     11  C8       -13.2320  -19.8990  -20.4050 C.3   1503  NLG1503     0.0964
     12  O7       -14.2600  -18.3690  -21.6580 O.2   1503  NLG1503    -0.2733
     13  N2       -15.5740  -19.7970  -20.5950 N.am  1503  NLG1503    -0.1956
@<TRIPOS>BOND
     1    12    10    2
     2    10    13   am
     3    10    11    1
     4    13     1    1
     5     1     5    1
     6     1     2    1
     7     9     7   ar
     8     5     6    1
     9     2     3   ar
    10     2     4   ar
    11     7     6    1
    12     7     8   ar
