@<TRIPOS>MOLECULE
4ab8_VXU_A_1.pdb
 13 14 0 0 0
SMALL
GASTEIGER

@<TRIPOS>ATOM
      1  C2       -21.6540    1.8780   14.0220 C.ar  1253  VXU1253     0.0030
      2  C3       -20.9480    1.4880   15.1370 C.ar  1253  VXU1253     0.0004
      3  C1       -22.5570    2.8990   14.1430 C.ar  1253  VXU1253     0.0400
      4  C4       -21.1600    2.1080   16.3400 C.ar  1253  VXU1253     0.0339
      5  C11      -22.7530    3.5430   15.3460 C.ar  1253  VXU1253     0.1719
      6  C5       -22.0560    3.1340   16.4580 C.ar  1253  VXU1253     0.1696
      7  C8       -23.3750    5.6390   17.4910 C.3   1253  VXU1253     0.0946
      8  C9       -22.9970    5.6560   16.0290 C.3   1253  VXU1253     0.2094
      9  C7       -23.4710    4.1890   17.9130 C.3   1253  VXU1253     0.2094
     10  C12      -20.4300    1.7050   17.5590 C.3   1253  VXU1253     0.1387
     11  N13      -19.1290    1.1590   17.2010 N.3   1253  VXU1253    -0.1261
     12  O10      -23.6730    4.5690   15.3870 O.3   1253  VXU1253    -0.4723
     13  O6       -22.1690    3.6650   17.7410 O.3   1253  VXU1253    -0.4725
@<TRIPOS>BOND
     1     1     3   ar
     2     1     2   ar
     3     3     5   ar
     4     2     4   ar
     5     5    12    1
     6     5     6   ar
     7    12     8    1
     8     8     7    1
     9     4     6   ar
    10     4    10    1
    11     6    13    1
    12    11    10    1
    13     7     9    1
    14    13     9    1
