@<TRIPOS>MOLECULE
4ab9_VXQ_A_1.pdb
 11 12 0 0 0
SMALL
GASTEIGER

@<TRIPOS>ATOM
      1  N          3.0210  -15.5680   19.0340 N.3   1251  VXQ1251    -0.1262
      2  CB         1.7020  -15.8220   18.3710 C.3   1251  VXQ1251     0.1356
      3  CG         1.6410  -14.8380   17.2540 C.ar  1251  VXQ1251    -0.0033
      4  CD1        1.1960  -15.1660   16.0180 C.ar  1251  VXQ1251    -0.0040
      5  CE1        1.2070  -14.2430   14.9990 C.ar  1251  VXQ1251     0.0153
      6  CD2        2.2100  -13.6180   17.4810 C.ar  1251  VXQ1251     0.0003
      7  CE2        2.2950  -12.6940   16.4760 C.ar  1251  VXQ1251     0.0363
      8  CZ         1.7720  -13.0400   15.2490 C.ar  1251  VXQ1251     0.1346
      9  OE         1.8140  -12.1730   14.1640 O.3   1251  VXQ1251    -0.4754
     10  CM         0.8170  -12.8230   13.3500 C.3   1251  VXQ1251     0.2102
     11  C5         0.6420  -14.3630   13.6210 C.3   1251  VXQ1251     0.0767
@<TRIPOS>BOND
     1    10    11    1
     2    10     9    1
     3    11     5    1
     4     9     8    1
     5     5     8   ar
     6     5     4   ar
     7     8     7   ar
     8     4     3   ar
     9     7     6   ar
    10     3     6   ar
    11     3     2    1
    12     2     1    1
