@<TRIPOS>MOLECULE
4aba_SW1_A_1.pdb
 12 13 0 0 0
SMALL
GASTEIGER

@<TRIPOS>ATOM
      1  C1         1.8110  -15.9810   18.2400 C.3   1256  SW11256     0.1642
      2  N1         3.1200  -15.6030   18.8920 N.3   1256  SW11256    -0.1237
      3  S1         1.1450  -14.5090   14.5470 S.3   1256  SW11256    -0.0746
      4  C2         1.6800  -15.1300   16.9770 C.2   1256  SW11256     0.1177
      5  N2         2.2500  -13.9070   16.6750 N.2   1256  SW11256    -0.4014
      6  S2         3.9420  -11.2810   15.7790 S.2   1256  SW11256    -0.0833
      7  C3         1.0550  -15.5770   15.8520 C.3   1256  SW11256     0.1203
      8  C4         2.0500  -13.4350   15.4870 C.2   1256  SW11256     0.1625
      9  C5         2.6050  -12.1410   15.0510 C.ar  1256  SW11256     0.0650
     10  C6         2.1160  -11.3860   14.0130 C.ar  1256  SW11256     0.0101
     11  C7         2.8070  -10.1400   13.8480 C.ar  1256  SW11256     0.0076
     12  C8         3.8160   -9.9320   14.7280 C.ar  1256  SW11256     0.0355
@<TRIPOS>BOND
     1    11    10   ar
     2    11    12   ar
     3    10     9   ar
     4     3     8    1
     5     3     7    1
     6    12     6   ar
     7     9     8    1
     8     9     6   ar
     9     8     5    2
    10     7     4    1
    11     5     4    2
    12     4     1    1
    13     1     2    1
