@<TRIPOS>MOLECULE
4abb_K9S_A_1.pdb
 11 12 0 0 0
SMALL
GASTEIGER

@<TRIPOS>ATOM
      1  C1         1.2680  -15.3950   15.7530 C.ar  1252  K9S1252     0.0326
      2  N1         1.9540  -16.1940   18.4390 N.3   1252  K9S1252    -0.1262
      3  S2         1.1050  -14.6540   14.2090 S.2   1252  K9S1252    -0.0867
      4  C3         1.7750  -13.1340   14.7650 C.ar  1252  K9S1252     0.0292
      5  C4         2.1480  -13.2550   16.1330 C.ar  1252  K9S1252     0.0039
      6  C5         1.8680  -14.4890   16.6930 C.ar  1252  K9S1252     0.0038
      7  C6         2.0200  -11.9520   14.0810 C.ar  1252  K9S1252     0.0065
      8  C7         2.6010  -10.8140   14.7530 C.ar  1252  K9S1252     0.0005
      9  C10        2.1440  -14.7840   18.1170 C.3   1252  K9S1252     0.1361
     10  C8         2.9120  -10.9230   16.0570 C.ar  1252  K9S1252     0.0000
     11  C9         2.7090  -12.1640   16.8330 C.ar  1252  K9S1252     0.0002
@<TRIPOS>BOND
     1     7     8   ar
     2     7     4   ar
     3     3     4   ar
     4     3     1   ar
     5     8    10   ar
     6     4     5   ar
     7     1     6   ar
     8    10    11   ar
     9     5     6   ar
    10     5    11   ar
    11     6     9    1
    12     9     2    1
