@<TRIPOS>MOLECULE
4abd_SW2_A_1.pdb
 13 14 0 0 0
SMALL
GASTEIGER

@<TRIPOS>ATOM
      1  C1         1.8020  -15.9750   18.3730 C.3   1252  SW21252     0.1357
      2  N1         3.0920  -15.7910   19.0890 N.3   1252  SW21252    -0.1262
      3  C2         1.7080  -15.0870   17.1570 C.ar  1252  SW21252    -0.0017
      4  N2         3.0760  -11.9760   15.5910 N.ar  1252  SW21252    -0.3036
      5  C3         1.0770  -15.5940   16.0440 C.ar  1252  SW21252    -0.0027
      6  C4         1.1010  -14.9570   14.8260 C.ar  1252  SW21252     0.0012
      7  C5         1.7340  -13.7140   14.6810 C.ar  1252  SW21252     0.0175
      8  C6         2.3580  -13.2090   15.7950 C.ar  1252  SW21252     0.0638
      9  C7         2.8670  -11.0380   14.6150 C.ar  1252  SW21252     0.0802
     10  C8         3.7200   -9.9510   14.7630 C.ar  1252  SW21252     0.0205
     11  C9         4.4440  -10.3570   15.9070 C.ar  1252  SW21252     0.0205
     12  C10        4.1250  -11.5900   16.3960 C.ar  1252  SW21252     0.0802
     13  C11        2.3900  -13.8880   16.9880 C.ar  1252  SW21252     0.0147
@<TRIPOS>BOND
     1     9    10   ar
     2     9     4   ar
     3     7     6   ar
     4     7     8   ar
     5    10    11   ar
     6     6     5   ar
     7     4     8    1
     8     4    12   ar
     9     8    13   ar
    10    11    12   ar
    11     5     3   ar
    12    13     3   ar
    13     3     1    1
    14     1     2    1
