@<TRIPOS>MOLECULE
4abe_913_A_1.pdb
 13 14 0 0 0
SMALL
GASTEIGER

@<TRIPOS>ATOM
      1  C1        -1.8170   16.0610   18.2590 C.3   1254  9131254     0.1357
      2  N1        -3.0940   15.9260   19.0130 N.3   1254  9131254    -0.1262
      3  C2        -1.7230   15.1360   17.0450 C.ar  1254  9131254    -0.0017
      4  N2        -3.0610   11.9550   15.3360 N.ar  1254  9131254    -0.2282
      5  C3        -0.9570   15.5620   15.9930 C.ar  1254  9131254    -0.0027
      6  C4        -0.8960   14.8470   14.8230 C.ar  1254  9131254     0.0013
      7  C5        -1.5620   13.6560   14.6280 C.ar  1254  9131254     0.0191
      8  C6        -2.3440   13.2010   15.6380 C.ar  1254  9131254     0.0826
      9  C7        -2.6060   10.9080   14.5570 C.ar  1254  9131254     0.1020
     10  C8        -3.5600    9.9270   14.6450 C.ar  1254  9131254     0.0431
     11  C9        -4.5490   10.5020   15.4970 C.ar  1254  9131254     0.1221
     12  C11       -2.4120   13.9490   16.7980 C.ar  1254  9131254     0.0163
     13  N8        -4.2930   11.7620   15.8630 N.ar  1254  9131254    -0.1635
@<TRIPOS>BOND
     1     9    10   ar
     2     9     4   ar
     3     7     6   ar
     4     7     8   ar
     5    10    11   ar
     6     6     5   ar
     7     4     8    1
     8     4    13   ar
     9    11    13   ar
    10     8    12   ar
    11     5     3   ar
    12    12     3   ar
    13     3     1    1
    14     1     2    1
