@<TRIPOS>MOLECULE
4abf_513_A_1.pdb
 12 13 0 0 0
SMALL
GASTEIGER

@<TRIPOS>ATOM
      1  C4         0.9810  -15.5260   15.8640 C.ar  1252  5131252     0.0326
      2  N7         1.8490  -16.5190   18.4420 N.3   1252  5131252    -0.1262
      3  S3         0.7620  -14.8110   14.3430 S.2   1252  5131252    -0.0867
      4  C2         1.7230  -13.4470   14.7930 C.ar  1252  5131252     0.0292
      5  C1         2.1670  -13.6180   16.0920 C.ar  1252  5131252     0.0044
      6  C5         1.7370  -14.7830   16.7440 C.ar  1252  5131252     0.0038
      7  C8         2.0660  -12.3240   14.0160 C.ar  1252  5131252     0.0070
      8  C9         2.9030  -11.4010   14.6110 C.ar  1252  5131252     0.0072
      9  C6         2.1430  -15.1370   18.1290 C.3   1252  5131252     0.1361
     10  C10        3.3910  -11.5850   15.8910 C.ar  1252  5131252     0.0346
     11  C11        3.0200  -12.6890   16.7170 C.ar  1252  5131252     0.0069
     12 BR1         4.5770  -10.2760   16.5270 Br    1252  5131252    -0.0490
@<TRIPOS>BOND
     1     7     8   ar
     2     7     4   ar
     3     3     4   ar
     4     3     1   ar
     5     8    10   ar
     6     4     5   ar
     7     1     6   ar
     8    10    12    1
     9    10    11   ar
    10     5    11   ar
    11     5     6   ar
    12     6     9    1
    13     9     2    1
