@<TRIPOS>MOLECULE
4abg_91B_A_1.pdb
 15 16 0 0 0
SMALL
GASTEIGER

@<TRIPOS>ATOM
      1  C11      -21.6940    1.6930   14.2070 C.ar  1255  91B1255     0.0010
      2  C10      -20.7800    1.3240   15.1610 C.ar  1255  91B1255    -0.0027
      3  C12      -22.6580    2.6400   14.4990 C.ar  1255  91B1255     0.0145
      4  C8       -21.7440    2.8330   16.6880 C.ar  1255  91B1255     0.0117
      5  C9       -20.7930    1.8550   16.4360 C.ar  1255  91B1255    -0.0020
      6  C7       -22.6740    3.2340   15.7550 C.ar  1255  91B1255     0.0477
      7  C3       -23.4610    4.8400   17.3730 C.3   1255  91B1255     0.1081
      8  C5       -24.1090    5.0000   14.8840 C.3   1255  91B1255     0.1081
      9  C2       -24.7060    5.7000   17.6530 C.3   1255  91B1255     0.0938
     10  C6       -25.4140    5.6390   15.3010 C.3   1255  91B1255     0.0938
     11  C15      -26.2420    7.3980   16.8240 C.3   1255  91B1255     0.0897
     12  C13      -19.7270    1.3530   17.4080 C.3   1255  91B1255     0.1357
     13  N4       -23.6680    4.1930   16.0490 N.pl3 1255  91B1255    -0.3047
     14  N1       -25.1340    6.5000   16.4750 N.3   1255  91B1255    -0.2686
     15  N14      -19.2050    2.4610   18.2260 N.3   1255  91B1255    -0.1262
@<TRIPOS>BOND
     1     1     3   ar
     2     1     2   ar
     3     3     6   ar
     4     8    10    1
     5     8    13    1
     6     2     5   ar
     7    10    14    1
     8     6    13    1
     9     6     4   ar
    10    13     7    1
    11     5     4   ar
    12     5    12    1
    13    14    11    1
    14    14     9    1
    15     7     9    1
    16    12    15    1
