@<TRIPOS>MOLECULE
4abh_7Z3_A_1.pdb
 13 14 0 0 0
SMALL
GASTEIGER

@<TRIPOS>ATOM
      1  C1         1.8130  -15.9790   18.2830 C.3   1253  7Z31253     0.1357
      2  N1         3.1190  -15.7710   19.0010 N.3   1253  7Z31253    -0.1262
      3  C2         1.6750  -15.1310   17.0630 C.ar  1253  7Z31253    -0.0020
      4  N2         2.4160  -11.6370   15.8790 N.pl3 1253  7Z31253    -0.3075
      5  C3         1.3110  -15.7700   15.8650 C.ar  1253  7Z31253    -0.0027
      6  C4         1.2180  -15.0150   14.7150 C.ar  1253  7Z31253     0.0010
      7  C5         1.5900  -13.6520   14.6800 C.ar  1253  7Z31253     0.0145
      8  C6         2.0050  -13.0640   15.8460 C.ar  1253  7Z31253     0.0476
      9  C7         2.6860  -11.0220   14.5590 C.3   1253  7Z31253     0.0908
     10  C8         3.4630   -9.8000   14.9710 C.3   1253  7Z31253     0.0232
     11  C9         4.0280  -10.0400   16.3680 C.3   1253  7Z31253     0.0232
     12  C10        3.3670  -11.2460   16.9520 C.3   1253  7Z31253     0.0908
     13  C11        2.0470  -13.8110   17.0360 C.ar  1253  7Z31253     0.0117
@<TRIPOS>BOND
     1     9    10    1
     2     9     4    1
     3     7     6   ar
     4     7     8   ar
     5     6     5   ar
     6    10    11    1
     7     8     4    1
     8     8    13   ar
     9     5     3   ar
    10     4    12    1
    11    11    12    1
    12    13     3   ar
    13     3     1    1
    14     1     2    1
