@<TRIPOS>MOLECULE
4abk_AR6_A_1.pdb
 36 39 0 0 0
SMALL
GASTEIGER

@<TRIPOS>ATOM
      1  N1        -0.1100   14.7680  -19.0830 N.2   2389  AR62389     0.0021
      2  C2         0.8970   14.0010  -19.4660 C.3   2389  AR62389     0.5254
      3  N3         1.7570   14.3680  -20.3980 N.2   2389  AR62389    -0.0055
      4  C4         1.5970   15.5850  -20.9510 C.2   2389  AR62389     0.3518
      5  C5         0.5570   16.4220  -20.5870 C.2   2389  AR62389     0.2526
      6  C6        -0.3300   15.9950  -19.5910 C.2   2389  AR62389     0.4393
      7  N6        -1.3570   16.7750  -19.1610 N.pl3 2389  AR62389     0.2180
      8  N7         0.6660   17.5520  -21.3260 N.2   2389  AR62389    -0.2095
      9  C8         1.7400   17.3780  -22.1180 C.3   2389  AR62389     0.3377
     10  N9         2.2980   16.1760  -21.9190 N.pl3 2389  AR62389    -0.1439
     11  PA         6.8290   19.2920  -22.1500 P.3   2389  AR62389     0.2189
     12  PB         9.6930   18.8510  -21.6690 P.3   2389  AR62389     0.2189
     13  C1'        3.4940   15.5660  -22.5440 C.3   2389  AR62389     0.3186
     14  O1A        5.7350   19.6180  -21.2010 O.3   2389  AR62389    -0.4371
     15  O1B       10.2230   18.0350  -20.5660 O.3   2389  AR62389    -0.4371
     16  C1D       13.5520   22.0050  -21.2780 C.3   2389  AR62389     0.3023
     17  O1D       14.1510   23.1610  -20.7470 O.3   2389  AR62389    -0.1869
     18  C2'        3.9730   16.1280  -23.8600 C.3   2389  AR62389     0.2570
     19  O2'        3.1570   15.6150  -24.9100 O.3   2389  AR62389    -0.2130
     20  O2A        6.9920   20.1930  -23.3730 O.2   2389  AR62389    -0.5170
     21  O2B        9.8470   18.3680  -23.0680 O.2   2389  AR62389    -0.5170
     22  C2D       12.5650   22.5140  -22.3430 C.3   2389  AR62389     0.2433
     23  O2D       13.1240   23.6080  -23.1240 O.3   2389  AR62389    -0.2148
     24  C3'        5.3720   15.5740  -23.9310 C.3   2389  AR62389     0.2184
     25  O3'        5.3020   14.2430  -24.4400 O.3   2389  AR62389    -0.2174
     26  O3A        8.1410   19.1700  -21.2950 O.3   2389  AR62389    -0.2703
     27  C3D       11.3870   22.9410  -21.4940 C.3   2389  AR62389     0.2168
     28  O3D       11.4140   24.3260  -21.1770 O.3   2389  AR62389    -0.2175
     29  C4'        5.8370   15.5520  -22.4460 C.3   2389  AR62389     0.1821
     30  O4'        4.6470   15.8550  -21.6870 O.3   2389  AR62389    -0.3135
     31  C4D       11.5080   22.0750  -20.2110 C.3   2389  AR62389     0.1807
     32  O4D       12.6900   21.2990  -20.3170 O.3   2389  AR62389    -0.3237
     33  C5'        6.8060   16.5930  -21.9780 C.3   2389  AR62389     0.1813
     34  O5'        6.5740   17.8670  -22.7330 O.3   2389  AR62389    -0.3112
     35  C5D       10.3680   21.0050  -20.2690 C.3   2389  AR62389     0.1813
     36  O5D       10.3170   20.2820  -21.5650 O.3   2389  AR62389    -0.3112
@<TRIPOS>BOND
     1    19    18    1
     2    25    24    1
     3    24    18    1
     4    24    29    1
     5    18    13    1
     6    20    11    2
     7    23    22    1
     8    21    12    2
     9    34    11    1
    10    34    33    1
    11    13    10    1
    12    13    30    1
    13    29    33    1
    14    29    30    1
    15    22    27    1
    16    22    16    1
    17    11    26    1
    18    11    14    1
    19     9    10    1
    20     9     8    1
    21    10     4    1
    22    12    36    1
    23    12    26    1
    24    12    15    1
    25    36    35    1
    26    27    28    1
    27    27    31    1
    28     8     5    2
    29    16    17    1
    30    16    32    1
    31     4     5    1
    32     4     3    2
    33     5     6    1
    34     3     2    1
    35    32    31    1
    36    35    31    1
    37     6     7    1
    38     6     1    2
    39     2     1    1
