@<TRIPOS>MOLECULE
4abo_GTP_B_1.pdb
 32 34 0 0 0
SMALL
GASTEIGER

@<TRIPOS>ATOM
      1  PG       318.3250  187.3670  326.5710 P.3   500  GTP500      0.5373
      2  O1G      318.3080  188.7000  327.4890 O.3   500  GTP500     -0.1143
      3  O2G      317.0770  186.5140  327.1090 O.2   500  GTP500     -0.2221
      4  O3G      319.4840  186.4830  327.2110 O.3   500  GTP500     -0.1143
      5  O3B      318.4240  187.7760  325.1790 O.3   500  GTP500     -0.2258
      6  PB       319.6110  188.6890  324.4890 P.3   500  GTP500      0.2277
      7  O1B      320.1400  187.8510  323.3350 O.2   500  GTP500     -0.5168
      8  O2B      319.1280  190.0320  324.2070 O.3   500  GTP500     -0.4368
      9  O3A      320.7560  188.6600  325.5000 O.3   500  GTP500     -0.2700
     10  PA       322.0510  189.4420  325.7070 P.3   500  GTP500      0.2189
     11  O1A      321.8240  190.8990  325.6660 O.2   500  GTP500     -0.5170
     12  O2A      322.6970  188.9190  326.9450 O.3   500  GTP500     -0.4371
     13  O5'      322.9900  188.9560  324.4480 O.3   500  GTP500     -0.3112
     14  C5'      324.2670  189.5750  324.4440 C.3   500  GTP500      0.1813
     15  C4'      325.1840  189.1780  323.3320 C.3   500  GTP500      0.1799
     16  O4'      324.9730  190.0220  322.1720 O.3   500  GTP500     -0.3326
     17  C3'      326.6090  189.4350  323.7760 C.3   500  GTP500      0.2158
     18  O3'      327.4880  188.5880  323.0740 O.3   500  GTP500     -0.2175
     19  C2'      326.7830  190.9070  323.4350 C.3   500  GTP500      0.2310
     20  O2'      328.1680  191.1820  323.2120 O.3   500  GTP500     -0.2158
     21  C1'      325.9400  191.0860  322.1630 C.3   500  GTP500      0.2293
     22  N9       325.2110  192.3610  322.0560 N.pl3 500  GTP500     -0.2354
     23  C8       324.2910  192.8670  322.9450 C.3   500  GTP500      0.2246
     24  N7       323.8060  194.0240  322.5890 N.2   500  GTP500     -0.2322
     25  C5       324.4460  194.3150  321.4080 C.2   500  GTP500      0.2182
     26  C6       324.3410  195.4260  320.5720 C.1   500  GTP500      0.2372
     27  O6       323.6080  196.3980  320.7370 O.2   500  GTP500     -0.2069
     28  N1       325.1720  195.3500  319.4320 N.2   500  GTP500     -0.2485
     29  C2       326.0220  194.3010  319.1510 C.1   500  GTP500      0.2531
     30  N2       326.7260  194.4000  318.0610 N.pl3 500  GTP500     -0.0226
     31  N3       326.1420  193.2370  319.9440 N.2   500  GTP500     -0.3074
     32  C4       325.3300  193.2930  321.0480 C.2   500  GTP500      0.2300
@<TRIPOS>BOND
     1    30    29    1
     2    29    28    2
     3    29    31    2
     4    28    26    2
     5    31    32    2
     6    26    27    2
     7    26    25    1
     8    32    25    1
     9    32    22    1
    10    25    24    2
    11    22    21    1
    12    22    23    1
    13    21    16    1
    14    21    19    1
    15    16    15    1
    16    24    23    1
    17    18    17    1
    18    20    19    1
    19    15    17    1
    20    15    14    1
    21     7     6    2
    22    19    17    1
    23     8     6    1
    24    14    13    1
    25    13    10    1
    26     6     5    1
    27     6     9    1
    28     5     1    1
    29     9    10    1
    30    11    10    2
    31    10    12    1
    32     1     3    2
    33     1     4    1
    34     1     2    1
