@<TRIPOS>MOLECULE
4abo_GSP_A_1.pdb
 32 34 0 0 0
SMALL
GASTEIGER

@<TRIPOS>ATOM
      1  PG       317.7790  187.4000  369.3080 P.3   1438  GSP1438     0.4340
      2  O3B      318.7700  188.0240  368.1560 O.3   1438  GSP1438    -0.2405
      3  S1G      318.9660  187.5930  370.7410 S.3   1438  GSP1438     0.0416
      4  O2G      316.5780  188.2580  369.1730 O.2   1438  GSP1438    -0.2423
      5  O3G      317.6770  185.9120  369.2250 O.3   1438  GSP1438    -0.1305
      6  PB       318.4150  188.3090  366.5560 P.3   1438  GSP1438     0.2262
      7  O1B      317.8120  187.0520  366.1740 O.2   1438  GSP1438    -0.5168
      8  O2B      317.6080  189.5130  366.1880 O.3   1438  GSP1438    -0.4369
      9  PA       320.8160  189.7320  366.1700 P.3   1438  GSP1438     0.2189
     10  O1A      320.2710  190.9640  365.5160 O.2   1438  GSP1438    -0.5170
     11  O2A      321.1450  189.6720  367.6330 O.3   1438  GSP1438    -0.4371
     12  O3A      319.8570  188.5320  365.8620 O.3   1438  GSP1438    -0.2701
     13  O5'      322.1900  189.2990  365.3560 O.3   1438  GSP1438    -0.3112
     14  C5'      323.3080  188.5550  365.9530 C.3   1438  GSP1438     0.1813
     15  C4'      324.4350  188.5710  364.9340 C.3   1438  GSP1438     0.1799
     16  O4'      324.2050  189.6280  363.9350 O.3   1438  GSP1438    -0.3326
     17  C3'      325.8250  188.9390  365.5600 C.3   1438  GSP1438     0.2158
     18  O3'      326.8300  188.1690  364.8330 O.3   1438  GSP1438    -0.2175
     19  C2'      326.0150  190.4840  365.2660 C.3   1438  GSP1438     0.2310
     20  O2'      327.4280  190.8170  365.0810 O.3   1438  GSP1438    -0.2158
     21  C1'      325.1690  190.7120  363.9490 C.3   1438  GSP1438     0.2293
     22  N9       324.2810  191.9190  363.9090 N.pl3 1438  GSP1438    -0.2354
     23  C8       323.2460  192.3660  364.7150 C.3   1438  GSP1438     0.2246
     24  N7       322.6750  193.4820  364.3620 N.2   1438  GSP1438    -0.2322
     25  C5       323.3920  193.8170  363.2040 C.2   1438  GSP1438     0.2182
     26  C6       323.2210  194.9770  362.3330 C.1   1438  GSP1438     0.2372
     27  O6       322.3650  195.8460  362.5330 O.2   1438  GSP1438    -0.2069
     28  N1       324.1500  194.9280  361.2800 N.2   1438  GSP1438    -0.2485
     29  C2       325.1150  193.9410  361.0510 C.1   1438  GSP1438     0.2531
     30  N2       325.9230  194.0370  360.0130 N.pl3 1438  GSP1438    -0.0226
     31  N3       325.2680  192.8610  361.8690 N.2   1438  GSP1438    -0.3074
     32  C4       324.3700  192.8630  362.9250 C.2   1438  GSP1438     0.2300
@<TRIPOS>BOND
     1    30    29    1
     2    29    28    2
     3    29    31    2
     4    28    26    2
     5    31    32    2
     6    26    27    2
     7    26    25    1
     8    32    25    1
     9    32    22    1
    10    25    24    2
    11    22    21    1
    12    22    23    1
    13    16    21    1
    14    16    15    1
    15    21    19    1
    16    24    23    1
    17    18    17    1
    18    15    17    1
    19    15    14    1
    20    20    19    1
    21    19    17    1
    22    13    14    1
    23    13     9    1
    24    10     9    2
    25    12     9    1
    26    12     6    1
    27     9    11    1
    28     7     6    2
    29     8     6    1
    30     6     2    1
    31     2     1    1
    32     4     1    2
    33     5     1    1
    34     1     3    1
