@<TRIPOS>MOLECULE
4abq_4V2_A_1.pdb
 13 14 0 0 0
SMALL
GASTEIGER

@<TRIPOS>ATOM
      1  OAA        2.8000   -0.1990   10.6430 O.3   1125  4V21125    -0.2866
      2  CAJ        1.5720   -0.1360   10.0610 C.ar  1125  4V21125     0.1959
      3  CAF        1.4620   -0.0440    8.6790 C.ar  1125  4V21125     0.0467
      4  CAD        0.4270   -0.1620   10.8500 C.ar  1125  4V21125     0.0420
      5  CAC       -0.8280   -0.0960   10.2550 C.ar  1125  4V21125     0.0034
      6  CAE       -0.9380   -0.0050    8.8730 C.ar  1125  4V21125     0.0049
      7  CAL        0.2070    0.0210    8.0840 C.ar  1125  4V21125     0.0591
      8  CAM        0.0970    0.1120    6.7020 C.2   1125  4V21125     0.2605
      9  OAI       -1.0500    0.5030    6.0840 O.3   1125  4V21125    -0.3771
     10  NAH        1.0230   -0.1460    5.7760 N.2   1125  4V21125    -0.0984
     11  NAG        0.5540    0.0500    4.6490 N.2   1125  4V21125    -0.0669
     12  CAK       -0.7100    0.4480    4.7720 C.1   1125  4V21125     0.1648
     13  SAB       -1.7740    0.8410    3.4400 S.2   1125  4V21125     0.0515
@<TRIPOS>BOND
     1    13    12    2
     2    11    12    2
     3    11    10    1
     4    12     9    1
     5    10     8    2
     6     9     8    1
     7     8     7    1
     8     7     3   ar
     9     7     6   ar
    10     3     2   ar
    11     6     5   ar
    12     2     1    1
    13     2     4   ar
    14     5     4   ar
