@<TRIPOS>MOLECULE
4abr_GDP_Z_1.pdb
 28 30 0 0 0
SMALL
GASTEIGER

@<TRIPOS>ATOM
      1  PB        25.3990   98.4480   27.2220 P.3   1407  GDP1407     0.5373
      2  O1B       24.7670   97.5680   28.2300 O.3   1407  GDP1407    -0.1143
      3  O2B       26.7630   98.0360   26.8200 O.2   1407  GDP1407    -0.2221
      4  O3B       25.2520   99.8950   27.4910 O.3   1407  GDP1407    -0.1143
      5  O3A       24.5100   98.2150   25.8980 O.3   1407  GDP1407    -0.2261
      6  PA        25.0620   97.2940   24.6990 P.3   1407  GDP1407     0.2231
      7  O1A       25.7080   96.0870   25.2620 O.3   1407  GDP1407    -0.4370
      8  O2A       25.8390   98.1280   23.7560 O.2   1407  GDP1407    -0.5169
      9  O5'       23.7190   96.8090   23.9620 O.3   1407  GDP1407    -0.3111
     10  C5'       22.8420   95.8860   24.6100 C.3   1407  GDP1407     0.1813
     11  C4'       21.8030   95.3670   23.6160 C.3   1407  GDP1407     0.1799
     12  O4'       21.2080   96.5020   22.9630 O.3   1407  GDP1407    -0.3326
     13  C3'       22.4800   94.5250   22.5310 C.3   1407  GDP1407     0.2158
     14  O3'       21.8070   93.2780   22.3430 O.3   1407  GDP1407    -0.2175
     15  C2'       22.3520   95.3910   21.2790 C.3   1407  GDP1407     0.2310
     16  O2'       22.1470   94.5700   20.1260 O.3   1407  GDP1407    -0.2158
     17  C1'       21.0650   96.1540   21.5780 C.3   1407  GDP1407     0.2293
     18  N9        20.9810   97.3960   20.7620 N.pl3 1407  GDP1407    -0.2354
     19  C8        21.9740   98.2600   20.6140 C.3   1407  GDP1407     0.2246
     20  N7        21.5780   99.2720   19.8420 N.2   1407  GDP1407    -0.2322
     21  C5        20.3020   99.0410   19.4980 C.2   1407  GDP1407     0.2182
     22  C6        19.4080   99.7410   18.7150 C.1   1407  GDP1407     0.2372
     23  O6        19.7130  100.8310   18.2160 O.2   1407  GDP1407    -0.2069
     24  N1        18.1270   99.2120   18.5270 N.2   1407  GDP1407    -0.2485
     25  C2        17.7890   98.0000   19.1450 C.1   1407  GDP1407     0.2531
     26  N2        16.5860   97.4930   18.9990 N.pl3 1407  GDP1407    -0.0226
     27  N3        18.7020   97.3430   19.8990 N.2   1407  GDP1407    -0.3074
     28  C4        19.9380   97.8410   20.0810 C.2   1407  GDP1407     0.2300
@<TRIPOS>BOND
     1    23    22    2
     2    24    22    2
     3    24    25    2
     4    22    21    1
     5    26    25    1
     6    25    27    2
     7    21    20    2
     8    21    28    1
     9    20    19    1
    10    27    28    2
    11    28    18    1
    12    16    15    1
    13    19    18    1
    14    18    17    1
    15    15    17    1
    16    15    13    1
    17    17    12    1
    18    14    13    1
    19    13    11    1
    20    12    11    1
    21    11    10    1
    22     8     6    2
    23     9    10    1
    24     9     6    1
    25     6     7    1
    26     6     5    1
    27     5     1    1
    28     3     1    2
    29     1     4    1
    30     1     2    1
