@<TRIPOS>MOLECULE
4abu_FT1_A_1.pdb
 18 19 0 0 0
SMALL
GASTEIGER

@<TRIPOS>ATOM
      1  C1        -0.2970    0.3710   -7.1870 C.ar  1125  FT11125     0.1840
      2  C2         0.4800    0.0110   -8.2820 C.ar  1125  FT11125     0.2300
      3  C3        -0.1240   -0.2640   -9.5030 C.ar  1125  FT11125     0.0485
      4  C4        -1.5060   -0.1790   -9.6290 C.ar  1125  FT11125     0.0456
      5  C5        -2.2830    0.1810   -8.5340 C.ar  1125  FT11125     0.0066
      6  C6        -1.6780    0.4560   -7.3130 C.ar  1125  FT11125     0.0409
      7  O7         0.2950    0.6400   -5.9920 O.3   1125  FT11125    -0.4494
      8  C8        -0.2540   -0.1430   -5.0260 C.ar  1125  FT11125     0.1559
      9  C9         0.4660   -0.4310   -3.8720 C.ar  1125  FT11125     0.0929
     10  C10       -0.0950   -1.2310   -2.8840 C.ar  1125  FT11125     0.0259
     11  C11       -1.3760   -1.7440   -3.0490 C.ar  1125  FT11125     0.0587
     12  C12       -2.0960   -1.4570   -4.2030 C.ar  1125  FT11125     0.0146
     13  C13       -1.5350   -0.6560   -5.1910 C.ar  1125  FT11125     0.0392
     14  C14       -2.1710   -0.4820  -10.9730 C.2   1125  FT11125     0.2343
     15  O15       -3.3960   -0.5260  -11.0780 O.2   1125  FT11125    -0.2831
     16 CL1        -2.0740   -2.7410   -1.8190 Cl    1125  FT11125    -0.0822
     17 CL9         2.0610    0.2080   -3.6660 Cl    1125  FT11125    -0.0790
     18  O18        1.8320   -0.0720   -8.1580 O.3   1125  FT11125    -0.2833
@<TRIPOS>BOND
     1    15    14    2
     2    14     4    1
     3     4     3   ar
     4     4     5   ar
     5     3     2   ar
     6     5     6   ar
     7     2    18    1
     8     2     1   ar
     9     6     1   ar
    10     1     7    1
    11     7     8    1
    12    13     8   ar
    13    13    12   ar
    14     8     9   ar
    15    12    11   ar
    16     9    17    1
    17     9    10   ar
    18    11    10   ar
    19    11    16    1
