@<TRIPOS>MOLECULE
4abv_FT2_A_1.pdb
 18 19 0 0 0
SMALL
GASTEIGER

@<TRIPOS>ATOM
      1  C1         0.0080    0.4460    7.0030 C.ar  1125  FT21125     0.1839
      2  C2        -0.3630    0.2470    8.3410 C.ar  1125  FT21125     0.2296
      3  C3         0.5610    0.4400    9.3550 C.ar  1125  FT21125     0.0422
      4  C4         1.8380    0.8280    9.0240 C.ar  1125  FT21125    -0.0025
      5  C5         2.2400    1.0290    7.7140 C.ar  1125  FT21125     0.0003
      6  C6         1.3160    0.8220    6.7000 C.ar  1125  FT21125     0.0405
      7  O7        -0.8980    0.2130    5.9980 O.3   1125  FT21125    -0.4494
      8  C8        -1.0850    0.9720    4.8700 C.ar  1125  FT21125     0.1559
      9  C9        -0.0700    1.5280    4.1010 C.ar  1125  FT21125     0.0929
     10  C10       -0.4110    2.2850    2.9820 C.ar  1125  FT21125     0.0259
     11  C11       -1.7300    2.4800    2.6160 C.ar  1125  FT21125     0.0587
     12  C12       -2.7270    1.9210    3.3710 C.ar  1125  FT21125     0.0146
     13  C13       -2.3920    1.1720    4.4810 C.ar  1125  FT21125     0.0392
     14  C14        2.8040    0.9990   10.1260 C.3   1125  FT21125     0.1212
     15 CL15        3.1550   -0.6060   10.7350 Cl    1125  FT21125    -0.1085
     16 CL16       -2.1560    3.4230    1.2400 Cl    1125  FT21125    -0.0822
     17 CL17        1.5980    1.3230    4.5280 Cl    1125  FT21125    -0.0790
     18  O18       -1.6130   -0.1300    8.7110 O.3   1125  FT21125    -0.2833
@<TRIPOS>BOND
     1    16    11    1
     2    11    10   ar
     3    11    12   ar
     4    10     9   ar
     5    12    13   ar
     6     9    17    1
     7     9     8   ar
     8    13     8   ar
     9     8     7    1
    10     7     1    1
    11     6     1   ar
    12     6     5   ar
    13     1     2   ar
    14     5     4   ar
    15     2    18    1
    16     2     3   ar
    17     4     3   ar
    18     4    14    1
    19    14    15    1
