@<TRIPOS>MOLECULE
4abw_42M_A_1.pdb
 23 24 0 0 0
SMALL
GASTEIGER

@<TRIPOS>ATOM
      1  CAA       -2.5960    0.0600   10.0480 C.3   1125  42M1125     0.2526
      2  OAN       -2.0540   -0.1630    8.7430 O.3   1125  42M1125    -0.4684
      3  CAR       -0.7000   -0.0460    8.7890 C.ar  1125  42M1125     0.1727
      4  CAK       -0.0240   -0.2430    9.9870 C.ar  1125  42M1125     0.0383
      5  CAP        1.3600   -0.1230   10.0340 C.ar  1125  42M1125     0.0138
      6  CAM        2.1030   -0.3410   11.3530 C.3   1125  42M1125     0.2087
      7  OAD        3.5180   -0.2900   11.1590 O.3   1125  42M1125    -0.2152
      8  CAG        2.0680    0.1940    8.8810 C.ar  1125  42M1125     0.0016
      9  CAI        1.3930    0.3910    7.6820 C.ar  1125  42M1125     0.0404
     10  CAS        0.0090    0.2720    7.6360 C.ar  1125  42M1125     0.1790
     11  OAO       -0.6510    0.4650    6.4630 O.3   1125  42M1125    -0.4487
     12  CAT       -0.0250   -0.2210    5.4700 C.ar  1125  42M1125     0.1678
     13  CAJ        1.0390   -1.0640    5.7710 C.ar  1125  42M1125     0.0409
     14  CAH        1.6790   -1.7650    4.7560 C.ar  1125  42M1125     0.0273
     15  CAQ        1.2560   -1.6230    3.4390 C.ar  1125  42M1125     0.1447
     16  NAV        1.8690   -2.2940    2.4680 N.pl3 1125  42M1125     0.0577
     17  OAE        2.6130   -1.5930    1.4810 O.2   1125  42M1125    -0.1261
     18  OAB        1.7800   -3.7110    2.4170 O.2   1125  42M1125    -0.1261
     19  CAL        0.1930   -0.7800    3.1380 C.ar  1125  42M1125     0.0513
     20  CAU       -0.4480   -0.0790    4.1530 C.ar  1125  42M1125     0.1788
     21  NAW       -1.4650    0.7270    3.8650 N.pl3 1125  42M1125     0.0608
     22  OAF       -2.5430    0.8660    4.7800 O.2   1125  42M1125    -0.1260
     23  OAC       -1.4750    1.4500    2.6420 O.2   1125  42M1125    -0.1260
@<TRIPOS>BOND
     1    17    16    2
     2    18    16    2
     3    16    15    1
     4    23    21    2
     5    19    15   ar
     6    19    20   ar
     7    15    14   ar
     8    21    20    1
     9    21    22    2
    10    20    12   ar
    11    14    13   ar
    12    12    13   ar
    13    12    11    1
    14    11    10    1
    15    10     9   ar
    16    10     3   ar
    17     9     8   ar
    18     2     3    1
    19     2     1    1
    20     3     4   ar
    21     8     5   ar
    22     4     5   ar
    23     5     6    1
    24     7     6    1
