@<TRIPOS>MOLECULE
4abz_T1C_A_1.pdb
 42 45 0 0 0
SMALL
GASTEIGER

@<TRIPOS>ATOM
      1  C94       27.4010   47.6680   30.9290 C.3   1209  T1C1209     0.0175
      2  C93       26.0240   47.0180   30.8480 C.3   1209  T1C1209     0.0601
      3  C95       25.6390   46.9170   29.3690 C.3   1209  T1C1209     0.0175
      4  C96       24.9440   47.8410   31.6180 C.3   1209  T1C1209     0.0175
      5  N92       26.1540   45.6690   31.5050 N.3   1209  T1C1209    -0.2113
      6  C92       25.0960   44.6960   31.1590 C.3   1209  T1C1209     0.1756
      7  C91       24.6330   43.8700   32.3840 C.2   1209  T1C1209     0.2634
      8  O91       25.0050   44.1380   33.5260 O.2   1209  T1C1209    -0.2714
      9  N9        23.8110   42.8860   32.0650 N.am  1209  T1C1209    -0.1747
     10  C9        23.1990   42.0040   32.8970 C.ar  1209  T1C1209     0.1135
     11  C8        22.5170   42.3540   34.0750 C.ar  1209  T1C1209     0.0340
     12  C7        21.8460   41.3600   34.8210 C.ar  1209  T1C1209     0.0455
     13  N7        21.1650   41.6250   35.9810 N.pl3 1209  T1C1209    -0.3043
     14  C71       22.0310   41.2050   37.1200 C.3   1209  T1C1209     0.1122
     15  C72       20.8850   43.0570   36.2460 C.3   1209  T1C1209     0.1122
     16  C61       21.8850   40.0070   34.3930 C.ar  1209  T1C1209    -0.0023
     17  C6        21.1430   38.9760   35.2170 C.3   1209  T1C1209     0.0324
     18  C51       21.7620   37.6030   35.0980 C.3   1209  T1C1209     0.0330
     19  C5        20.9400   36.5460   35.8350 C.3   1209  T1C1209     0.0096
     20  C41       21.7160   35.1950   35.6200 C.3   1209  T1C1209     0.0596
     21  C4        21.2190   33.9810   36.4810 C.3   1209  T1C1209     0.0922
     22  N4        22.1760   33.2050   37.3700 N.3   1209  T1C1209    -0.2692
     23  C43       23.3670   32.7010   36.6450 C.3   1209  T1C1209     0.0897
     24  C42       22.6670   34.0550   38.4800 C.3   1209  T1C1209     0.0897
     25  C3        20.1090   33.2100   35.8290 C.3   1209  T1C1209     0.1823
     26  O3        19.6550   32.2610   36.5900 O.3   1209  T1C1209    -0.2207
     27  C2        19.4080   33.5680   34.6740 C.3   1209  T1C1209     0.1715
     28  C21       18.0780   32.9170   34.2650 C.2   1209  T1C1209     0.2700
     29  O21       17.5020   32.0530   34.9300 O.2   1209  T1C1209    -0.2711
     30  N21       17.6120   33.2620   33.0750 N.am  1209  T1C1209    -0.0874
     31  C1        19.9970   34.5080   33.8780 C.2   1209  T1C1209     0.1960
     32  O1        19.4330   34.7720   32.7980 O.2   1209  T1C1209    -0.2924
     33  C1C       21.4470   34.9140   34.1940 C.3   1209  T1C1209     0.2327
     34  O1C       22.2530   33.7430   33.8090 O.3   1209  T1C1209    -0.2101
     35  C12       22.0120   35.9530   33.2010 C.2   1209  T1C1209     0.2063
     36  O12       22.4430   35.5320   31.9460 O.2   1209  T1C1209    -0.2885
     37  C1B       22.1180   37.2760   33.6270 C.2   1209  T1C1209     0.0543
     38  C11       22.5920   38.3040   32.8210 C.2   1209  T1C1209     0.1973
     39  O11       22.9740   38.0350   31.7030 O.2   1209  T1C1209    -0.2867
     40  C1A       22.6060   39.6580   33.2540 C.ar  1209  T1C1209     0.0762
     41  C10       23.2030   40.6630   32.4960 C.ar  1209  T1C1209     0.2136
     42  O10       23.8420   40.3650   31.3530 O.3   1209  T1C1209    -0.2851
@<TRIPOS>BOND
     1     3     2    1
     2     2     1    1
     3     2     5    1
     4     2     4    1
     5     6     5    1
     6     6     7    1
     7    42    41    1
     8    39    38    2
     9    36    35    1
    10     9     7   am
    11     9    10    1
    12     7     8    2
    13    41    10   ar
    14    41    40   ar
    15    32    31    2
    16    38    40    1
    17    38    37    1
    18    10    11   ar
    19    30    28   am
    20    35    37    2
    21    35    33    1
    22    40    16   ar
    23    37    18    1
    24    34    33    1
    25    31    33    1
    26    31    27    1
    27    11    12   ar
    28    33    20    1
    29    28    27    1
    30    28    29    2
    31    16    12   ar
    32    16    17    1
    33    27    25    1
    34    12    13    1
    35    18    17    1
    36    18    19    1
    37    20    19    1
    38    20    21    1
    39    25    21    1
    40    25    26    1
    41    13    15    1
    42    13    14    1
    43    21    22    1
    44    23    22    1
    45    22    24    1
