@<TRIPOS>MOLECULE
4ac0_MIY_A_1.pdb
 33 36 0 0 0
SMALL
GASTEIGER

@<TRIPOS>ATOM
      1  O8        16.5370   -4.2000   -8.0720 O.2   1204  MIY1204    -0.2665
      2  C21       16.4590   -3.0070   -8.4750 C.2   1204  MIY1204     0.2899
      3  N2        17.4460   -2.3790   -9.1640 N.am  1204  MIY1204    -0.0835
      4  C2        15.1720   -2.3900   -8.3290 C.2   1204  MIY1204     0.1300
      5  C1        14.9780   -1.0550   -8.7920 C.2   1204  MIY1204     0.2148
      6  O1        15.7390   -0.5100   -9.6020 O.2   1204  MIY1204    -0.2880
      7  C3        14.1930   -3.0890   -7.7570 C.2   1204  MIY1204     0.1948
      8  O2        14.4900   -4.3090   -7.3020 O.2   1204  MIY1204    -0.2897
      9  C4        12.7690   -2.6000   -7.6530 C.3   1204  MIY1204     0.1235
     10  N1        12.1260   -2.9310   -6.3540 N.3   1204  MIY1204    -0.2651
     11  C20       10.6660   -2.5930   -6.4270 C.3   1204  MIY1204     0.0900
     12  C19       12.7520   -2.2660   -5.1680 C.3   1204  MIY1204     0.0900
     13  C5        12.6120   -1.1450   -8.1770 C.3   1204  MIY1204     0.0649
     14  C18       13.8860   -0.3190   -8.0820 C.3   1204  MIY1204     0.2367
     15  O7        14.2570   -0.0490   -6.7160 O.3   1204  MIY1204    -0.2098
     16  C17       13.8220    1.0080   -8.7510 C.2   1204  MIY1204     0.2066
     17  O6        14.6750    1.9590   -8.3310 O.2   1204  MIY1204    -0.2885
     18  C16       12.9680    1.2150   -9.7350 C.2   1204  MIY1204     0.0543
     19  C7        11.9920    0.1280  -10.1600 C.3   1204  MIY1204     0.0330
     20  C6        12.5080   -1.2100   -9.6890 C.3   1204  MIY1204     0.0100
     21  C15       12.9130    2.5150  -10.4020 C.2   1204  MIY1204     0.1973
     22  O5        13.6790    3.4670  -10.0440 O.2   1204  MIY1204    -0.2867
     23  C14       12.0830    2.6090  -11.6510 C.ar  1204  MIY1204     0.0748
     24  C9        11.5000    1.4540  -12.2480 C.ar  1204  MIY1204    -0.0024
     25  C8        11.7460    0.0600  -11.6630 C.3   1204  MIY1204     0.0324
     26  C13       11.9220    3.8800  -12.2010 C.ar  1204  MIY1204     0.1985
     27  O4        12.4910    4.8960  -11.5740 O.3   1204  MIY1204    -0.2865
     28  C12       11.1300    4.0320  -13.3570 C.ar  1204  MIY1204     0.0434
     29  C11       10.5520    2.8860  -13.9430 C.ar  1204  MIY1204     0.0175
     30  C10       10.7430    1.5670  -13.4410 C.ar  1204  MIY1204     0.0442
     31  N7        10.1260    0.3800  -14.0540 N.pl3 1204  MIY1204    -0.3043
     32  CN7        9.2940   -0.4220  -13.1030 C.3   1204  MIY1204     0.1122
     33  C71        9.2760    0.7810  -15.1530 C.3   1204  MIY1204     0.1122
@<TRIPOS>BOND
     1    33    31    1
     2    31    30    1
     3    31    32    1
     4    29    30   ar
     5    29    28   ar
     6    30    24   ar
     7    28    26   ar
     8    24    25    1
     9    24    23   ar
    10    26    23   ar
    11    26    27    1
    12    25    19    1
    13    23    21    1
    14    21    22    2
    15    21    18    1
    16    19    18    1
    17    19    20    1
    18    18    16    2
    19    20    13    1
    20     6     5    2
    21     3     2   am
    22     5     4    1
    23     5    14    1
    24    16    17    1
    25    16    14    1
    26     2     4    1
    27     2     1    2
    28     4     7    2
    29    13    14    1
    30    13     9    1
    31    14    15    1
    32     7     9    1
    33     7     8    1
    34     9    10    1
    35    11    10    1
    36    10    12    1
