@<TRIPOS>MOLECULE
4ac1_NAG_X_1.pdb
 14 14 0 0 0
SMALL
GASTEIGER

@<TRIPOS>ATOM
      1  C1        18.1540   35.6910   25.6750 C.3   302  NAG302      0.1665
      2  C2        18.5120   34.2730   26.1290 C.3   302  NAG302      0.1576
      3  C3        19.5560   33.6670   25.1950 C.3   302  NAG302      0.2069
      4  C4        19.0200   33.7060   23.7680 C.3   302  NAG302      0.2134
      5  C5        18.6210   35.1390   23.4090 C.3   302  NAG302      0.1809
      6  C6        17.9520   35.2030   22.0450 C.3   302  NAG302      0.2141
      7  C7        18.3770   33.4630   28.4090 C.2   302  NAG302      0.2420
      8  C8        18.9110   33.5540   29.8020 C.3   302  NAG302      0.0964
      9  N2        18.9520   34.2660   27.5090 N.am  302  NAG302     -0.2019
     10  O3        19.8320   32.3430   25.5960 O.3   302  NAG302     -0.2184
     11  O4        19.9930   33.2470   22.8490 O.3   302  NAG302     -0.2176
     12  O5        17.6860   35.6560   24.3500 O.3   302  NAG302     -0.3489
     13  O6        17.9830   36.5420   21.5990 O.3   302  NAG302     -0.2176
     14  O7        17.4570   32.6920   28.1390 O.2   302  NAG302     -0.2733
@<TRIPOS>BOND
     1    13     6    1
     2     6     5    1
     3    11     4    1
     4     5     4    1
     5     5    12    1
     6     4     3    1
     7    12     1    1
     8     3    10    1
     9     3     2    1
    10     1     2    1
    11     2     9    1
    12     9     7   am
    13    14     7    2
    14     7     8    1
