@<TRIPOS>MOLECULE
4ac2_43F_A_1.pdb
 19 20 0 0 0
SMALL
GASTEIGER

@<TRIPOS>ATOM
      1  C1         0.0670    0.4200    7.0660 C.ar  1125  43F1125     0.1790
      2  C2        -0.4950   -0.0820    8.2390 C.ar  1125  43F1125     0.1727
      3  C3         0.1730    0.0000    9.3980 C.ar  1125  43F1125     0.0370
      4  C4         1.4340    0.6300    9.4130 C.ar  1125  43F1125    -0.0027
      5  C5         2.0120    1.1330    8.2590 C.ar  1125  43F1125     0.0003
      6  C6         1.3100    1.0300    7.0760 C.ar  1125  43F1125     0.0404
      7  O7        -0.5880    0.3470    5.8750 O.3   1125  43F1125    -0.4496
      8  C8         0.0370   -0.3900    4.9000 C.ar  1125  43F1125     0.1559
      9  C9        -0.3630   -0.2280    3.5850 C.ar  1125  43F1125     0.0929
     10  C10        0.2390   -0.9620    2.5620 C.ar  1125  43F1125     0.0259
     11  C11        1.2430   -1.8900    2.8470 C.ar  1125  43F1125     0.0587
     12  C12        1.6410   -2.0490    4.1680 C.ar  1125  43F1125     0.0146
     13  C13        1.0460   -1.3040    5.1850 C.ar  1125  43F1125     0.0392
     14  C14        2.2210    0.7340   10.6740 C.3   1125  43F1125     0.1212
     15 CL1         3.1340   -0.7690   10.6860 Cl    1125  43F1125    -0.1085
     16 CL2         1.9910   -2.8460    1.5960 Cl    1125  43F1125    -0.0822
     17 CL3        -1.6130    0.9210    3.2640 Cl    1125  43F1125    -0.0790
     18  O18       -1.7000   -0.6770    8.2740 O.3   1125  43F1125    -0.4684
     19  CAA       -1.5350   -2.0360    7.9010 C.3   1125  43F1125     0.2526
@<TRIPOS>BOND
     1    16    11    1
     2    10    11   ar
     3    10     9   ar
     4    11    12   ar
     5    17     9    1
     6     9     8   ar
     7    12    13   ar
     8     8    13   ar
     9     8     7    1
    10     7     1    1
    11     1     6   ar
    12     1     2   ar
    13     6     5   ar
    14    19    18    1
    15     2    18    1
    16     2     3   ar
    17     5     4   ar
    18     3     4   ar
    19     4    14    1
    20    14    15    1
