@<TRIPOS>MOLECULE
4ac3_R83_A_1.pdb
 31 33 0 0 0
SMALL
GASTEIGER

@<TRIPOS>ATOM
      1  C1        43.9180   41.1500   80.2640 C.3   1460  R831460     0.2525
      2  O2        44.0470   39.7090   79.9980 O.3   1460  R831460    -0.4700
      3  C3        44.4520   38.9560   81.1050 C.ar  1460  R831460     0.1570
      4  C4        44.3370   39.4320   82.4230 C.ar  1460  R831460     0.0765
      5  C5        44.7370   38.6260   83.4500 C.ar  1460  R831460     0.1604
      6  O6        44.7420   39.0660   84.7580 O.3   1460  R831460    -0.4700
      7  C7        44.0770   40.3840   84.9730 C.3   1460  R831460     0.2525
      8  C8        45.2730   37.3500   83.1650 C.ar  1460  R831460     0.1588
      9  C9        45.3130   36.8540   81.8660 C.ar  1460  R831460     0.0427
     10  C10       44.8750   37.6420   80.8440 C.ar  1460  R831460     0.1087
     11  N11       44.9120   37.2800   79.4850 N.am  1460  R831460    -0.1761
     12  C12       45.8380   36.4750   78.8610 C.2   1460  R831460     0.2462
     13  O13       46.6530   35.8460   79.5690 O.2   1460  R831460    -0.2730
     14  C14       45.6810   36.2960   77.3440 C.3   1460  R831460     0.0968
     15  S15       45.7660   36.3010   84.4620 S.O2  1460  R831460     0.0801
     16  O16       46.6890   36.9190   85.2940 O.2   1460  R831460    -0.1515
     17  O17       46.0100   35.0430   83.8310 O.2   1460  R831460    -0.1515
     18  N18       44.4240   36.0370   85.4810 N.3   1460  R831460    -0.0728
     19  C19       43.1130   35.5830   84.9690 C.3   1460  R831460     0.1430
     20  C20       42.0940   36.6920   85.1560 C.ar  1460  R831460     0.0105
     21  C21       41.1720   36.8930   84.1150 C.ar  1460  R831460    -0.0016
     22  C22       40.2340   37.9200   84.2570 C.ar  1460  R831460    -0.0002
     23  C23       40.1890   38.7120   85.4080 C.ar  1460  R831460     0.0012
     24  C24       41.0730   38.4870   86.4810 C.ar  1460  R831460     0.0142
     25  C25       42.0250   37.4700   86.3550 C.ar  1460  R831460     0.0452
     26  N26       42.9120   37.2140   87.4090 N.pl3 1460  R831460    -0.3077
     27  C27       43.0920   38.2780   88.4100 C.3   1460  R831460     0.0908
     28  C28       44.2410   37.8860   89.3970 C.3   1460  R831460     0.0215
     29  C29       44.1110   36.4470   89.9350 C.3   1460  R831460     0.0035
     30  C30       43.5810   35.4320   88.8850 C.3   1460  R831460     0.0215
     31  C31       42.3910   36.0540   88.1340 C.3   1460  R831460     0.0908
@<TRIPOS>BOND
     1    14    12    1
     2    12    11   am
     3    12    13    2
     4    11    10    1
     5     2     1    1
     6     2     3    1
     7    10     3   ar
     8    10     9   ar
     9     3     4   ar
    10     9     8   ar
    11     4     5   ar
    12     8     5   ar
    13     8    15    1
    14     5     6    1
    15    17    15    2
    16    21    22   ar
    17    21    20   ar
    18    22    23   ar
    19    15    16    2
    20    15    18    1
    21     6     7    1
    22    19    20    1
    23    19    18    1
    24    20    25   ar
    25    23    24   ar
    26    25    24   ar
    27    25    26    1
    28    26    31    1
    29    26    27    1
    30    31    30    1
    31    27    28    1
    32    30    29    1
    33    28    29    1
