@<TRIPOS>MOLECULE
4ac4_HKA_A_1.pdb
 18 19 0 0 0
SMALL
GASTEIGER

@<TRIPOS>ATOM
      1  CAL        0.1950    0.3750   27.8000 C.ar  1125  HKA1125     0.1732
      2  CAJ       -0.2850   -0.3660   28.6610 C.ar  1125  HKA1125     0.0466
      3  CAP       -0.9830   -1.4610   28.5250 C.ar  1125  HKA1125     0.0830
      4  CAI       -1.2070   -1.7470   27.2700 C.ar  1125  HKA1125     0.0099
      5  CAK       -0.6930   -1.0250   26.2290 C.ar  1125  HKA1125     0.0409
      6  CAR        0.0290   -0.0350   26.5830 C.ar  1125  HKA1125     0.1789
      7  CAO       -1.4480   -2.1210   29.8600 C.2   1125  HKA1125     0.3879
      8  OAN        0.4690    0.6400   25.7590 O.3   1125  HKA1125    -0.4504
      9  OAB       -1.3920   -1.3640   30.7100 O.co2 1125  HKA1125    -0.2406
     10  OAA       -1.8140   -3.2570   30.1100 O.co2 1125  HKA1125    -0.2406
     11  CAM        1.5090    1.5750   29.4720 C.3   1125  HKA1125     0.2526
     12  CAG        1.1660   -0.2820   23.8140 C.ar  1125  HKA1125     0.0375
     13  CAE        0.8960   -0.3810   22.5270 C.ar  1125  HKA1125     0.0031
     14  C2         0.1740    0.3110   24.5840 C.ar  1125  HKA1125     0.1454
     15  CAD       -0.2320   -0.1080   21.9330 C.ar  1125  HKA1125     0.0002
     16  CAF       -1.2010    0.3680   22.7320 C.ar  1125  HKA1125     0.0031
     17  OAL        0.9440    1.3920   28.1450 O.3   1125  HKA1125    -0.4683
     18  CAH       -1.0160    0.6700   23.9930 C.ar  1125  HKA1125     0.0375
@<TRIPOS>BOND
     1    15    13   ar
     2    15    16   ar
     3    13    12   ar
     4    16    18   ar
     5    12    14   ar
     6    18    14   ar
     7    14     8    1
     8     8     6    1
     9     5     6   ar
    10     5     4   ar
    11     6     1   ar
    12     4     3   ar
    13     1    17    1
    14     1     2   ar
    15    17    11    1
    16     3     2   ar
    17     3     7    1
    18     7    10   ar
    19     7     9   ar
