@<TRIPOS>MOLECULE
4ac5_NS5_M_1.pdb
 40 39 0 0 0
SMALL
GASTEIGER

@<TRIPOS>ATOM
      1  C1         1.1730   44.2770  -45.7820 C.3   1329  NS51329     0.0000
      2  CM1        1.7060   45.4010  -44.8870 C.3   1329  NS51329     0.0000
      3  CM2       -0.2090   43.7960  -45.3040 C.3   1329  NS51329     0.0000
      4  C2         2.1630   43.1080  -45.8440 C.3   1329  NS51329     0.0003
      5  C3         2.8540   43.0370  -47.2070 C.3   1329  NS51329     0.0043
      6  C4         2.7780   41.6320  -47.8050 C.3   1329  NS51329     0.0220
      7  C5         2.5940   41.7180  -49.3040 C.2   1329  NS51329    -0.0439
      8  C6         1.2050   41.8630  -49.8640 C.3   1329  NS51329     0.0264
      9  C7         3.6710   41.6580  -50.1120 C.2   1329  NS51329    -0.0085
     10  C8         3.5430   41.7480  -51.5680 C.2   1329  NS51329    -0.0010
     11  C9         3.6950   40.7310  -52.4210 C.2   1329  NS51329    -0.0043
     12  C10        4.0280   39.3300  -52.0800 C.2   1329  NS51329    -0.0218
     13  C11        3.0560   38.4770  -51.3080 C.3   1329  NS51329     0.0310
     14  C12        5.2090   38.8400  -52.5020 C.2   1329  NS51329    -0.0043
     15  C13        5.6390   37.4640  -52.2520 C.2   1329  NS51329    -0.0006
     16  C14        6.0780   36.7540  -53.2920 C.2   1329  NS51329    -0.0043
     17  C15        6.5210   35.3500  -53.1730 C.2   1329  NS51329    -0.0218
     18  C16        5.5210   34.3210  -52.7230 C.3   1329  NS51329     0.0310
     19  C17        7.7870   34.9970  -53.4820 C.2   1329  NS51329    -0.0043
     20  C18        8.2050   33.5960  -53.3710 C.2   1329  NS51329    -0.0003
     21  C19        9.4380   33.1270  -53.5780 C.2   1329  NS51329    -0.0003
     22  C20       10.6110   33.9220  -53.9500 C.2   1329  NS51329    -0.0043
     23  C21       11.8450   33.3950  -53.8170 C.2   1329  NS51329    -0.0218
     24  C22       12.0190   31.9950  -53.2890 C.3   1329  NS51329     0.0310
     25  C23       13.0380   34.1830  -54.1970 C.2   1329  NS51329    -0.0043
     26  C24       14.2350   33.8990  -53.6810 C.2   1329  NS51329    -0.0010
     27  C25       15.4220   34.6670  -54.0590 C.2   1329  NS51329    -0.0085
     28  C26       16.5380   34.7060  -53.3060 C.2   1329  NS51329    -0.0436
     29  C27       16.6200   33.9600  -52.0010 C.3   1329  NS51329     0.0264
     30  C28       17.7040   35.5350  -53.8040 C.3   1329  NS51329     0.0267
     31  C29       19.0690   34.9350  -53.4710 C.3   1329  NS51329     0.0297
     32  C30       20.1340   35.9620  -53.7880 C.2   1329  NS51329    -0.0343
     33  C31       21.2880   36.0910  -53.1070 C.2   1329  NS51329    -0.0482
     34  C32       21.6250   35.2050  -51.9380 C.3   1329  NS51329     0.0260
     35  C33       22.2640   37.1660  -53.5280 C.3   1329  NS51329     0.0217
     36  C34       23.3920   36.5910  -54.3830 C.3   1329  NS51329     0.0043
     37  C35       23.9400   37.6360  -55.3530 C.3   1329  NS51329     0.0003
     38  C36       25.1860   38.3250  -54.8000 C.3   1329  NS51329     0.0000
     39  CM3       24.9590   39.8190  -54.5980 C.3   1329  NS51329     0.0000
     40  CM4       26.4110   38.0590  -55.6680 C.3   1329  NS51329     0.0000
@<TRIPOS>BOND
     1    40    38    1
     2    37    38    1
     3    37    36    1
     4    38    39    1
     5    36    35    1
     6    25    23    1
     7    25    26    2
     8    27    26    1
     9    27    28    2
    10    22    23    2
    11    22    21    1
    12    23    24    1
    13    30    31    1
    14    30    28    1
    15    32    31    1
    16    32    33    2
    17    21    20    2
    18    35    33    1
    19    19    20    1
    20    19    17    2
    21    28    29    1
    22    16    17    1
    23    16    15    2
    24    17    18    1
    25    33    34    1
    26    14    15    1
    27    14    12    2
    28    11    12    1
    29    11    10    2
    30    12    13    1
    31    10     9    1
    32     9     7    2
    33     8     7    1
    34     7     6    1
    35     6     5    1
    36     5     4    1
    37     4     1    1
    38     1     3    1
    39     1     2    1
