@<TRIPOS>MOLECULE
4ac5_HEM_C_1.pdb
 43 50 0 0 0
SMALL
GASTEIGER

@<TRIPOS>ATOM
      1  CHA      -12.4840   38.6220 -110.6620 C.2   1333  HEM1333     0.0000
      2  CHB      -17.3370   38.6070 -110.5270 C.2   1333  HEM1333     0.0000
      3  CHC      -17.2730   39.0620 -105.6940 C.2   1333  HEM1333     0.0000
      4  CHD      -12.4190   39.1000 -105.7870 C.2   1333  HEM1333     0.0000
      5  C1A      -13.8040   38.6320 -111.0650 C.ar  1333  HEM1333     0.0000
      6  C2A      -14.2980   38.6660 -112.4310 C.ar  1333  HEM1333     0.0000
      7  C3A      -15.6380   38.6620 -112.3860 C.ar  1333  HEM1333     0.0000
      8  C4A      -16.0400   38.6250 -110.9940 C.ar  1333  HEM1333     0.0000
      9  CMA      -16.6110   38.6900 -113.5900 C.3   1333  HEM1333     0.0000
     10  CAA      -13.4240   38.7010 -113.7060 C.3   1333  HEM1333     0.0000
     11  CBA      -13.3530   40.1320 -114.2290 C.3   1333  HEM1333     0.0000
     12  CGA      -12.4800   40.1820 -115.4500 C.2   1333  HEM1333     0.0000
     13  O1A      -11.2360   40.1630 -115.2850 O.co2 1333  HEM1333     0.0000
     14  O2A      -13.0240   40.2460 -116.5820 O.co2 1333  HEM1333     0.0000
     15  C1B      -17.7500   38.6560 -109.2120 C.2   1333  HEM1333     0.0000
     16  C2B      -19.1080   38.4750 -108.7330 C.2   1333  HEM1333     0.0000
     17  C3B      -19.0930   38.5980 -107.3990 C.2   1333  HEM1333     0.0000
     18  C4B      -17.7250   38.8650 -106.9840 C.2   1333  HEM1333     0.0000
     19  CMB      -20.3410   38.1890 -109.6250 C.3   1333  HEM1333     0.0000
     20  CAB      -20.3110   38.4840 -106.4520 C.2   1333  HEM1333     0.0000
     21  CBB      -20.9940   37.3400 -106.3430 C.2   1333  HEM1333     0.0000
     22  C1C      -15.9540   39.0800 -105.2800 C.ar  1333  HEM1333     0.0000
     23  C2C      -15.4760   39.0960 -103.9080 C.ar  1333  HEM1333     0.0000
     24  C3C      -14.1330   39.1010 -103.9390 C.ar  1333  HEM1333     0.0000
     25  C4C      -13.7190   39.0960 -105.3280 C.ar  1333  HEM1333     0.0000
     26  CMC      -16.3830   39.1020 -102.6530 C.3   1333  HEM1333     0.0000
     27  CAC      -13.1430   39.1230 -102.7480 C.2   1333  HEM1333     0.0000
     28  CBC      -13.3230   38.4160 -101.6280 C.2   1333  HEM1333     0.0000
     29  C1D      -11.9860   38.8120 -107.0660 C.2   1333  HEM1333     0.0000
     30  C2D      -10.6720   38.3180 -107.4200 C.2   1333  HEM1333     0.0000
     31  C3D      -10.6870   38.1640 -108.9490 C.2   1333  HEM1333     0.0000
     32  C4D      -12.0120   38.5860 -109.3630 C.2   1333  HEM1333     0.0000
     33  CMD       -9.5010   38.0080 -106.4600 C.3   1333  HEM1333     0.0000
     34  CAD       -9.5250   37.6670 -109.8430 C.3   1333  HEM1333     0.0000
     35  CBD       -9.8430   36.2860 -110.4120 C.3   1333  HEM1333     0.0000
     36  CGD       -8.7350   35.3130 -110.0960 C.2   1333  HEM1333     0.0000
     37  O1D       -7.6060   35.4830 -110.6280 O.co2 1333  HEM1333     0.0000
     38  O2D       -8.9850   34.3590 -109.3130 O.co2 1333  HEM1333     0.0000
     39  NA       -14.8950   38.6130 -110.2190 N.ar  1333  HEM1333     0.0000
     40  NB       -16.9370   38.8850 -108.1190 N.2   1333  HEM1333     0.0000
     41  NC       -14.8510   39.0880 -106.1140 N.ar  1333  HEM1333     0.0000
     42  ND       -12.7370   38.9450 -108.2290 N.2   1333  HEM1333     0.0000
     43 FE        -14.8610   38.8790 -108.1670 Fe    1333  HEM1333     0.0000
@<TRIPOS>BOND
     1    14    12   ar
     2    12    13   ar
     3    12    11    1
     4    11    10    1
     5    10     6    1
     6     9     7    1
     7     6     7   ar
     8     6     5   ar
     9     7     8   ar
    10     5     1    2
    11     5    39   ar
    12     8     2    2
    13     8    39   ar
    14     1    32    1
    15    37    36   ar
    16     2    15    1
    17    35    36    1
    18    35    34    1
    19    39    43    1
    20    36    38   ar
    21    34    31    1
    22    19    16    1
    23    32    31    1
    24    32    42    2
    25    15    16    1
    26    15    40    2
    27    31    30    2
    28    16    17    2
    29    42    43    1
    30    42    29    1
    31    43    40    1
    32    43    41    1
    33    40    18    1
    34    30    29    1
    35    30    33    1
    36    17    18    1
    37    17    20    1
    38    29     4    2
    39    18     3    2
    40    20    21    2
    41    41    25   ar
    42    41    22   ar
    43     4    25    1
    44     3    22    1
    45    25    24   ar
    46    22    23   ar
    47    24    23   ar
    48    24    27    1
    49    23    26    1
    50    27    28    2
