@<TRIPOS>MOLECULE
4ac5_MQ7_M_1.pdb
 48 49 0 0 0
SMALL
GASTEIGER

@<TRIPOS>ATOM
      1  C1         1.3620   10.6520  -29.3620 C.2   1328  MQ71328     0.1915
      2  O1         0.7460   11.7420  -29.3540 O.2   1328  MQ71328    -0.2869
      3  C2         1.4720    9.8620  -30.6240 C.2   1328  MQ71328     0.0165
      4  C2M        0.8300   10.3960  -31.8840 C.3   1328  MQ71328     0.0342
      5  C3         2.2130    8.5610  -30.6300 C.2   1328  MQ71328     0.0202
      6  C4         2.8330    8.0560  -29.3690 C.2   1328  MQ71328     0.1918
      7  O4         3.4500    6.9680  -29.3640 O.2   1328  MQ71328    -0.2869
      8  C5         2.7220    8.8480  -28.1080 C.ar  1328  MQ71328     0.0417
      9  C6         3.2960    8.3970  -26.9200 C.ar  1328  MQ71328     0.0033
     10  C7         3.1810    9.1530  -25.7530 C.ar  1328  MQ71328     0.0001
     11  C8         2.4940   10.3690  -25.7490 C.ar  1328  MQ71328     0.0001
     12  C9         1.9000   10.8650  -26.9110 C.ar  1328  MQ71328     0.0033
     13  C10        1.9870   10.1450  -28.1030 C.ar  1328  MQ71328     0.0417
     14  C11        2.3340    7.7340  -31.8960 C.3   1328  MQ71328     0.0547
     15  C12        3.4550    8.2350  -32.7810 C.2   1328  MQ71328    -0.0298
     16  C13        4.5900    7.5490  -33.0070 C.2   1328  MQ71328    -0.0475
     17  C14        4.8370    6.2080  -32.3680 C.3   1328  MQ71328     0.0260
     18  C15        5.6260    8.1680  -33.9210 C.3   1328  MQ71328     0.0264
     19  C16        6.1490    7.1850  -34.9700 C.3   1328  MQ71328     0.0297
     20  C17        5.0830    6.7990  -35.9770 C.2   1328  MQ71328    -0.0342
     21  C18        5.0000    7.3120  -37.2200 C.2   1328  MQ71328    -0.0478
     22  C19        5.9720    8.3480  -37.7150 C.3   1328  MQ71328     0.0260
     23  C20        3.8900    6.8390  -38.1360 C.3   1328  MQ71328     0.0263
     24  C21        4.4060    5.7780  -39.1090 C.3   1328  MQ71328     0.0297
     25  C22        3.8860    4.4110  -38.7110 C.2   1328  MQ71328    -0.0342
     26  C23        4.0570    3.2980  -39.4540 C.2   1328  MQ71328    -0.0478
     27  C24        4.8030    3.3290  -40.7610 C.3   1328  MQ71328     0.0260
     28  C25        3.4980    1.9800  -38.9560 C.3   1328  MQ71328     0.0263
     29  C26        2.0790    1.7300  -39.4690 C.3   1328  MQ71328     0.0297
     30  C27        1.4600    0.5680  -38.7150 C.2   1328  MQ71328    -0.0342
     31  C28        0.1880    0.1470  -38.8830 C.2   1328  MQ71328    -0.0478
     32  C29       -0.7470    0.8180  -39.8520 C.3   1328  MQ71328     0.0260
     33  C30       -0.3200   -1.0240  -38.0680 C.3   1328  MQ71328     0.0263
     34  C31       -0.1040   -2.3480  -38.7960 C.3   1328  MQ71328     0.0297
     35  C32       -0.6170   -3.4880  -37.9410 C.2   1328  MQ71328    -0.0342
     36  C33       -1.6560   -4.2680  -38.2950 C.2   1328  MQ71328    -0.0478
     37  C34       -2.3870   -4.0590  -39.5940 C.3   1328  MQ71328     0.0260
     38  C35       -2.0870   -5.3870  -37.3710 C.3   1328  MQ71328     0.0263
     39  C36       -3.3270   -5.0130  -36.5630 C.3   1328  MQ71328     0.0297
     40  C37       -3.6070   -6.1280  -35.5790 C.2   1328  MQ71328    -0.0342
     41  C38       -4.8330   -6.6030  -35.2830 C.2   1328  MQ71328    -0.0478
     42  C39       -6.0750   -6.0430  -35.9190 C.3   1328  MQ71328     0.0260
     43  C40       -4.9660   -7.7260  -34.2790 C.3   1328  MQ71328     0.0263
     44  C41       -4.6320   -9.0690  -34.9240 C.3   1328  MQ71328     0.0297
     45  C42       -3.2070   -9.4580  -34.5900 C.2   1328  MQ71328    -0.0342
     46  C43       -2.2390   -9.5980  -35.5160 C.2   1328  MQ71328    -0.0478
     47  C44       -2.5010   -9.3780  -36.9800 C.3   1328  MQ71328     0.0260
     48  C45       -0.8590   -9.9870  -35.0780 C.3   1328  MQ71328     0.0260
@<TRIPOS>BOND
     1    27    26    1
     2    32    31    1
     3    37    36    1
     4    29    28    1
     5    29    30    1
     6    26    28    1
     7    26    25    2
     8    24    25    1
     9    24    23    1
    10    31    30    2
    11    31    33    1
    12    34    33    1
    13    34    35    1
    14    36    35    2
    15    36    38    1
    16    23    21    1
    17    22    21    1
    18    38    39    1
    19    21    20    2
    20    47    46    1
    21    39    40    1
    22    20    19    1
    23    42    41    1
    24    40    41    2
    25    46    48    1
    26    46    45    2
    27    41    43    1
    28    19    18    1
    29    44    45    1
    30    44    43    1
    31    18    16    1
    32    16    15    2
    33    16    17    1
    34    15    14    1
    35    14     5    1
    36     4     3    1
    37     5     3    2
    38     5     6    1
    39     3     1    1
    40     6     7    2
    41     6     8    1
    42     1     2    2
    43     1    13    1
    44     8    13   ar
    45     8     9   ar
    46    13    12   ar
    47     9    10   ar
    48    12    11   ar
    49    10    11   ar
