@<TRIPOS>MOLECULE
4ac7_FLC_C_1.pdb
 13 12 0 0 0
SMALL
GASTEIGER

@<TRIPOS>ATOM
      1  CAC       30.2050   71.3660   76.7930 C.2   1572  FLC1572     0.3680
      2  CA        28.8680   70.6740   76.7140 C.3   1572  FLC1572     0.1560
      3  CB        28.6650   70.0430   75.3400 C.3   1572  FLC1572     0.2402
      4  CBC       28.8530   71.1660   74.3300 C.2   1572  FLC1572     0.3927
      5  CG        29.6340   68.8660   75.0210 C.3   1572  FLC1572     0.1560
      6  CGC       29.4050   67.5930   75.8190 C.2   1572  FLC1572     0.3680
      7  OA1       30.2680   72.6310   76.6130 O.co2 1572  FLC1572    -0.2455
      8  OA2       31.1860   70.6400   77.0070 O.co2 1572  FLC1572    -0.2455
      9  OB1       27.8370   71.8950   74.0410 O.co2 1572  FLC1572    -0.2429
     10  OB2       30.0360   71.3690   73.8820 O.co2 1572  FLC1572    -0.2429
     11  OG1       29.8790   66.5320   75.3310 O.co2 1572  FLC1572    -0.2455
     12  OG2       28.7760   67.6060   76.9200 O.co2 1572  FLC1572    -0.2455
     13  OHB       27.3240   69.5890   75.3120 O.3   1572  FLC1572    -0.2129
@<TRIPOS>BOND
     1    10     4   ar
     2     9     4   ar
     3     4     3    1
     4     5     3    1
     5     5     6    1
     6    13     3    1
     7    11     6   ar
     8     3     2    1
     9     6    12   ar
    10     7     1   ar
    11     2     1    1
    12     1     8   ar
