@<TRIPOS>MOLECULE
4ac9_GDP_A_1.pdb
 28 30 0 0 0
SMALL
GASTEIGER

@<TRIPOS>ATOM
      1  PB        26.0240  -48.1020  -45.2710 P.3   1469  GDP1469     0.5373
      2  O1B       25.2130  -47.5430  -46.4160 O.2   1469  GDP1469    -0.2221
      3  O2B       26.2810  -47.0010  -44.2710 O.3   1469  GDP1469    -0.1143
      4  O3B       25.2560  -49.2310  -44.6250 O.3   1469  GDP1469    -0.1143
      5  O3A       27.4300  -48.6340  -45.8440 O.3   1469  GDP1469    -0.2261
      6  PA        28.4030  -49.5670  -44.9640 P.3   1469  GDP1469     0.2231
      7  O1A       29.5950  -48.7640  -44.5020 O.2   1469  GDP1469    -0.5169
      8  O2A       27.6910  -50.1800  -43.7830 O.3   1469  GDP1469    -0.4370
      9  O5'       28.8740  -50.7020  -46.0030 O.3   1469  GDP1469    -0.3111
     10  C5'       28.4420  -52.0480  -45.8230 C.3   1469  GDP1469     0.1813
     11  C4'       29.5410  -52.9990  -46.2690 C.3   1469  GDP1469     0.1799
     12  O4'       30.2510  -52.4300  -47.3700 O.3   1469  GDP1469    -0.3326
     13  C3'       30.5450  -53.2250  -45.1510 C.3   1469  GDP1469     0.2158
     14  O3'       30.6610  -54.6240  -44.8850 O.3   1469  GDP1469    -0.2175
     15  C2'       31.8630  -52.7000  -45.6770 C.3   1469  GDP1469     0.2310
     16  O2'       32.9230  -53.6060  -45.3600 O.3   1469  GDP1469    -0.2158
     17  C1'       31.6570  -52.5950  -47.1790 C.3   1469  GDP1469     0.2293
     18  N9        32.4110  -51.4470  -47.7410 N.pl3 1469  GDP1469    -0.2354
     19  C8        32.1760  -50.1420  -47.5060 C.3   1469  GDP1469     0.2246
     20  N7        33.0540  -49.3590  -48.1870 N.2   1469  GDP1469    -0.2322
     21  C5        33.8700  -50.1750  -48.8810 C.2   1469  GDP1469     0.2182
     22  C6        35.0160  -50.0130  -49.8060 C.1   1469  GDP1469     0.2372
     23  O6        35.4440  -48.8780  -50.1110 O.2   1469  GDP1469    -0.2069
     24  N1        35.5820  -51.1190  -50.3080 N.2   1469  GDP1469    -0.2485
     25  C2        35.1460  -52.3550  -50.0010 C.1   1469  GDP1469     0.2531
     26  N2        35.7750  -53.4210  -50.5530 N.pl3 1469  GDP1469    -0.0226
     27  N3        34.1020  -52.5780  -49.1610 N.2   1469  GDP1469    -0.3074
     28  C4        33.4390  -51.5480  -48.5840 C.2   1469  GDP1469     0.2300
@<TRIPOS>BOND
     1    26    25    1
     2    24    25    2
     3    24    22    2
     4    23    22    2
     5    25    27    2
     6    22    21    1
     7    27    28    2
     8    21    28    1
     9    21    20    2
    10    28    18    1
    11    20    19    1
    12    18    19    1
    13    18    17    1
    14    12    17    1
    15    12    11    1
    16    17    15    1
    17     2     1    2
    18    11    10    1
    19    11    13    1
    20     9    10    1
    21     9     6    1
    22     5     1    1
    23     5     6    1
    24    15    16    1
    25    15    13    1
    26     1     4    1
    27     1     3    1
    28    13    14    1
    29     6     7    2
    30     6     8    1
