@<TRIPOS>MOLECULE
4ac9_5GP_B_1.pdb
 24 26 0 0 0
SMALL
GASTEIGER

@<TRIPOS>ATOM
      1  P         32.1270  -21.7450  -19.2230 P.3   1474  5GP1474     0.5327
      2  O1P       31.2350  -21.4570  -20.4070 O.2   1474  5GP1474    -0.2224
      3  O2P       32.9110  -20.6050  -18.6280 O.3   1474  5GP1474    -0.1145
      4  O3P       33.0740  -22.8690  -19.5720 O.3   1474  5GP1474    -0.1145
      5  O5'       31.2800  -22.4600  -18.0790 O.3   1474  5GP1474    -0.2675
      6  C5'       30.3650  -21.7200  -17.2780 C.3   1474  5GP1474     0.1859
      7  C4'       29.4690  -22.6280  -16.4730 C.3   1474  5GP1474     0.1801
      8  O4'       29.9640  -22.6980  -15.1050 O.3   1474  5GP1474    -0.3326
      9  C3'       28.0110  -22.1830  -16.3750 C.3   1474  5GP1474     0.2158
     10  O3'       27.1660  -23.3320  -16.3440 O.3   1474  5GP1474    -0.2175
     11  C2'       27.9650  -21.4800  -15.0230 C.3   1474  5GP1474     0.2310
     12  O2'       26.6850  -21.4320  -14.4290 O.3   1474  5GP1474    -0.2158
     13  C1'       28.9360  -22.3250  -14.2070 C.3   1474  5GP1474     0.2293
     14  N9        29.5470  -21.6080  -13.0840 N.pl3 1474  5GP1474    -0.2354
     15  C8        30.4090  -20.5870  -13.1880 C.3   1474  5GP1474     0.2246
     16  N7        30.7630  -20.1790  -11.9500 N.2   1474  5GP1474    -0.2322
     17  C5        30.1140  -20.9580  -11.0630 C.2   1474  5GP1474     0.2182
     18  C6        30.0890  -21.0010   -9.6760 C.1   1474  5GP1474     0.2372
     19  O6        30.7690  -20.1980   -9.0030 O.2   1474  5GP1474    -0.2069
     20  N1        29.3290  -21.9080   -9.0600 N.2   1474  5GP1474    -0.2485
     21  C2        28.5930  -22.7780   -9.7610 C.1   1474  5GP1474     0.2531
     22  N2        27.8410  -23.6830   -9.0920 N.pl3 1474  5GP1474    -0.0226
     23  N3        28.5940  -22.7640  -11.1150 N.2   1474  5GP1474    -0.3074
     24  C4        29.3530  -21.8620  -11.7840 C.2   1474  5GP1474     0.2300
@<TRIPOS>BOND
     1     2     1    2
     2     4     1    1
     3     1     3    1
     4     1     5    1
     5     5     6    1
     6     6     7    1
     7     7     9    1
     8     7     8    1
     9     9    10    1
    10     9    11    1
    11     8    13    1
    12    11    12    1
    13    11    13    1
    14    13    14    1
    15    15    14    1
    16    15    16    1
    17    14    24    1
    18    16    17    2
    19    24    23    2
    20    24    17    1
    21    23    21    2
    22    17    18    1
    23    21    22    1
    24    21    20    2
    25    18    20    2
    26    18    19    2
