@<TRIPOS>MOLECULE
4ac9_DXC_B_1.pdb
 28 31 0 0 0
SMALL
GASTEIGER

@<TRIPOS>ATOM
      1  C1        68.8350  -20.5430    4.5970 C.3   1473  DXC1473     0.1520
      2  C2        67.5360  -21.2670    4.5540 C.3   1473  DXC1473     0.0329
      3  C3        67.7010  -22.5910    3.8440 C.3   1473  DXC1473     0.0025
      4  C4        68.2340  -22.3860    2.4360 C.3   1473  DXC1473     0.0002
      5  C5        69.5310  -21.6180    2.4970 C.3   1473  DXC1473     0.0026
      6  C6        69.3410  -20.3220    3.2160 C.3   1473  DXC1473     0.0329
      7  C7        66.3870  -23.3850    3.8430 C.3   1473  DXC1473     0.0001
      8  C8        65.3300  -22.7090    2.9590 C.3   1473  DXC1473     0.0000
      9  C9        65.8930  -22.4970    1.5630 C.3   1473  DXC1473     0.0002
     10  C10       67.2050  -21.7290    1.5450 C.3   1473  DXC1473     0.0025
     11  C11       64.9290  -21.7300    0.6080 C.3   1473  DXC1473     0.0024
     12  C12       65.4080  -21.5580   -0.8060 C.3   1473  DXC1473     0.0282
     13  C13       66.6760  -20.7970   -0.7220 C.3   1473  DXC1473     0.1519
     14  C14       67.7070  -21.5550    0.1070 C.3   1473  DXC1473     0.0329
     15  C15       63.5400  -22.3140    0.4100 C.3   1473  DXC1473     0.0001
     16  C16       63.0210  -21.5760   -0.8310 C.3   1473  DXC1473     0.0001
     17  C17       64.2140  -20.8760   -1.4560 C.3   1473  DXC1473     0.0024
     18  C18       68.6500  -23.7250    1.9490 C.3   1473  DXC1473     0.0000
     19  C19       64.0880  -20.8640   -2.9970 C.3   1473  DXC1473     0.0006
     20  O1        66.4170  -19.5700   -0.1400 O.3   1473  DXC1473    -0.2232
     21  O2        68.6670  -19.3080    5.2110 O.3   1473  DXC1473    -0.2232
     22  C20       65.6880  -22.8420   -1.5020 C.3   1473  DXC1473     0.0025
     23  C21       62.7270  -20.3630   -3.4490 C.3   1473  DXC1473     0.0118
     24  C22       62.6430  -20.3120   -4.9710 C.3   1473  DXC1473     0.1141
     25  C23       61.3280  -19.7570   -5.4000 C.2   1473  DXC1473     0.3649
     26  O3        60.3250  -20.5070   -5.5030 O.co2 1473  DXC1473    -0.2457
     27  O4        61.2200  -18.5260   -5.6590 O.co2 1473  DXC1473    -0.2457
     28  C24       65.1100  -20.0010   -3.6580 C.3   1473  DXC1473     0.0000
@<TRIPOS>BOND
     1    27    25   ar
     2    26    25   ar
     3    25    24    1
     4    24    23    1
     5    28    19    1
     6    23    19    1
     7    19    17    1
     8    22    12    1
     9    17    16    1
    10    17    12    1
    11    16    15    1
    12    12    13    1
    13    12    11    1
    14    13    20    1
    15    13    14    1
    16    14    10    1
    17    15    11    1
    18    11     9    1
    19    10     9    1
    20    10     4    1
    21     9     8    1
    22    18     4    1
    23     4     5    1
    24     4     3    1
    25     5     6    1
    26     8     7    1
    27     6     1    1
    28     7     3    1
    29     3     2    1
    30     2     1    1
    31     1    21    1
