@<TRIPOS>MOLECULE
4aca_5GP_B_1.pdb
 24 26 0 0 0
SMALL
GASTEIGER

@<TRIPOS>ATOM
      1  P         32.2160  -21.8210  -19.1290 P.3   1474  5GP1474     0.5327
      2  O1P       31.1820  -21.4260  -20.1570 O.2   1474  5GP1474    -0.2224
      3  O2P       32.8540  -20.7010  -18.3500 O.3   1474  5GP1474    -0.1145
      4  O3P       33.1680  -22.9010  -19.5840 O.3   1474  5GP1474    -0.1145
      5  O5'       31.3450  -22.5090  -17.9970 O.3   1474  5GP1474    -0.2675
      6  C5'       30.3520  -21.7640  -17.3130 C.3   1474  5GP1474     0.1859
      7  C4'       29.4570  -22.6590  -16.5010 C.3   1474  5GP1474     0.1801
      8  O4'       29.9360  -22.6870  -15.1280 O.3   1474  5GP1474    -0.3326
      9  C3'       28.0020  -22.2070  -16.4340 C.3   1474  5GP1474     0.2158
     10  O3'       27.1590  -23.3550  -16.3650 O.3   1474  5GP1474    -0.2175
     11  C2'       27.9480  -21.4560  -15.1090 C.3   1474  5GP1474     0.2310
     12  O2'       26.6580  -21.3850  -14.5440 O.3   1474  5GP1474    -0.2158
     13  C1'       28.8960  -22.2910  -14.2550 C.3   1474  5GP1474     0.2293
     14  N9        29.5100  -21.5790  -13.1280 N.pl3 1474  5GP1474    -0.2354
     15  C8        30.4150  -20.5920  -13.2200 C.3   1474  5GP1474     0.2246
     16  N7        30.7810  -20.2030  -11.9770 N.2   1474  5GP1474    -0.2322
     17  C5        30.1030  -20.9690  -11.0980 C.2   1474  5GP1474     0.2182
     18  C6        30.0740  -21.0210   -9.7110 C.1   1474  5GP1474     0.2372
     19  O6        30.7780  -20.2440   -9.0340 O.2   1474  5GP1474    -0.2069
     20  N1        29.2840  -21.9080   -9.1020 N.2   1474  5GP1474    -0.2485
     21  C2        28.5200  -22.7510   -9.8130 C.1   1474  5GP1474     0.2531
     22  N2        27.7360  -23.6380   -9.1550 N.pl3 1474  5GP1474    -0.0226
     23  N3        28.5210  -22.7300  -11.1690 N.2   1474  5GP1474    -0.3074
     24  C4        29.3130  -21.8450  -11.8280 C.2   1474  5GP1474     0.2300
@<TRIPOS>BOND
     1     2     1    2
     2     4     1    1
     3     1     3    1
     4     1     5    1
     5     5     6    1
     6     6     7    1
     7     7     9    1
     8     7     8    1
     9     9    10    1
    10     9    11    1
    11     8    13    1
    12    11    12    1
    13    11    13    1
    14    13    14    1
    15    15    14    1
    16    15    16    1
    17    14    24    1
    18    16    17    2
    19    24    23    2
    20    24    17    1
    21    23    21    2
    22    17    18    1
    23    21    22    1
    24    21    20    2
    25    18    20    2
    26    18    19    2
