@<TRIPOS>MOLECULE
4aca_DXC_B_1.pdb
 28 31 0 0 0
SMALL
GASTEIGER

@<TRIPOS>ATOM
      1  C1        68.6150  -20.5090    4.5710 C.3   1473  DXC1473     0.1520
      2  C2        67.3640  -21.3140    4.6220 C.3   1473  DXC1473     0.0329
      3  C3        67.5290  -22.6430    3.9180 C.3   1473  DXC1473     0.0025
      4  C4        68.0820  -22.4650    2.5050 C.3   1473  DXC1473     0.0002
      5  C5        69.3610  -21.6660    2.5570 C.3   1473  DXC1473     0.0026
      6  C6        69.0390  -20.3330    3.1500 C.3   1473  DXC1473     0.0329
      7  C7        66.1820  -23.3800    3.8760 C.3   1473  DXC1473     0.0001
      8  C8        65.1760  -22.6210    2.9960 C.3   1473  DXC1473     0.0000
      9  C9        65.7600  -22.5110    1.5980 C.3   1473  DXC1473     0.0002
     10  C10       67.0920  -21.7860    1.5720 C.3   1473  DXC1473     0.0025
     11  C11       64.8080  -21.7780    0.6150 C.3   1473  DXC1473     0.0024
     12  C12       65.3090  -21.5690   -0.7960 C.3   1473  DXC1473     0.0282
     13  C13       66.6090  -20.8430   -0.7040 C.3   1473  DXC1473     0.1519
     14  C14       67.6150  -21.6410    0.1350 C.3   1473  DXC1473     0.0329
     15  C15       63.4670  -22.4530    0.3690 C.3   1473  DXC1473     0.0001
     16  C16       62.9260  -21.6870   -0.8450 C.3   1473  DXC1473     0.0001
     17  C17       64.0910  -20.8940   -1.4180 C.3   1473  DXC1473     0.0024
     18  C18       68.4760  -23.8520    2.1100 C.3   1473  DXC1473     0.0000
     19  C19       63.9990  -20.8040   -2.9500 C.3   1473  DXC1473     0.0006
     20  O1        66.4140  -19.5830   -0.1580 O.3   1473  DXC1473    -0.2232
     21  O2        68.4090  -19.2640    5.1730 O.3   1473  DXC1473    -0.2232
     22  C20       65.5420  -22.8240   -1.5640 C.3   1473  DXC1473     0.0025
     23  C21       62.6350  -20.2940   -3.4100 C.3   1473  DXC1473     0.0118
     24  C22       62.5920  -19.9870   -4.9100 C.3   1473  DXC1473     0.1141
     25  C23       61.2300  -19.5350   -5.3500 C.2   1473  DXC1473     0.3649
     26  O3        60.2820  -20.3600   -5.4600 O.co2 1473  DXC1473    -0.2457
     27  O4        61.0040  -18.3180   -5.6300 O.co2 1473  DXC1473    -0.2457
     28  C24       65.0320  -19.8690   -3.4780 C.3   1473  DXC1473     0.0000
@<TRIPOS>BOND
     1    27    25   ar
     2    26    25   ar
     3    25    24    1
     4    24    23    1
     5    28    19    1
     6    23    19    1
     7    19    17    1
     8    22    12    1
     9    17    16    1
    10    17    12    1
    11    16    15    1
    12    12    13    1
    13    12    11    1
    14    13    20    1
    15    13    14    1
    16    14    10    1
    17    15    11    1
    18    11     9    1
    19    10     9    1
    20    10     4    1
    21     9     8    1
    22    18     4    1
    23     4     5    1
    24     4     3    1
    25     5     6    1
    26     8     7    1
    27     6     1    1
    28     7     3    1
    29     3     2    1
    30     1     2    1
    31     1    21    1
