@<TRIPOS>MOLECULE
4acb_DXC_B_1.pdb
 28 31 0 0 0
SMALL
GASTEIGER

@<TRIPOS>ATOM
      1  C1        68.6840  -20.4540    4.4930 C.3   1473  DXC1473     0.1520
      2  C2        67.6240  -21.4460    4.8840 C.3   1473  DXC1473     0.0329
      3  C3        67.4950  -22.6570    3.9690 C.3   1473  DXC1473     0.0025
      4  C4        67.9490  -22.4220    2.5130 C.3   1473  DXC1473     0.0002
      5  C5        69.1830  -21.5610    2.4760 C.3   1473  DXC1473     0.0026
      6  C6        68.7510  -20.2410    3.0210 C.3   1473  DXC1473     0.0329
      7  C7        66.0450  -23.1780    4.0470 C.3   1473  DXC1473     0.0001
      8  C8        65.0820  -22.4210    3.1100 C.3   1473  DXC1473     0.0000
      9  C9        65.6140  -22.4710    1.6950 C.3   1473  DXC1473     0.0002
     10  C10       66.9310  -21.7420    1.6310 C.3   1473  DXC1473     0.0025
     11  C11       64.7190  -21.6790    0.7250 C.3   1473  DXC1473     0.0024
     12  C12       65.1970  -21.6220   -0.7270 C.3   1473  DXC1473     0.0282
     13  C13       66.5040  -20.8990   -0.7370 C.3   1473  DXC1473     0.1519
     14  C14       67.4950  -21.5850    0.2050 C.3   1473  DXC1473     0.0329
     15  C15       63.2550  -22.0990    0.6640 C.3   1473  DXC1473     0.0001
     16  C16       62.8100  -21.5760   -0.7210 C.3   1473  DXC1473     0.0001
     17  C17       64.0110  -20.8990   -1.3710 C.3   1473  DXC1473     0.0024
     18  C18       68.3370  -23.7680    2.0120 C.3   1473  DXC1473     0.0000
     19  C19       63.9110  -20.7660   -2.9040 C.3   1473  DXC1473     0.0006
     20  O1        66.3150  -19.5510   -0.4160 O.3   1473  DXC1473    -0.2232
     21  O2        68.4760  -19.2210    5.1140 O.3   1473  DXC1473    -0.2232
     22  C20       65.4130  -22.9560   -1.3980 C.3   1473  DXC1473     0.0025
     23  C21       62.5910  -20.1230   -3.2920 C.3   1473  DXC1473     0.0118
     24  C22       62.4540  -20.1500   -4.8080 C.3   1473  DXC1473     0.1141
     25  C23       61.1190  -19.6600   -5.2980 C.2   1473  DXC1473     0.3649
     26  O3        60.0960  -20.4050   -5.2220 O.co2 1473  DXC1473    -0.2457
     27  O4        61.0030  -18.5050   -5.8210 O.co2 1473  DXC1473    -0.2457
     28  C24       64.9800  -19.8710   -3.4450 C.3   1473  DXC1473     0.0000
@<TRIPOS>BOND
     1    27    25   ar
     2    25    26   ar
     3    25    24    1
     4    24    23    1
     5    28    19    1
     6    23    19    1
     7    19    17    1
     8    22    12    1
     9    17    12    1
    10    17    16    1
    11    13    12    1
    12    13    20    1
    13    13    14    1
    14    12    11    1
    15    16    15    1
    16    14    10    1
    17    15    11    1
    18    11     9    1
    19    10     9    1
    20    10     4    1
    21     9     8    1
    22    18     4    1
    23     5     4    1
    24     5     6    1
    25     4     3    1
    26     6     1    1
    27     8     7    1
    28     3     7    1
    29     3     2    1
    30     1     2    1
    31     1    21    1
