@<TRIPOS>MOLECULE
4acb_GNP_A_1.pdb
 32 34 0 0 0
SMALL
GASTEIGER

@<TRIPOS>ATOM
      1  PG        23.4240  -48.0240  -43.6430 P.3   1469  GNP1469     0.4884
      2  O1G       23.6900  -46.9780  -42.5830 O.3   1469  GNP1469    -0.1240
      3  O2G       22.7690  -47.5530  -44.9180 O.2   1469  GNP1469    -0.2331
      4  O3G       22.7090  -49.1330  -42.9080 O.3   1469  GNP1469    -0.1240
      5  N3B       24.7990  -48.6380  -44.1180 N.3   1469  GNP1469    -0.0163
      6  PB        25.9610  -47.7240  -44.6800 P.3   1469  GNP1469     0.4669
      7  O1B       25.5020  -46.9610  -45.8590 O.2   1469  GNP1469    -0.2351
      8  O2B       26.4600  -46.9470  -43.5170 O.3   1469  GNP1469    -0.1253
      9  O3A       27.0330  -48.6830  -45.1910 O.3   1469  GNP1469    -0.2360
     10  PA        28.2520  -49.0740  -44.3720 P.3   1469  GNP1469     0.2220
     11  O1A       29.1830  -47.9290  -44.4420 O.2   1469  GNP1469    -0.5170
     12  O2A       27.8520  -49.5480  -43.0310 O.3   1469  GNP1469    -0.4370
     13  O5'       28.9600  -50.2980  -45.0800 O.3   1469  GNP1469    -0.3111
     14  C5'       28.2490  -51.4960  -45.3800 C.3   1469  GNP1469     0.1813
     15  C4'       29.1690  -52.5750  -45.9370 C.3   1469  GNP1469     0.1799
     16  O4'       29.9050  -52.0390  -47.0670 O.3   1469  GNP1469    -0.3326
     17  C3'       30.2220  -53.1240  -44.9760 C.3   1469  GNP1469     0.2158
     18  O3'       30.4230  -54.5170  -45.1880 O.3   1469  GNP1469    -0.2175
     19  C2'       31.4780  -52.3680  -45.3740 C.3   1469  GNP1469     0.2310
     20  O2'       32.6430  -53.1100  -45.0760 O.3   1469  GNP1469    -0.2158
     21  C1'       31.2890  -52.2510  -46.8830 C.3   1469  GNP1469     0.2293
     22  N9        32.0430  -51.1280  -47.4320 N.pl3 1469  GNP1469    -0.2354
     23  C8        31.8060  -49.7950  -47.1980 C.3   1469  GNP1469     0.2246
     24  N7        32.6420  -48.9980  -47.8010 N.2   1469  GNP1469    -0.2322
     25  C5        33.4960  -49.8610  -48.4760 C.2   1469  GNP1469     0.2182
     26  C6        34.6070  -49.5670  -49.3010 C.1   1469  GNP1469     0.2372
     27  O6        35.0610  -48.4510  -49.5990 O.2   1469  GNP1469    -0.2069
     28  N1        35.2020  -50.7270  -49.7940 N.2   1469  GNP1469    -0.2485
     29  C2        34.7750  -52.0060  -49.5220 C.1   1469  GNP1469     0.2531
     30  N2        35.4790  -52.9950  -50.0930 N.pl3 1469  GNP1469    -0.0226
     31  N3        33.7350  -52.2930  -48.7490 N.2   1469  GNP1469    -0.3074
     32  C4        33.1440  -51.1760  -48.2600 C.2   1469  GNP1469     0.2300
@<TRIPOS>BOND
     1    30    29    1
     2    28    29    2
     3    28    26    2
     4    27    26    2
     5    29    31    2
     6    26    25    1
     7    31    32    2
     8    25    32    1
     9    25    24    2
    10    32    22    1
    11    24    23    1
    12    22    23    1
    13    22    21    1
    14    16    21    1
    15    16    15    1
    16    21    19    1
    17    15    14    1
    18    15    17    1
    19     7     6    2
    20    14    13    1
    21    19    20    1
    22    19    17    1
    23     9     6    1
    24     9    10    1
    25    18    17    1
    26    13    10    1
    27     3     1    2
    28     6     5    1
    29     6     8    1
    30    11    10    2
    31    10    12    1
    32     5     1    1
    33     1     4    1
    34     1     2    1
