@<TRIPOS>MOLECULE
4acb_GDP_B_1.pdb
 28 30 0 0 0
SMALL
GASTEIGER

@<TRIPOS>ATOM
      1  PB        49.0740  -19.4880  -18.1460 P.3   1469  GDP1469     0.5373
      2  O1B       47.5650  -19.4740  -18.0950 O.3   1469  GDP1469    -0.1143
      3  O2B       49.5630  -19.8090  -16.7530 O.3   1469  GDP1469    -0.1143
      4  O3B       49.5190  -20.5690  -19.1030 O.2   1469  GDP1469    -0.2221
      5  O3A       49.6180  -18.0350  -18.6170 O.3   1469  GDP1469    -0.2261
      6  PA        50.6700  -17.7890  -19.8270 P.3   1469  GDP1469     0.2231
      7  O1A       51.5860  -16.6320  -19.4950 O.3   1469  GDP1469    -0.4370
      8  O2A       51.5090  -19.0050  -20.1520 O.2   1469  GDP1469    -0.5169
      9  O5'       49.7440  -17.3640  -21.0750 O.3   1469  GDP1469    -0.3111
     10  C5'       49.8270  -18.0780  -22.3070 C.3   1469  GDP1469     0.1813
     11  C4'       50.3240  -17.1310  -23.3860 C.3   1469  GDP1469     0.1799
     12  O4'       49.6540  -15.8800  -23.2480 O.3   1469  GDP1469    -0.3326
     13  C3'       51.8070  -16.8610  -23.2060 C.3   1469  GDP1469     0.2158
     14  O3'       52.4900  -17.0930  -24.4410 O.3   1469  GDP1469    -0.2175
     15  C2'       51.9120  -15.3980  -22.8260 C.3   1469  GDP1469     0.2310
     16  O2'       53.0310  -14.8000  -23.4840 O.3   1469  GDP1469    -0.2158
     17  C1'       50.5940  -14.8070  -23.2980 C.3   1469  GDP1469     0.2293
     18  N9        50.0910  -13.7210  -22.4270 N.pl3 1469  GDP1469    -0.2354
     19  C8        50.0260  -13.7370  -21.0840 C.3   1469  GDP1469     0.2246
     20  N7        49.4870  -12.5840  -20.6090 N.2   1469  GDP1469    -0.2322
     21  C5        49.1810  -11.8120  -21.6710 C.2   1469  GDP1469     0.2182
     22  C6        48.5810  -10.4720  -21.8880 C.1   1469  GDP1469     0.2372
     23  O6        48.2190   -9.7640  -20.9190 O.2   1469  GDP1469    -0.2069
     24  N1        48.4380  -10.0450  -23.1530 N.2   1469  GDP1469    -0.2485
     25  C2        48.8180  -10.7850  -24.2150 C.1   1469  GDP1469     0.2531
     26  N2        48.6400  -10.2780  -25.4630 N.pl3 1469  GDP1469    -0.0226
     27  N3        49.3750  -12.0180  -24.0830 N.2   1469  GDP1469    -0.3074
     28  C4        49.5780  -12.5710  -22.8640 C.2   1469  GDP1469     0.2300
@<TRIPOS>BOND
     1    26    25    1
     2    14    13    1
     3    25    27    2
     4    25    24    2
     5    27    28    2
     6    16    15    1
     7    11    12    1
     8    11    13    1
     9    11    10    1
    10    17    12    1
    11    17    15    1
    12    17    18    1
    13    13    15    1
    14    24    22    2
    15    28    18    1
    16    28    21    1
    17    18    19    1
    18    10     9    1
    19    22    21    1
    20    22    23    2
    21    21    20    2
    22    19    20    1
    23     9     6    1
    24     8     6    2
    25     6     7    1
    26     6     5    1
    27     4     1    2
    28     5     1    1
    29     1     2    1
    30     1     3    1
