@<TRIPOS>MOLECULE
4acb_5GP_B_1.pdb
 24 26 0 0 0
SMALL
GASTEIGER

@<TRIPOS>ATOM
      1  P         32.4980  -21.7850  -19.5140 P.3   1474  5GP1474     0.5327
      2  O1P       31.5190  -21.1490  -20.4730 O.2   1474  5GP1474    -0.2224
      3  O2P       33.2170  -20.8560  -18.5660 O.3   1474  5GP1474    -0.1145
      4  O3P       33.3340  -22.9190  -20.0550 O.3   1474  5GP1474    -0.1145
      5  O5'       31.4910  -22.5090  -18.5330 O.3   1474  5GP1474    -0.2675
      6  C5'       30.6540  -21.7340  -17.6960 C.3   1474  5GP1474     0.1859
      7  C4'       29.7290  -22.6060  -16.9050 C.3   1474  5GP1474     0.1801
      8  O4'       30.2100  -22.6670  -15.5360 O.3   1474  5GP1474    -0.3326
      9  C3'       28.2990  -22.0890  -16.8350 C.3   1474  5GP1474     0.2158
     10  O3'       27.4030  -23.1990  -16.8100 O.3   1474  5GP1474    -0.2175
     11  C2'       28.2670  -21.3680  -15.4920 C.3   1474  5GP1474     0.2310
     12  O2'       26.9800  -21.2720  -14.9230 O.3   1474  5GP1474    -0.2158
     13  C1'       29.1870  -22.2530  -14.6570 C.3   1474  5GP1474     0.2293
     14  N9        29.8290  -21.5870  -13.5220 N.pl3 1474  5GP1474    -0.2354
     15  C8        30.9070  -20.7870  -13.5800 C.3   1474  5GP1474     0.2246
     16  N7        31.2300  -20.3890  -12.3270 N.2   1474  5GP1474    -0.2322
     17  C5        30.3480  -20.9650  -11.4780 C.2   1474  5GP1474     0.2182
     18  C6        30.1790  -20.9310  -10.0990 C.1   1474  5GP1474     0.2372
     19  O6        30.9410  -20.2590   -9.3790 O.2   1474  5GP1474    -0.2069
     20  N1        29.1880  -21.6250   -9.5350 N.2   1474  5GP1474    -0.2485
     21  C2        28.3500  -22.3570  -10.2830 C.1   1474  5GP1474     0.2531
     22  N2        27.3620  -23.0450   -9.6700 N.pl3 1474  5GP1474    -0.0226
     23  N3        28.4780  -22.4180  -11.6290 N.2   1474  5GP1474    -0.3074
     24  C4        29.4760  -21.7300  -12.2390 C.2   1474  5GP1474     0.2300
@<TRIPOS>BOND
     1     2     1    2
     2     4     1    1
     3     1     3    1
     4     1     5    1
     5     5     6    1
     6     6     7    1
     7     7     9    1
     8     7     8    1
     9     9    10    1
    10     9    11    1
    11     8    13    1
    12    11    12    1
    13    11    13    1
    14    13    14    1
    15    15    14    1
    16    15    16    1
    17    14    24    1
    18    16    17    2
    19    24    23    2
    20    24    17    1
    21    23    21    2
    22    17    18    1
    23    21    22    1
    24    21    20    2
    25    18    20    2
    26    18    19    2
