@<TRIPOS>MOLECULE
4acc_7YG_A_1.pdb
 31 33 0 0 0
SMALL
GASTEIGER

@<TRIPOS>ATOM
      1  C1        11.2090   21.8830   13.3280 C.3   1387  7YG1387     0.0897
      2  N2        12.5290   21.9890   14.0130 N.3   1387  7YG1387    -0.2690
      3  C3        12.6720   21.1030   15.2010 C.3   1387  7YG1387     0.0897
      4  C4        13.7700   22.1940   13.1830 C.3   1387  7YG1387     0.0932
      5  C5        13.8000   21.3760   11.8970 C.3   1387  7YG1387     0.1327
      6  N6        13.9710   19.9690   12.2990 N.3   1387  7YG1387    -0.0763
      7  S7        13.6810   18.7440   11.1430 S.O2  1387  7YG1387     0.0769
      8  O8        13.6900   17.5000   11.8930 O.2   1387  7YG1387    -0.1516
      9  O9        12.6320   19.0720   10.2030 O.2   1387  7YG1387    -0.1516
     10  C10       15.2170   18.8030   10.1890 C.ar  1387  7YG1387     0.1236
     11  C11       15.2120   19.1540    8.8470 C.ar  1387  7YG1387     0.0200
     12  C12       16.4060   19.1920    8.1530 C.ar  1387  7YG1387     0.0037
     13  C13       17.6130   18.8760    8.7670 C.ar  1387  7YG1387     0.0299
     14  C14       17.5880   18.5300   10.1070 C.ar  1387  7YG1387     0.0037
     15  C15       16.4080   18.5000   10.8260 C.ar  1387  7YG1387     0.0200
     16  C16       18.8730   18.8560    8.0330 C.2   1387  7YG1387     0.1629
     17  C17       19.0530   19.5450    6.8510 C.3   1387  7YG1387     0.3216
     18  N18       20.1710   19.4780    6.1170 N.2   1387  7YG1387    -0.0478
     19  C19       21.1550   18.7070    6.6130 C.2   1387  7YG1387     0.4450
     20  C20       20.9980   18.0460    7.8200 C.2   1387  7YG1387     0.2759
     21  N21       19.8600   18.0900    8.5320 N.2   1387  7YG1387    -0.3896
     22  C22       22.0660   17.1780    8.3690 C.2   1387  7YG1387     0.3065
     23  O23       23.1560   17.0920    7.8240 O.2   1387  7YG1387    -0.2649
     24  N24       21.6590   16.4800    9.4900 N.am  1387  7YG1387    -0.1715
     25  C25       22.4590   15.6880   10.3250 C.ar  1387  7YG1387     0.0929
     26  C26       21.8450   15.0640   11.3910 C.ar  1387  7YG1387     0.0198
     27  C27       22.6020   14.2980   12.2610 C.ar  1387  7YG1387     0.0220
     28  C28       23.9590   14.1880   12.0090 C.ar  1387  7YG1387     0.0990
     29  N29       24.5750   14.7750   10.9710 N.ar  1387  7YG1387    -0.2410
     30  C30       23.8240   15.5200   10.1540 C.ar  1387  7YG1387     0.1154
     31  N31       22.3320   18.5790    5.8790 N.pl3 1387  7YG1387     0.2190
@<TRIPOS>BOND
     1    31    19    1
     2    18    19    2
     3    18    17    1
     4    19    20    1
     5    17    16    1
     6    20    22    1
     7    20    21    2
     8    23    22    2
     9    16    21    2
    10    16    13    1
    11    12    13   ar
    12    12    11   ar
    13    22    24   am
    14    13    14   ar
    15    11    10   ar
    16    24    25    1
    17    14    15   ar
    18    30    25   ar
    19    30    29   ar
    20    10    15   ar
    21    10     7    1
    22     9     7    2
    23    25    26   ar
    24    29    28   ar
    25     7     8    2
    26     7     6    1
    27    26    27   ar
    28     5     6    1
    29     5     4    1
    30    28    27   ar
    31     4     2    1
    32     1     2    1
    33     2     3    1
