@<TRIPOS>MOLECULE
4acd_GR9_A_1.pdb
 32 35 0 0 0
SMALL
GASTEIGER

@<TRIPOS>ATOM
      1  C1        28.6260  -22.2340   10.1040 C.3   1385  GR91385     0.0915
      2  N2        28.5940  -22.6390   11.5260 N.3   1385  GR91385    -0.2690
      3  C3        28.4150  -24.0830   11.7060 C.3   1385  GR91385     0.0897
      4  C4        27.6330  -21.8810   12.3420 C.3   1385  GR91385     0.0915
      5  C5        28.1180  -20.4220   12.4170 C.3   1385  GR91385     0.1131
      6  N6        28.4110  -19.9100   11.0560 N.3   1385  GR91385    -0.1527
      7  S7        28.0170  -18.3430   10.7030 S.O2  1385  GR91385     0.0634
      8  O8        27.8260  -17.6930   11.9600 O.2   1385  GR91385    -0.1528
      9  O9        28.9730  -17.8780    9.7470 O.2   1385  GR91385    -0.1528
     10  C10       26.4400  -18.4140    9.8600 C.ar  1385  GR91385     0.1222
     11  C11       26.3610  -18.8110    8.5150 C.ar  1385  GR91385     0.0200
     12  C12       25.1450  -18.8940    7.8650 C.ar  1385  GR91385     0.0037
     13  C13       23.9600  -18.5870    8.5510 C.ar  1385  GR91385     0.0299
     14  C14       24.0370  -18.1570    9.8890 C.ar  1385  GR91385     0.0037
     15  C15       25.2570  -18.0960   10.5340 C.ar  1385  GR91385     0.0200
     16  C16       22.6340  -18.6100    7.8570 C.2   1385  GR91385     0.1629
     17  C17       22.4390  -19.3250    6.6570 C.3   1385  GR91385     0.3216
     18  N18       21.2820  -19.2520    6.0170 N.2   1385  GR91385    -0.0478
     19  C19       20.2620  -18.5310    6.5060 C.2   1385  GR91385     0.4450
     20  C20       20.4330  -17.8180    7.7220 C.2   1385  GR91385     0.2759
     21  N21       21.6220  -17.8810    8.3430 N.2   1385  GR91385    -0.3896
     22  C22       19.3740  -16.9660    8.3160 C.2   1385  GR91385     0.3065
     23  O23       18.2930  -16.8370    7.7550 O.2   1385  GR91385    -0.2649
     24  N24       19.6900  -16.3120    9.4710 N.am  1385  GR91385    -0.1715
     25  C25       18.9020  -15.4550   10.2490 C.ar  1385  GR91385     0.0929
     26  C26       19.5150  -14.8480   11.3390 C.ar  1385  GR91385     0.0198
     27  C27       18.7940  -13.9700   12.1480 C.ar  1385  GR91385     0.0220
     28  C28       17.4490  -13.7770   11.8680 C.ar  1385  GR91385     0.0990
     29  N29       16.8710  -14.3760   10.8280 N.ar  1385  GR91385    -0.2410
     30  C30       17.5370  -15.2090   10.0310 C.ar  1385  GR91385     0.1154
     31  N31       19.0710  -18.4940    5.8060 N.pl3 1385  GR91385     0.2190
     32  C6        29.0610  -20.7580   10.0070 C.3   1385  GR91385     0.1131
@<TRIPOS>BOND
     1    31    19    1
     2    18    19    2
     3    18    17    1
     4    19    20    1
     5    17    16    1
     6    20    22    1
     7    20    21    2
     8    23    22    2
     9    16    21    2
    10    16    13    1
    11    12    11   ar
    12    12    13   ar
    13    22    24   am
    14    11    10   ar
    15    13    14   ar
    16    24    25    1
    17     9     7    2
    18    10    15   ar
    19    10     7    1
    20    14    15   ar
    21    32     1    1
    22    32     6    1
    23    30    25   ar
    24    30    29   ar
    25     1     2    1
    26    25    26   ar
    27     7     6    1
    28     7     8    2
    29    29    28   ar
    30     6     5    1
    31    26    27   ar
    32     2     3    1
    33     2     4    1
    34    28    27   ar
    35     4     5    1
