@<TRIPOS>MOLECULE
4acf_46B_A_1.pdb
 26 28 0 0 0
SMALL
GASTEIGER

@<TRIPOS>ATOM
      1  O19      -25.6740   88.6820    0.2860 O.co2 1479  46B1479    -0.2415
      2  C18      -26.2870   87.7260    0.7980 C.2   1479  46B1479     0.4084
      3  O20      -27.5160   87.5580    0.6600 O.co2 1479  46B1479    -0.2415
      4  C17      -25.4890   86.7500    1.6240 C.3   1479  46B1479     0.3186
      5  O16      -25.5200   87.1620    3.0040 O.3   1479  46B1479    -0.4637
      6  C13      -26.1450   86.3890    3.9480 C.ar  1479  46B1479     0.1394
      7  C14      -27.3070   85.6820    3.6450 C.ar  1479  46B1479     0.0370
      8  C15      -27.9240   84.8970    4.6090 C.ar  1479  46B1479     0.0054
      9  C12      -25.6080   86.3060    5.2290 C.ar  1479  46B1479     0.0370
     10  C11      -26.2390   85.5200    6.1940 C.ar  1479  46B1479     0.0054
     11  C10      -27.3880   84.7890    5.8840 C.ar  1479  46B1479     0.0288
     12  C2       -28.0480   83.9730    6.9560 C.2   1479  46B1479     0.1458
     13  N1       -27.4350   83.5110    8.0510 N.2   1479  46B1479    -0.3878
     14  C9       -28.3500   82.8640    8.7930 C.2   1479  46B1479     0.1881
     15  C8       -28.2450   82.2240    9.9640 C.2   1479  46B1479     0.0486
     16  C7       -29.3640   81.6210   10.5340 C.2   1479  46B1479     0.0120
     17  C3       -29.3390   83.6050    7.0210 C.3   1479  46B1479     0.2070
     18  N4       -29.5220   82.9280    8.1530 N.pl3 1479  46B1479    -0.2421
     19  C5       -30.6360   82.3740    8.6560 C.2   1479  46B1479     0.0755
     20  C6       -30.5860   81.6940    9.8730 C.2   1479  46B1479     0.0496
     21 BR1       -32.1620   80.9150   10.5830 Br    1479  46B1479    -0.0477
     22  N21      -30.3180   83.8740    6.1270 N.3   1479  46B1479    -0.1936
     23  C22      -31.0590   82.8350    5.4190 C.3   1479  46B1479     0.0909
     24  C23      -30.7070   82.7360    3.9260 C.3   1479  46B1479     0.0189
     25  C24      -31.5920   81.7260    3.1860 C.3   1479  46B1479     0.0015
     26  C25      -31.2170   81.5780    1.7220 C.3   1479  46B1479     0.0000
@<TRIPOS>BOND
     1     1     2   ar
     2     3     2   ar
     3     2     4    1
     4     4     5    1
     5    26    25    1
     6     5     6    1
     7    25    24    1
     8     7     6   ar
     9     7     8   ar
    10    24    23    1
    11     6     9   ar
    12     8    11   ar
    13     9    10   ar
    14    23    22    1
    15    11    10   ar
    16    11    12    1
    17    22    17    1
    18    12    17    1
    19    12    13    2
    20    17    18    1
    21    13    14    2
    22    18    19    1
    23    18    14    1
    24    19    20    2
    25    14    15    1
    26    20    16    1
    27    20    21    1
    28    15    16    2
