@<TRIPOS>MOLECULE
4acf_P3S_A_1.pdb
 15 14 0 0 0
SMALL
GASTEIGER

@<TRIPOS>ATOM
      1  O3A      -24.6660   82.5710   21.5660 O.3   1483  P3S1483    -0.1237
      2  PA       -23.2460   82.2470   22.0020 P.3   1483  P3S1483     0.4896
      3  O1A      -22.3200   83.4790   22.0350 O.3   1483  P3S1483    -0.1237
      4  O2A      -22.6430   81.0780   21.2450 O.2   1483  P3S1483    -0.2328
      5  NE       -23.3480   81.5330   23.5460 N.3   1483  P3S1483    -0.0523
      6  SD       -23.0400   82.2280   24.8370 S.3   1483  P3S1483     0.0022
      7  OE       -23.8110   83.4670   25.0260 O.3   1483  P3S1483    -0.1552
      8  CE       -21.4170   82.6730   24.9140 C.3   1483  P3S1483     0.0974
      9  CG       -23.3290   81.1560   26.1240 C.3   1483  P3S1483     0.0859
     10  CB       -24.7810   80.6160   26.1670 C.3   1483  P3S1483     0.0443
     11  CA       -25.0280   79.7570   27.4140 C.3   1483  P3S1483     0.1953
     12  N        -24.1230   78.5980   27.4710 N.3   1483  P3S1483    -0.1208
     13  C        -26.4700   79.2890   27.5130 C.2   1483  P3S1483     0.3819
     14  OT       -27.3460   79.6300   26.6730 O.co2 1483  P3S1483    -0.2441
     15  O        -26.7460   78.5490   28.4720 O.co2 1483  P3S1483    -0.2441
@<TRIPOS>BOND
     1     4     2    2
     2     1     2    1
     3     2     3    1
     4     2     5    1
     5     5     6    1
     6     6     8    1
     7     6     7    1
     8     6     9    1
     9     9    10    1
    10    10    11    1
    11    14    13   ar
    12    11    12    1
    13    11    13    1
    14    13    15   ar
