@<TRIPOS>MOLECULE
4acg_6LQ_A_1.pdb
 38 42 0 0 0
SMALL
GASTEIGER

@<TRIPOS>ATOM
      1  C1        18.0170   26.3730    9.6230 C.3   1385  6LQ1385     0.0897
      2  N2        18.0370   24.9360    9.9380 N.3   1385  6LQ1385    -0.2690
      3  C3        18.2580   24.1300    8.7230 C.3   1385  6LQ1385     0.0915
      4  C4        17.9700   22.6500    9.0380 C.3   1385  6LQ1385     0.1131
      5  N5        18.5340   22.2130   10.3470 N.3   1385  6LQ1385    -0.1527
      6  C6        18.8580   23.1510   11.4500 C.3   1385  6LQ1385     0.1131
      7  C7        19.0350   24.6060   10.9760 C.3   1385  6LQ1385     0.0915
      8  S8        18.8000   20.5950   10.5720 S.O2  1385  6LQ1385     0.0634
      9  O9        18.8070   20.3240   11.9610 O.2   1385  6LQ1385    -0.1528
     10  O10       18.0070   19.8580    9.6480 O.2   1385  6LQ1385    -0.1528
     11  C11       20.4370   20.3170    9.9770 C.ar  1385  6LQ1385     0.1222
     12  C12       20.6420   20.0930    8.6170 C.ar  1385  6LQ1385     0.0199
     13  C13       21.9250   19.8850    8.1600 C.ar  1385  6LQ1385     0.0014
     14  C14       23.0130   19.9570    9.0500 C.ar  1385  6LQ1385     0.0016
     15  C15       22.7940   20.1860   10.4140 C.ar  1385  6LQ1385     0.0014
     16  C16       21.5080   20.3660   10.8700 C.ar  1385  6LQ1385     0.0199
     17  C17       24.3810   19.6790    8.5350 C.ar  1385  6LQ1385     0.0194
     18  C18       25.2990   18.9070    9.2750 C.ar  1385  6LQ1385     0.0090
     19  C19       26.5570   18.6360    8.7010 C.ar  1385  6LQ1385     0.0901
     20  C20       26.8170   19.1460    7.3940 C.ar  1385  6LQ1385     0.1741
     21  N21       25.9340   19.8850    6.7580 N.ar  1385  6LQ1385    -0.2258
     22  C22       24.7470   20.1490    7.2660 C.ar  1385  6LQ1385     0.1004
     23  N23       27.9750   18.9120    6.7080 N.pl3 1385  6LQ1385    -0.1071
     24  C24       27.4870   17.7400    9.4220 C.2   1385  6LQ1385     0.2718
     25  O25       28.5950   17.4930    8.9630 O.2   1385  6LQ1385    -0.2679
     26  N26       27.0240   17.1380   10.5450 N.am  1385  6LQ1385    -0.1741
     27  C27       27.6770   16.2560   11.4130 C.ar  1385  6LQ1385     0.0901
     28  C28       29.0370   16.3810   11.7130 C.ar  1385  6LQ1385     0.1151
     29  N29       29.6380   15.5260   12.5330 N.ar  1385  6LQ1385    -0.2410
     30  C30       28.9570   14.5820   13.1800 C.ar  1385  6LQ1385     0.0987
     31  C31       27.6010   14.3920   12.9370 C.ar  1385  6LQ1385     0.0191
     32  C32       26.9450   15.2390   12.0450 C.ar  1385  6LQ1385     0.0123
     33  C33       25.4640   15.0320   11.8270 C.3   1385  6LQ1385     0.1005
     34  N34       24.6890   16.2880   11.8030 N.3   1385  6LQ1385    -0.2689
     35  C35       24.8990   17.2200   12.9580 C.3   1385  6LQ1385     0.0724
     36  C36       23.4910   17.7960   13.2030 C.3   1385  6LQ1385     0.0188
     37  C37       22.6040   16.5380   12.9120 C.3   1385  6LQ1385     0.0188
     38  C38       23.2540   16.0050   11.6270 C.3   1385  6LQ1385     0.0724
@<TRIPOS>BOND
     1    23    20    1
     2    21    22   ar
     3    21    20   ar
     4    22    17   ar
     5    20    19   ar
     6    13    12   ar
     7    13    14   ar
     8    17    14    1
     9    17    18   ar
    10    12    11   ar
    11    19    18   ar
    12    19    24    1
    13     3     4    1
    14     3     2    1
    15    25    24    2
    16     4     5    1
    17    14    15   ar
    18    24    26   am
    19     1     2    1
    20    10     8    2
    21     2     7    1
    22    11     8    1
    23    11    16   ar
    24     5     8    1
    25     5     6    1
    26    15    16   ar
    27    26    27    1
    28     8     9    2
    29     7     6    1
    30    27    28   ar
    31    27    32   ar
    32    38    34    1
    33    38    37    1
    34    28    29   ar
    35    34    33    1
    36    34    35    1
    37    33    32    1
    38    32    31   ar
    39    29    30   ar
    40    37    36    1
    41    31    30   ar
    42    35    36    1
