@<TRIPOS>MOLECULE
4ach_KDI_A_1.pdb
 31 33 0 0 0
SMALL
GASTEIGER

@<TRIPOS>ATOM
      1  C1        47.6880   42.3470   54.6820 C.3   1386  KDI1386     0.0897
      2  N2        46.2310   42.4230   54.8910 N.3   1386  KDI1386    -0.2690
      3  C3        45.4830   42.2220   53.6340 C.3   1386  KDI1386     0.0915
      4  C4        45.7800   41.4950   55.9400 C.3   1386  KDI1386     0.0915
      5  C5        44.3050   41.7580   56.3010 C.3   1386  KDI1386     0.1131
      6  N6        43.4420   42.1440   55.1380 N.3   1386  KDI1386    -0.1527
      7  S7        41.7740   41.9980   55.2570 S.O2  1386  KDI1386     0.0634
      8  O8        41.4090   42.0340   56.6360 O.2   1386  KDI1386    -0.1528
      9  O9        41.1980   42.8630   54.2750 O.2   1386  KDI1386    -0.1528
     10  C10       41.4500   40.3600   54.6890 C.ar  1386  KDI1386     0.1222
     11  C11       41.2580   40.1670   53.3170 C.ar  1386  KDI1386     0.0200
     12  C12       41.0050   38.8950   52.8560 C.ar  1386  KDI1386     0.0037
     13  C13       41.0010   37.8020   53.7550 C.ar  1386  KDI1386     0.0299
     14  C14       41.2420   37.9970   55.1350 C.ar  1386  KDI1386     0.0037
     15  C15       41.4670   39.2840   55.5960 C.ar  1386  KDI1386     0.0200
     16  C16       40.6800   36.4450   53.2260 C.2   1386  KDI1386     0.1629
     17  C17       41.1710   36.0420   51.9670 C.3   1386  KDI1386     0.3216
     18  N18       40.8570   34.8470   51.4860 N.2   1386  KDI1386    -0.0478
     19  C19       40.0270   34.0330   52.1520 C.2   1386  KDI1386     0.4450
     20  C20       39.5000   34.4140   53.4150 C.2   1386  KDI1386     0.2756
     21  N21       39.8300   35.6380   53.8830 N.2   1386  KDI1386    -0.3896
     22  C22       38.5670   33.5360   54.1970 C.2   1386  KDI1386     0.3023
     23  O23       38.0850   32.5140   53.7200 O.2   1386  KDI1386    -0.2653
     24  N24       38.2670   33.9190   55.4630 N.am  1386  KDI1386    -0.1992
     25  C25       37.3620   33.2400   56.3990 C.3   1386  KDI1386     0.1181
     26  C27       37.8360   37.3890   56.1110 C.3   1386  KDI1386     0.1741
     27  C30       36.1690   34.1670   56.6710 C.3   1386  KDI1386     0.0555
     28  N31       39.7330   32.7950   51.5980 N.pl3 1386  KDI1386     0.2190
     29  C6        44.0210   42.6580   53.8570 C.3   1386  KDI1386     0.1131
     30  C28       36.5920   35.5830   57.1040 C.3   1386  KDI1386     0.1441
     31  O29       36.7260   36.4940   56.0000 O.3   1386  KDI1386    -0.3510
@<TRIPOS>BOND
     1    18    17    1
     2    18    19    2
     3    28    19    1
     4    17    16    1
     5    19    20    1
     6    12    11   ar
     7    12    13   ar
     8    16    13    1
     9    16    21    2
    10    11    10   ar
    11    20    21    2
    12    20    22    1
    13     3    29    1
    14     3     2    1
    15    23    22    2
    16    13    14   ar
    17    29     6    1
    18    22    24   am
    19     9     7    2
    20     1     2    1
    21    10     7    1
    22    10    15   ar
    23     2     4    1
    24    14    15   ar
    25     6     7    1
    26     6     5    1
    27     7     8    2
    28    24    25    1
    29     4     5    1
    30    31    26    1
    31    31    30    1
    32    25    27    1
    33    27    30    1
