@<TRIPOS>MOLECULE
4acs_GSH_A_1.pdb
 20 19 0 0 0
SMALL
GASTEIGER

@<TRIPOS>ATOM
      1  O11       10.9240    5.9850    2.9570 O.co2 230  GSH230     -0.2441
      2  C1        11.1610    7.1660    3.2790 C.2   230  GSH230      0.3819
      3  O12       10.5800    8.1550    2.7100 O.co2 230  GSH230     -0.2441
      4  CA1       12.2280    7.3380    4.3460 C.3   230  GSH230      0.1948
      5  N1        11.7910    6.8600    5.6680 N.3   230  GSH230     -0.1208
      6  CB1       12.8680    8.7250    4.4140 C.3   230  GSH230      0.0402
      7  CG1       13.0650    9.3910    3.0400 C.3   230  GSH230      0.0889
      8  CD1       14.3570   10.1740    2.8820 C.2   230  GSH230      0.2418
      9  OE1       15.2670   10.0750    3.7020 O.2   230  GSH230     -0.2733
     10  N2        14.4290   10.9600    1.8020 N.am  230  GSH230     -0.1968
     11  CA2       15.6570   11.5700    1.3260 C.3   230  GSH230      0.1843
     12  CB2       15.8490   11.3280   -0.1700 C.3   230  GSH230      0.0997
     13  SG2       16.2870    9.6350   -0.6730 S.3   230  GSH230     -0.0797
     14  C2        15.6410   13.0310    1.6240 C.2   230  GSH230      0.2627
     15  O2        14.6250   13.6740    1.3800 O.2   230  GSH230     -0.2714
     16  N3        16.7310   13.5760    2.1590 N.am  230  GSH230     -0.1917
     17  CA3       16.7510   14.9780    2.5800 C.3   230  GSH230      0.2285
     18  C3        16.8250   15.1500    4.0890 C.2   230  GSH230      0.3865
     19  O31       17.0220   16.2790    4.5820 O.co2 230  GSH230     -0.2437
     20  O32       16.6910   14.1690    4.8280 O.co2 230  GSH230     -0.2437
@<TRIPOS>BOND
     1    13    12    1
     2    12    11    1
     3    11    14    1
     4    11    10    1
     5    15    14    2
     6    14    16   am
     7    10     8   am
     8    16    17    1
     9    17    18    1
    10     3     2   ar
    11     8     7    1
    12     8     9    2
    13     1     2   ar
    14     7     6    1
    15     2     4    1
    16    18    19   ar
    17    18    20   ar
    18     4     6    1
    19     4     5    1
