@<TRIPOS>MOLECULE
4act_FT0_A_1.pdb
 16 17 0 0 0
SMALL
GASTEIGER

@<TRIPOS>ATOM
      1  C1        -0.2420   21.5080   -7.8330 C.ar  1125  FT01125     0.1839
      2  C2         0.2810   21.1800   -9.1510 C.ar  1125  FT01125     0.2296
      3  C3        -0.5450   21.0710  -10.2560 C.ar  1125  FT01125     0.0435
      4  C4        -1.8670   21.3940   -9.9980 C.ar  1125  FT01125     0.0140
      5  C5        -2.3890   21.7860   -8.7710 C.ar  1125  FT01125     0.0016
      6  C6        -1.5490   21.8850   -7.6820 C.ar  1125  FT01125     0.0406
      7  O7         0.7690   21.5700   -6.9680 O.3   1125  FT01125    -0.4503
      8  C8         0.2540   21.5490   -5.7000 C.ar  1125  FT01125     0.1454
      9  C9         0.4060   22.5450   -4.8540 C.ar  1125  FT01125     0.0375
     10  C10       -0.1840   22.5220   -3.6010 C.ar  1125  FT01125     0.0031
     11  C11       -1.0190   21.4870   -3.2060 C.ar  1125  FT01125     0.0002
     12  C12       -1.2870   20.4470   -4.0800 C.ar  1125  FT01125     0.0031
     13  C13       -0.6900   20.4790   -5.3580 C.ar  1125  FT01125     0.0375
     14  C14       -2.8880   21.3290  -10.9930 C.3   1125  FT01125     0.2087
     15  O15       -3.9390   21.1530  -10.4480 O.3   1125  FT01125    -0.2152
     16  O16        1.6190   20.8840   -9.1530 O.3   1125  FT01125    -0.2833
@<TRIPOS>BOND
     1    14    15    1
     2    14     4    1
     3     3     4   ar
     4     3     2   ar
     5     4     5   ar
     6    16     2    1
     7     2     1   ar
     8     5     6   ar
     9     1     6   ar
    10     1     7    1
    11     7     8    1
    12     8    13   ar
    13     8     9   ar
    14    13    12   ar
    15     9    10   ar
    16    12    11   ar
    17    10    11   ar
