@<TRIPOS>MOLECULE
4acu_QN7_A_1.pdb
 33 37 0 0 0
SMALL
GASTEIGER

@<TRIPOS>ATOM
      1  C1         1.3900   -3.1140  -16.4730 C.3   1506  QN71506     0.2526
      2  O2         1.6530   -2.7230  -17.8260 O.3   1506  QN71506    -0.4692
      3  C3         2.9620   -2.9570  -18.2380 C.ar  1506  QN71506     0.1660
      4  C4         3.7430   -3.9810  -17.7380 C.ar  1506  QN71506     0.0392
      5  C5         5.0040   -4.1700  -18.2690 C.ar  1506  QN71506     0.0033
      6  C6         5.4960   -3.3120  -19.2340 C.ar  1506  QN71506     0.0024
      7  C7         4.7280   -2.2900  -19.7650 C.ar  1506  QN71506     0.0305
      8  C8         3.4420   -2.1660  -19.2720 C.ar  1506  QN71506     0.1737
      9  F9         2.6550   -1.1930  -19.7680 F     1506  QN71506    -0.2010
     10  C10        5.3110   -1.3190  -20.6850 C.ar  1506  QN71506     0.0021
     11  C11        6.0820   -1.6970  -21.7680 C.ar  1506  QN71506     0.0001
     12  C12        6.6810   -0.7380  -22.5690 C.ar  1506  QN71506    -0.0002
     13  C13        6.5150    0.6080  -22.2870 C.ar  1506  QN71506    -0.0001
     14  C14        5.7280    1.0250  -21.2230 C.ar  1506  QN71506     0.0287
     15  C15        5.1590    0.0380  -20.4370 C.ar  1506  QN71506    -0.0001
     16  C16        5.5290    2.4890  -20.8780 C.3   1506  QN71506     0.2791
     17  C17        6.2590    2.7650  -19.5760 C.2   1506  QN71506     0.3478
     18  N18        7.5300    2.5270  -19.4350 N.2   1506  QN71506    -0.0589
     19  C19        8.0510    2.8720  -18.1000 C.3   1506  QN71506     0.3329
     20  C20        7.2630    3.9560  -17.3700 C.3   1506  QN71506     0.3549
     21  C21        5.7790    3.6180  -17.3000 C.3   1506  QN71506     0.2836
     22  N22        5.3950    3.2900  -18.6670 N.pl3 1506  QN71506    -0.1043
     23  C23        4.1560    3.2420  -19.2890 C.cat 1506  QN71506     0.4796
     24  N24        4.1320    2.7990  -20.5020 N.2   1506  QN71506    -0.0742
     25  N25        3.0400    3.6510  -18.5950 N.pl3 1506  QN71506     0.1534
     26  F26        7.7900    4.0560  -16.1150 F     1506  QN71506    -0.1949
     27  F27        7.3890    5.1630  -18.0240 F     1506  QN71506    -0.1949
     28  C28        5.9520    3.4350  -21.9940 C.ar  1506  QN71506     0.0318
     29  C29        5.0470    3.8410  -22.9610 C.ar  1506  QN71506     0.0205
     30  C30        5.4710    4.6870  -23.9730 C.ar  1506  QN71506     0.0987
     31  N31        6.7200    5.1540  -24.1030 N.ar  1506  QN71506    -0.2423
     32  C32        7.5850    4.7300  -23.1710 C.ar  1506  QN71506     0.0987
     33  C33        7.2540    3.8910  -22.1270 C.ar  1506  QN71506     0.0205
@<TRIPOS>BOND
     1    31    30   ar
     2    31    32   ar
     3    30    29   ar
     4    32    33   ar
     5    29    28   ar
     6    12    13   ar
     7    12    11   ar
     8    13    14   ar
     9    33    28   ar
    10    28    16    1
    11    11    10   ar
    12    14    16    1
    13    14    15   ar
    14    16    24    1
    15    16    17    1
    16    10    15   ar
    17    10     7    1
    18    24    23    2
    19     9     8    1
    20     7     8   ar
    21     7     6   ar
    22    17    18    2
    23    17    22    1
    24    18    19    1
    25    23    22    1
    26    23    25    1
    27     8     3   ar
    28     6     5   ar
    29    22    21    1
    30     5     4   ar
    31     3     2    1
    32     3     4   ar
    33    19    20    1
    34    27    20    1
    35     2     1    1
    36    20    21    1
    37    20    26    1
