@<TRIPOS>MOLECULE
4acx_S8Z_A_1.pdb
 33 36 0 0 0
SMALL
GASTEIGER

@<TRIPOS>ATOM
      1  C1         2.0910   -3.0830  -17.2670 C.3   1504  S8Z1504     0.1755
      2  O2         3.3560   -3.5730  -17.6880 O.3   1504  S8Z1504    -0.3374
      3  C3         3.2650   -3.8510  -19.0790 C.3   1504  S8Z1504     0.2182
      4  C4         3.9720   -2.8360  -19.8530 C.1   1504  S8Z1504    -0.0539
      5  C5         4.5550   -2.0000  -20.4840 C.1   1504  S8Z1504    -0.0619
      6  C6         5.2490   -1.0030  -21.2210 C.ar  1504  S8Z1504     0.0415
      7  C7         6.1190   -1.3360  -22.2390 C.ar  1504  S8Z1504     0.0082
      8  C8         6.7960   -0.3300  -22.9000 C.ar  1504  S8Z1504     0.0004
      9  C9         6.5970    0.9880  -22.5400 C.ar  1504  S8Z1504    -0.0001
     10  C10        5.7050    1.3310  -21.5390 C.ar  1504  S8Z1504     0.0294
     11  C11        5.0440    0.3150  -20.8770 C.ar  1504  S8Z1504     0.0081
     12  C12        5.4780    2.7600  -21.1240 C.3   1504  S8Z1504     0.2790
     13  C13        6.3040    3.0030  -19.8920 C.2   1504  S8Z1504     0.3478
     14  N14        7.5520    2.7400  -19.6670 N.2   1504  S8Z1504    -0.0589
     15  C15        8.1670    3.0600  -18.3720 C.3   1504  S8Z1504     0.3329
     16  C16        7.3630    4.0970  -17.6060 C.3   1504  S8Z1504     0.3549
     17  C17        5.8770    3.7870  -17.6080 C.3   1504  S8Z1504     0.2836
     18  N18        5.4370    3.5580  -18.9780 N.pl3 1504  S8Z1504    -0.1043
     19  C19        4.1570    3.4310  -19.4440 C.cat 1504  S8Z1504     0.4796
     20  N20        4.1130    2.9720  -20.6450 N.2   1504  S8Z1504    -0.0742
     21  N21        3.0320    3.7510  -18.7270 N.pl3 1504  S8Z1504     0.1534
     22  F22        7.5650    5.3300  -18.1420 F     1504  S8Z1504    -0.1949
     23  F23        7.8190    4.1630  -16.3270 F     1504  S8Z1504    -0.1949
     24  C24        5.7530    3.7370  -22.2430 C.ar  1504  S8Z1504     0.0289
     25  C25        4.8400    3.8630  -23.2770 C.ar  1504  S8Z1504     0.0030
     26  C26        5.0710    4.7400  -24.3180 C.ar  1504  S8Z1504     0.0369
     27  C27        6.2210    5.5080  -24.3260 C.ar  1504  S8Z1504     0.1443
     28  C28        7.1430    5.3930  -23.3090 C.ar  1504  S8Z1504     0.0369
     29  C29        6.9020    4.5100  -22.2770 C.ar  1504  S8Z1504     0.0030
     30  O30        6.5150    6.3990  -25.3470 O.3   1504  S8Z1504    -0.4236
     31  C31        5.5030    7.0820  -26.0880 C.3   1504  S8Z1504     0.5087
     32  F32        6.0270    8.2040  -26.6500 F     1504  S8Z1504    -0.1550
     33  F33        5.0260    6.2700  -27.0690 F     1504  S8Z1504    -0.1550
@<TRIPOS>BOND
     1    33    31    1
     2    32    31    1
     3    31    30    1
     4    30    27    1
     5    27    26   ar
     6    27    28   ar
     7    26    25   ar
     8    28    29   ar
     9    25    24   ar
    10     8     9   ar
    11     8     7   ar
    12     9    10   ar
    13    29    24   ar
    14    24    12    1
    15     7     6   ar
    16    10    12    1
    17    10    11   ar
    18     6    11   ar
    19     6     5    1
    20    12    20    1
    21    12    13    1
    22    20    19    2
    23     5     4    3
    24    13    14    2
    25    13    18    1
    26     4     3    1
    27    14    15    1
    28    19    18    1
    29    19    21    1
    30     3     2    1
    31    18    17    1
    32    15    16    1
    33    22    16    1
    34     2     1    1
    35    17    16    1
    36    16    23    1
