@<TRIPOS>MOLECULE
4ad0_B3P_A_1.pdb
 19 18 0 0 0
SMALL
GASTEIGER

@<TRIPOS>ATOM
      1  C1        19.5500   -4.8800    1.5230 C.3   500  B3P500      0.0930
      2  C2        20.4950   -3.8900    2.2160 C.2   500  B3P500      0.0732
      3  C3        19.8010   -6.3100    2.0210 C.2   500  B3P500      0.0732
      4  N1        18.7410   -7.0610    2.7330 N.2   500  B3P500     -0.2691
      5  C4        19.0560   -8.3920    3.3270 C.3   500  B3P500      0.1755
      6  C5        17.8980   -9.4040    3.4700 C.3   500  B3P500      0.2095
      7  C6        19.9730   -9.0900    2.3560 C.3   500  B3P500      0.2095
      8  C7        19.6940   -8.2690    4.7140 C.3   500  B3P500      0.2095
      9  N2        20.3380   -2.4680    1.8670 N.2   500  B3P500     -0.2691
     10  C8        21.0050   -1.3830    2.5910 C.3   500  B3P500      0.1755
     11  C9        20.6710   -0.1400    1.8060 C.3   500  B3P500      0.2095
     12  C10       20.4520   -1.2280    3.9920 C.3   500  B3P500      0.2095
     13  C11       22.5360   -1.5760    2.7290 C.3   500  B3P500      0.2095
     14  O1        21.1400   -0.3640    0.4860 O.3   500  B3P500     -0.2181
     15  O2        19.0800   -1.6290    4.0400 O.3   500  B3P500     -0.2181
     16  O3        23.1630   -0.5050    3.4670 O.3   500  B3P500     -0.2181
     17  O4        16.7080   -8.8170    3.9780 O.3   500  B3P500     -0.2181
     18  O5        19.2800   -9.0380    1.1050 O.3   500  B3P500     -0.2181
     19  O6        20.3980   -7.0350    4.9600 O.3   500  B3P500     -0.2181
@<TRIPOS>BOND
     1    14    11    1
     2    18     7    1
     3     1     3    1
     4     1     2    1
     5    11    10    1
     6     9     2    2
     7     9    10    1
     8     3     4    2
     9     7     5    1
    10    10    13    1
    11    10    12    1
    12    13    16    1
    13     4     5    1
    14     5     6    1
    15     5     8    1
    16     6    17    1
    17    12    15    1
    18     8    19    1
