@<TRIPOS>MOLECULE
4ad2_GLC_A_1.pdb
 11 11 0 0 0
SMALL
GASTEIGER

@<TRIPOS>ATOM
      1  C1       -46.7640   72.7020  -16.6000 C.3   500  GLC500      0.1777
      2  C2       -46.2720   72.6240  -18.0430 C.3   500  GLC500      0.2141
      3  C3       -44.8980   71.9770  -18.0530 C.3   500  GLC500      0.2173
      4  C4       -43.9510   72.8050  -17.1810 C.3   500  GLC500      0.2142
      5  C5       -44.4800   72.8870  -15.7490 C.3   500  GLC500      0.1810
      6  C6       -43.6260   73.7910  -14.8370 C.3   500  GLC500      0.2141
      7  O2       -47.1820   71.8870  -18.8240 O.3   500  GLC500     -0.2176
      8  O3       -44.4620   71.9090  -19.3940 O.3   500  GLC500     -0.2175
      9  O4       -42.7220   72.1450  -17.1270 O.3   500  GLC500     -0.2176
     10  O5       -45.8140   73.3880  -15.7760 O.3   500  GLC500     -0.3481
     11  O6       -44.1430   73.7550  -13.5090 O.3   500  GLC500     -0.2176
@<TRIPOS>BOND
     1     8     3    1
     2     7     2    1
     3     3     2    1
     4     3     4    1
     5     2     1    1
     6     4     9    1
     7     4     5    1
     8     1    10    1
     9    10     5    1
    10     5     6    1
    11     6    11    1
