@<TRIPOS>MOLECULE
4ad2_IFM_A_1.pdb
 10 10 0 0 0
SMALL
GASTEIGER

@<TRIPOS>ATOM
      1  O4       -49.2800   69.6450  -15.8480 O.3   501  IFM501     -0.2202
      2  C4       -48.4590   70.0040  -14.7040 C.3   501  IFM501      0.1874
      3  C3       -47.8890   71.4220  -14.9190 C.3   501  IFM501      0.1995
      4  O3       -47.0470   71.4020  -16.0600 O.3   501  IFM501     -0.2189
      5  C2       -47.0430   71.8920  -13.7250 C.3   501  IFM501      0.1241
      6  N        -47.8090   71.7990  -12.4950 N.3   501  IFM501     -0.2151
      7  C1       -48.4040   70.4970  -12.2070 C.3   501  IFM501      0.0940
      8  C5       -49.2430   69.9740  -13.3900 C.3   501  IFM501      0.0834
      9  C6       -49.8010   68.5950  -13.0350 C.3   501  IFM501      0.1861
     10  O6       -48.7630   67.6200  -12.7980 O.3   501  IFM501     -0.2203
@<TRIPOS>BOND
     1     4     3    1
     2     1     2    1
     3     3     2    1
     4     3     5    1
     5     2     8    1
     6     5     6    1
     7     8     9    1
     8     8     7    1
     9     9    10    1
    10     6     7    1
