@<TRIPOS>MOLECULE
4ad3_DMJ_A_1.pdb
 11 11 0 0 0
SMALL
GASTEIGER

@<TRIPOS>ATOM
      1  C4       -48.0150   69.3750  -14.6350 C.3   501  DMJ501      0.2031
      2  O4       -48.8360   69.1190  -15.7970 O.3   501  DMJ501     -0.2187
      3  C3       -47.3110   70.7340  -14.7770 C.3   501  DMJ501      0.2151
      4  O3       -46.4760   70.7000  -15.9460 O.3   501  DMJ501     -0.2176
      5  C2       -46.4880   71.0730  -13.5210 C.3   501  DMJ501      0.2020
      6  O2       -45.5100   70.0390  -13.3110 O.3   501  DMJ501     -0.2188
      7  C1       -47.3770   71.0690  -12.2870 C.3   501  DMJ501      0.1243
      8  N5       -47.9720   69.7500  -12.2200 N.3   501  DMJ501     -0.2113
      9  C5       -48.8340   69.3510  -13.3400 C.3   501  DMJ501      0.1386
     10  C6       -49.5000   68.0190  -13.0330 C.3   501  DMJ501      0.2020
     11  O6       -48.5090   66.9930  -12.8550 O.3   501  DMJ501     -0.2188
@<TRIPOS>BOND
     1     4     3    1
     2     2     1    1
     3     3     1    1
     4     3     5    1
     5     1     9    1
     6     5     6    1
     7     5     7    1
     8     9    10    1
     9     9     8    1
    10    10    11    1
    11     7     8    1
