@<TRIPOS>MOLECULE
4ad3_GLC_A_1.pdb
 11 11 0 0 0
SMALL
GASTEIGER

@<TRIPOS>ATOM
      1  C1       -46.3170   72.0340  -16.4710 C.3   500  GLC500      0.1777
      2  C2       -45.8050   71.8810  -17.9130 C.3   500  GLC500      0.2141
      3  C3       -44.3820   71.3380  -17.8940 C.3   500  GLC500      0.2173
      4  C4       -43.4710   72.2220  -17.0500 C.3   500  GLC500      0.2142
      5  C5       -44.0630   72.3520  -15.6500 C.3   500  GLC500      0.1810
      6  C6       -43.1980   73.2550  -14.7710 C.3   500  GLC500      0.2141
      7  O2       -46.6080   70.9580  -18.6040 O.3   500  GLC500     -0.2176
      8  O3       -43.8770   71.2700  -19.2020 O.3   500  GLC500     -0.2175
      9  O4       -42.2080   71.5990  -16.9940 O.3   500  GLC500     -0.2176
     10  O5       -45.3980   72.8520  -15.7540 O.3   500  GLC500     -0.3481
     11  O6       -43.7040   73.3350  -13.4540 O.3   500  GLC500     -0.2176
@<TRIPOS>BOND
     1     8     3    1
     2     7     2    1
     3     2     3    1
     4     2     1    1
     5     3     4    1
     6     4     9    1
     7     4     5    1
     8     1    10    1
     9    10     5    1
    10     5     6    1
    11     6    11    1
