@<TRIPOS>MOLECULE
4ad4_MAN_A_1.pdb
 11 11 0 0 0
SMALL
GASTEIGER

@<TRIPOS>ATOM
      1  C1         4.7840   18.2460    1.6590 C.3   510  MAN510      0.1777
      2  C2         5.9690   19.2000    1.4810 C.3   510  MAN510      0.2141
      3  C3         7.1590   18.4880    0.8210 C.3   510  MAN510      0.2173
      4  C4         7.5760   17.2660    1.6470 C.3   510  MAN510      0.2142
      5  C5         6.3460   16.3920    1.9050 C.3   510  MAN510      0.1810
      6  C6         6.6610   15.2870    2.9080 C.3   510  MAN510      0.2141
      7  O2         6.3250   19.6710    2.7650 O.3   510  MAN510     -0.2176
      8  O3         8.2690   19.3480    0.6150 O.3   510  MAN510     -0.2175
      9  O4         8.6060   16.5480    0.9760 O.3   510  MAN510     -0.2176
     10  O5         5.2470   17.1380    2.4200 O.3   510  MAN510     -0.3481
     11  O6         6.5130   14.0550    2.2420 O.3   510  MAN510     -0.2176
@<TRIPOS>BOND
     1     8     3    1
     2     3     2    1
     3     3     4    1
     4     9     4    1
     5     2     1    1
     6     2     7    1
     7     4     5    1
     8     1    10    1
     9     5    10    1
    10     5     6    1
    11    11     6    1
