@<TRIPOS>MOLECULE
4ad4_GLC_A_1.pdb
 11 11 0 0 0
SMALL
GASTEIGER

@<TRIPOS>ATOM
      1  C1         3.1410   21.5230    6.8000 C.3   500  GLC500      0.1777
      2  C2         2.1800   21.2470    7.9580 C.3   500  GLC500      0.2141
      3  C3         2.5660   22.0970    9.1630 C.3   500  GLC500      0.2173
      4  C4         4.0420   21.8560    9.5160 C.3   500  GLC500      0.2142
      5  C5         4.9180   22.0750    8.2810 C.3   500  GLC500      0.1810
      6  C6         6.3930   21.7830    8.5660 C.3   500  GLC500      0.2141
      7  O2         0.8620   21.5170    7.5510 O.3   500  GLC500     -0.2176
      8  O3         1.7470   21.7100   10.2360 O.3   500  GLC500     -0.2175
      9  O4         4.4870   22.6870   10.5690 O.3   500  GLC500     -0.2176
     10  O5         4.4630   21.2360    7.2360 O.3   500  GLC500     -0.3481
     11  O6         7.1720   22.0120    7.4170 O.3   500  GLC500     -0.2176
@<TRIPOS>BOND
     1     1    10    1
     2     1     2    1
     3    10     5    1
     4    11     6    1
     5     7     2    1
     6     2     3    1
     7     5     6    1
     8     5     4    1
     9     3     4    1
    10     3     8    1
    11     4     9    1
