@<TRIPOS>MOLECULE
4ad4_IFM_A_1.pdb
 10 10 0 0 0
SMALL
GASTEIGER

@<TRIPOS>ATOM
      1  O4         1.3810   23.9260    3.9970 O.3   501  IFM501     -0.2202
      2  C4         2.7640   24.2220    4.2030 C.3   501  IFM501      0.1874
      3  C3         3.4560   23.0600    4.9370 C.3   501  IFM501      0.1995
      4  O3         2.8540   22.8110    6.2220 O.3   501  IFM501     -0.2189
      5  C2         4.9640   23.3180    5.0980 C.3   501  IFM501      0.1241
      6  N          5.5190   23.5690    3.7740 N.3   501  IFM501     -0.2151
      7  C5         3.4210   24.4720    2.8440 C.3   501  IFM501      0.0834
      8  C6         2.7950   25.6690    2.1330 C.3   501  IFM501      0.1861
      9  O6         2.9970   26.8770    2.8880 O.3   501  IFM501     -0.2203
     10  C1         4.9310   24.6830    3.0370 C.3   501  IFM501      0.0940
@<TRIPOS>BOND
     1     8     7    1
     2     8     9    1
     3     7    10    1
     4     7     2    1
     5    10     6    1
     6     6     5    1
     7     1     2    1
     8     2     3    1
     9     3     5    1
    10     3     4    1
