@<TRIPOS>MOLECULE
4ad5_DMJ_A_1.pdb
 11 11 0 0 0
SMALL
GASTEIGER

@<TRIPOS>ATOM
      1  C4         2.6980   24.3670    4.0070 C.3   501  DMJ501      0.2031
      2  O4         1.2960   24.0980    3.9210 O.3   501  DMJ501     -0.2187
      3  C3         3.4490   23.2680    4.8010 C.3   501  DMJ501      0.2151
      4  O3         2.9700   23.1610    6.1570 O.3   501  DMJ501     -0.2176
      5  C2         4.9550   23.5560    4.8440 C.3   501  DMJ501      0.2020
      6  O2         5.2120   24.7780    5.5640 O.3   501  DMJ501     -0.2188
      7  C1         5.5000   23.6490    3.4220 C.3   501  DMJ501      0.1243
      8  N5         4.7150   24.6030    2.6320 N.3   501  DMJ501     -0.2113
      9  C5         3.2520   24.5710    2.5990 C.3   501  DMJ501      0.1386
     10  C6         2.6870   25.8350    1.9530 C.3   501  DMJ501      0.2020
     11  O6         2.9290   26.9790    2.7840 O.3   501  DMJ501     -0.2188
@<TRIPOS>BOND
     1    10     9    1
     2    10    11    1
     3     9     8    1
     4     9     1    1
     5     8     7    1
     6     7     5    1
     7     2     1    1
     8     1     3    1
     9     3     5    1
    10     3     4    1
    11     5     6    1
