@<TRIPOS>MOLECULE
4ad5_MAN_A_1.pdb
 11 11 0 0 0
SMALL
GASTEIGER

@<TRIPOS>ATOM
      1  C1         4.8870   18.2330    1.5970 C.3   510  MAN510      0.1777
      2  C2         6.0490   19.2330    1.5500 C.3   510  MAN510      0.2141
      3  C3         7.2960   18.5600    0.9540 C.3   510  MAN510      0.2173
      4  C4         7.6940   17.3280    1.7800 C.3   510  MAN510      0.2142
      5  C5         6.4810   16.3960    1.9260 C.3   510  MAN510      0.1810
      6  C6         6.7420   15.3110    2.9690 C.3   510  MAN510      0.2141
      7  O2         6.2650   19.7140    2.8660 O.3   510  MAN510     -0.2176
      8  O3         8.3850   19.4550    0.7760 O.3   510  MAN510     -0.2175
      9  O4         8.7870   16.6520    1.1660 O.3   510  MAN510     -0.2176
     10  O5         5.2920   17.0750    2.3190 O.3   510  MAN510     -0.3481
     11  O6         6.7160   14.0530    2.3320 O.3   510  MAN510     -0.2176
@<TRIPOS>BOND
     1     8     3    1
     2     3     2    1
     3     3     4    1
     4     9     4    1
     5     2     1    1
     6     2     7    1
     7     1    10    1
     8     4     5    1
     9     5    10    1
    10     5     6    1
    11    11     6    1
