@<TRIPOS>MOLECULE
4ad5_GLC_A_1.pdb
 11 11 0 0 0
SMALL
GASTEIGER

@<TRIPOS>ATOM
      1  C1         3.2000   22.1300    7.1300 C.3   500  GLC500      0.1777
      2  C2         2.3170   22.1080    8.3840 C.3   500  GLC500      0.2141
      3  C3         3.0160   22.7700    9.5670 C.3   500  GLC500      0.2173
      4  C4         4.4280   22.2030    9.7260 C.3   500  GLC500      0.2142
      5  C5         5.1980   22.3670    8.4090 C.3   500  GLC500      0.1810
      6  C6         6.6500   21.8880    8.5210 C.3   500  GLC500      0.2141
      7  O2         1.1400   22.8270    8.1310 O.3   500  GLC500     -0.2176
      8  O3         2.2500   22.5800   10.7420 O.3   500  GLC500     -0.2175
      9  O4         5.0770   22.8520   10.7900 O.3   500  GLC500     -0.2176
     10  O5         4.5150   21.6540    7.3890 O.3   500  GLC500     -0.3481
     11  O6         7.3220   21.9950    7.2810 O.3   500  GLC500     -0.2176
@<TRIPOS>BOND
     1     1    10    1
     2     1     2    1
     3    11     6    1
     4    10     5    1
     5     7     2    1
     6     2     3    1
     7     5     6    1
     8     5     4    1
     9     3     4    1
    10     3     8    1
    11     4     9    1
