@<TRIPOS>MOLECULE
4ad6_GSY_A_1.pdb
 15 16 0 0 0
SMALL
GASTEIGER

@<TRIPOS>ATOM
      1  O15        1.8940    2.1560   12.4740 O.3   1159  GSY1159    -0.2185
      2  C14        1.2690    1.0340   11.8920 C.3   1159  GSY1159     0.2042
      3  C13        0.4050    0.3810   12.9620 C.3   1159  GSY1159     0.1390
      4  N7         1.3000   -0.5860   13.6790 N.am  1159  GSY1159    -0.2219
      5  C5         1.7310   -1.7150   13.0950 C.3   1159  GSY1159     0.3124
      6  C6         1.5560   -2.3020   11.8240 C.1   1159  GSY1159     0.2274
      7  O11        0.8490   -1.8090   10.9160 O.2   1159  GSY1159    -0.2105
      8  N1         2.1540   -3.5330   11.5800 N.2   1159  GSY1159    -0.2511
      9  C2         2.9290   -4.1040   12.6240 C.1   1159  GSY1159     0.2612
     10  N2         3.4840   -5.2730   12.4900 N.pl3 1159  GSY1159    -0.0220
     11  N3         3.0560   -3.5200   13.8020 N.2   1159  GSY1159    -0.2594
     12  C4         2.4840   -2.3530   14.0680 C.1   1159  GSY1159     0.1737
     13  N9         2.4620   -1.5880   15.1750 N.2   1159  GSY1159    -0.2843
     14  C8         1.7350   -0.5350   14.9270 C.1   1159  GSY1159     0.1090
     15  S10        1.4910    0.7360   16.1740 S.2   1159  GSY1159     0.0407
@<TRIPOS>BOND
     1     7     6    2
     2     8     6    2
     3     8     9    2
     4     6     5    1
     5     2     1    1
     6     2     3    1
     7    10     9    1
     8     9    11    2
     9     3     4    1
    10     5     4    1
    11     5    12    1
    12     4    14    1
    13    11    12    2
    14    12    13    2
    15    14    13    2
    16    14    15    2
