@<TRIPOS>MOLECULE
4adb_PLP_A_1.pdb
 15 15 0 0 0
SMALL
GASTEIGER

@<TRIPOS>ATOM
      1  N1        -9.0920   41.8470   34.9200 N.ar  1404  PLP1404    -0.2452
      2  C2       -10.4140   41.9460   35.0020 C.ar  1404  PLP1404     0.0978
      3  C2A      -11.1570   43.2670   35.1440 C.3   1404  PLP1404     0.0555
      4  C3       -11.1660   40.6850   34.9910 C.ar  1404  PLP1404     0.2049
      5  O3       -12.5000   40.7170   35.0810 O.3   1404  PLP1404    -0.2857
      6  C4       -10.4690   39.4200   34.8170 C.ar  1404  PLP1404     0.0182
      7  C4A      -11.1900   38.1550   34.7910 C.3   1404  PLP1404     0.0342
      8  C5        -9.0090   39.4480   34.7600 C.ar  1404  PLP1404     0.0261
      9  C6        -8.3850   40.7200   34.8440 C.ar  1404  PLP1404     0.0965
     10  C5A       -8.2200   38.1770   34.7080 C.3   1404  PLP1404     0.1815
     11  O4P       -8.4570   37.5330   33.4730 O.3   1404  PLP1404    -0.2653
     12  P         -8.0590   35.9750   33.3970 P.3   1404  PLP1404     0.5329
     13  O1P       -9.0010   35.3450   34.3430 O.3   1404  PLP1404    -0.1145
     14  O2P       -8.3310   35.6340   31.9030 O.2   1404  PLP1404    -0.2224
     15  O3P       -6.6310   35.7800   33.7750 O.3   1404  PLP1404    -0.1145
@<TRIPOS>BOND
     1    14    12    2
     2    12    11    1
     3    12    15    1
     4    12    13    1
     5    11    10    1
     6    10     8    1
     7     8     6   ar
     8     8     9   ar
     9     7     6    1
    10     6     4   ar
    11     9     1   ar
    12     1     2   ar
    13     4     2   ar
    14     4     5    1
    15     2     3    1
