@<TRIPOS>MOLECULE
4adc_PLP_A_1.pdb
 16 16 0 0 0
SMALL
GASTEIGER

@<TRIPOS>ATOM
      1  N1        -9.0530   42.6610   34.6780 N.ar  1403  PLP1403    -0.2452
      2  C2       -10.3390   42.7150   34.9870 C.ar  1403  PLP1403     0.0979
      3  C2A      -11.0900   44.0130   35.0160 C.3   1403  PLP1403     0.0555
      4  C3       -11.0050   41.4570   35.2880 C.ar  1403  PLP1403     0.2073
      5  O3       -12.3280   41.4830   35.5510 O.3   1403  PLP1403    -0.2856
      6  C4       -10.2660   40.1890   35.1600 C.ar  1403  PLP1403     0.0506
      7  C4A      -10.9590   38.9370   35.4690 C.3   1403  PLP1403     0.2116
      8  O4A      -11.8870   39.0830   36.2930 O.3   1403  PLP1403    -0.2151
      9  C5        -8.8310   40.2490   34.8240 C.ar  1403  PLP1403     0.0286
     10  C6        -8.3090   41.5240   34.6260 C.ar  1403  PLP1403     0.0966
     11  C5A       -7.9560   38.9750   34.7300 C.3   1403  PLP1403     0.1816
     12  O4P       -8.4380   38.3220   33.5800 O.3   1403  PLP1403    -0.2653
     13  P         -8.0770   36.8240   33.2760 P.3   1403  PLP1403     0.5329
     14  O1P       -9.0320   36.0400   34.1870 O.3   1403  PLP1403    -0.1145
     15  O2P       -8.4270   36.6240   31.7860 O.2   1403  PLP1403    -0.2224
     16  O3P       -6.7000   36.4820   33.5200 O.3   1403  PLP1403    -0.1145
@<TRIPOS>BOND
     1    15    13    2
     2    13    16    1
     3    13    12    1
     4    13    14    1
     5    12    11    1
     6    10     1   ar
     7    10     9   ar
     8     1     2   ar
     9    11     9    1
    10     9     6   ar
    11     2     3    1
    12     2     4   ar
    13     6     4   ar
    14     6     7    1
    15     4     5    1
    16     7     8    1
