@<TRIPOS>MOLECULE
4add_PLP_A_1.pdb
 15 15 0 0 0
SMALL
GASTEIGER

@<TRIPOS>ATOM
      1  N1         9.2480   42.8760  -34.6150 N.ar  410  PLP410     -0.2452
      2  C2        10.5680   42.8790  -34.9020 C.ar  410  PLP410      0.0978
      3  C2A       11.2930   44.1730  -35.0130 C.3   410  PLP410      0.0555
      4  C3        11.2360   41.5740  -35.0470 C.ar  410  PLP410      0.2049
      5  O3        12.5760   41.4580  -35.2930 O.3   410  PLP410     -0.2857
      6  C4        10.3990   40.3620  -34.9080 C.ar  410  PLP410      0.0182
      7  C4A       10.9920   39.0320  -35.0320 C.3   410  PLP410      0.0342
      8  C5         8.9780   40.5200  -34.6490 C.ar  410  PLP410      0.0261
      9  C6         8.4780   41.7950  -34.5300 C.ar  410  PLP410      0.0965
     10  C5A        8.0610   39.3210  -34.4850 C.3   410  PLP410      0.1815
     11  O4P        8.5180   38.6100  -33.3480 O.3   410  PLP410     -0.2653
     12  P          8.2030   37.0460  -33.0800 P.3   410  PLP410      0.5329
     13  O1P        9.2110   36.3610  -33.9720 O.2   410  PLP410     -0.2224
     14  O2P        8.5340   36.8880  -31.6170 O.3   410  PLP410     -0.1145
     15  O3P        6.7870   36.7750  -33.3010 O.3   410  PLP410     -0.1145
@<TRIPOS>BOND
     1     5     4    1
     2     4     6   ar
     3     4     2   ar
     4     7     6    1
     5     3     2    1
     6     6     8   ar
     7     2     1   ar
     8     8     9   ar
     9     8    10    1
    10     1     9   ar
    11    10    11    1
    12    13    12    2
    13    11    12    1
    14    15    12    1
    15    12    14    1
