@<TRIPOS>MOLECULE
4add_SUO_A_1.pdb
 16 15 0 0 0
SMALL
GASTEIGER

@<TRIPOS>ATOM
      1  N         13.7160   34.3410  -38.6400 N.am  411  SUO411     -0.1956
      2  CA        12.3380   34.5350  -38.1630 C.3   411  SUO411      0.1978
      3  CB        12.5070   35.5980  -37.0740 C.3   411  SUO411      0.0348
      4  CG        12.8170   37.0240  -37.5310 C.3   411  SUO411      0.0228
      5  CD        12.8960   37.7930  -36.1990 C.3   411  SUO411      0.1094
      6  NE        11.6820   38.6300  -36.2100 N.3   411  SUO411     -0.1314
      7  C         11.1980   34.8500  -39.1620 C.2   411  SUO411      0.3842
      8  O         11.3760   35.1260  -40.3730 O.co2 411  SUO411     -0.2437
      9  OXT       14.0360   32.1570  -37.9290 O.2   411  SUO411     -0.2733
     10  O2        10.0140   34.8220  -38.7550 O.co2 411  SUO411     -0.2437
     11  CW        15.8490   33.2140  -39.0700 C.3   411  SUO411      0.0986
     12  CX        16.0900   31.8260  -39.6940 C.3   411  SUO411      0.1237
     13  CY        17.4210   31.6460  -40.3910 C.2   411  SUO411      0.3654
     14  OD1       18.3370   32.5240  -40.2250 O.co2 411  SUO411     -0.2456
     15  OD2       17.5300   30.5940  -41.1060 O.co2 411  SUO411     -0.2456
     16  CV        14.4450   33.2020  -38.4830 C.2   411  SUO411      0.2424
@<TRIPOS>BOND
     1    15    13   ar
     2    13    14   ar
     3    13    12    1
     4     8     7   ar
     5    12    11    1
     6     7    10   ar
     7     7     2    1
     8    11    16    1
     9     1    16   am
    10     1     2    1
    11    16     9    2
    12     2     3    1
    13     4     3    1
    14     4     5    1
    15     6     5    1
