@<TRIPOS>MOLECULE
4adm_SRT_C_1.pdb
 10 9 0 0 0
SMALL
GASTEIGER

@<TRIPOS>ATOM
      1  O1        76.4620   -6.1070   41.0100 O.co2 1466  SRT1466    -0.2427
      2  O11       78.1110   -6.0130   39.6070 O.co2 1466  SRT1466    -0.2427
      3  C1        77.3500   -5.4850   40.4310 C.2   1466  SRT1466     0.3979
      4  C2        77.4740   -3.9470   40.6970 C.3   1466  SRT1466     0.2950
      5  O2        76.2050   -3.2700   40.5120 O.3   1466  SRT1466    -0.2075
      6  C3        77.8260   -3.6450   42.1650 C.3   1466  SRT1466     0.2950
      7  O3        78.4890   -4.7150   42.8260 O.3   1466  SRT1466    -0.2075
      8  C4        78.5590   -2.3320   42.3880 C.2   1466  SRT1466     0.3979
      9  O4        78.6200   -1.4940   41.4580 O.co2 1466  SRT1466    -0.2427
     10  O41       78.9660   -2.1340   43.5560 O.co2 1466  SRT1466    -0.2427
@<TRIPOS>BOND
     1     2     3   ar
     2     3     4    1
     3     3     1   ar
     4     5     4    1
     5     4     6    1
     6     9     8   ar
     7     6     8    1
     8     6     7    1
     9     8    10   ar
