@<TRIPOS>MOLECULE
4adu_R5P_A_1.pdb
 13 12 0 0 0
SMALL
GASTEIGER

@<TRIPOS>ATOM
      1  C1        21.2300   27.0760   25.7660 C.3   1084  R5P1084     0.0383
      2  C2        22.2610   26.3480   26.6280 C.3   1084  R5P1084     0.1849
      3  O2        21.6250   25.7030   27.7470 O.3   1084  R5P1084    -0.2203
      4  C3        23.0200   25.2700   25.8790 C.3   1084  R5P1084     0.2147
      5  O3        23.9870   24.7900   26.8110 O.3   1084  R5P1084    -0.2176
      6  C4        22.1720   24.0640   25.4820 C.3   1084  R5P1084     0.2146
      7  O4        21.9200   23.9850   24.0460 O.3   1084  R5P1084    -0.2176
      8  C5        22.9140   22.8080   25.9900 C.3   1084  R5P1084     0.1892
      9  O5        23.1020   22.8140   27.4040 O.3   1084  R5P1084    -0.2674
     10  P         23.5030   21.4770   28.2280 P.3   1084  R5P1084     0.5327
     11  O1P       24.9530   21.6200   28.5650 O.3   1084  R5P1084    -0.1145
     12  O2P       22.6180   21.5320   29.4670 O.3   1084  R5P1084    -0.1145
     13  O3P       23.1690   20.3220   27.3310 O.2   1084  R5P1084    -0.2224
@<TRIPOS>BOND
     1     7     6    1
     2     6     4    1
     3     6     8    1
     4     1     2    1
     5     4     2    1
     6     4     5    1
     7     8     9    1
     8     2     3    1
     9    13    10    2
    10     9    10    1
    11    10    11    1
    12    10    12    1
