@<TRIPOS>MOLECULE
4adw_NDP_A_1.pdb
 48 52 0 0 0
SMALL
GASTEIGER

@<TRIPOS>ATOM
      1  PA        -2.7370   20.4270   -7.4910 P.3   1490  NDP1490     0.2189
      2  O1A       -4.1280   19.8810   -8.1990 O.2   1490  NDP1490    -0.5170
      3  O2A       -2.1720   21.7540   -7.9260 O.3   1490  NDP1490    -0.4371
      4  O5B       -2.1100   19.9180   -8.9090 O.3   1490  NDP1490    -0.3112
      5  C5B       -2.5440   18.7040   -9.5490 C.3   1490  NDP1490     0.1813
      6  C4B       -1.7300   18.3540  -10.7970 C.3   1490  NDP1490     0.1820
      7  O4B       -2.0610   16.9850  -11.1780 O.3   1490  NDP1490    -0.3136
      8  C3B       -2.1800   19.2550  -11.9470 C.3   1490  NDP1490     0.2157
      9  O3B       -1.0390   19.6230  -12.7310 O.3   1490  NDP1490    -0.2175
     10  C2B       -3.1330   18.3660  -12.7430 C.3   1490  NDP1490     0.2314
     11  O2B       -3.1190   18.7040  -14.1270 O.3   1490  NDP1490    -0.2630
     12  C1B       -2.5160   16.9900  -12.5530 C.3   1490  NDP1490     0.3158
     13  N9A       -3.5300   15.9220  -12.7210 N.pl3 1490  NDP1490    -0.1439
     14  C8A       -4.7700   15.9230  -12.2260 C.3   1490  NDP1490     0.3377
     15  N7A       -5.3890   14.7980  -12.5770 N.2   1490  NDP1490    -0.2095
     16  C5A       -4.5390   14.0730  -13.2900 C.2   1490  NDP1490     0.2526
     17  C6A       -4.6220   12.8340  -13.9060 C.2   1490  NDP1490     0.4393
     18  N6A       -5.7430   12.1280  -13.8290 N.pl3 1490  NDP1490     0.2180
     19  N1A       -3.5550   12.3620  -14.5750 N.2   1490  NDP1490     0.0021
     20  C2A       -2.4300   13.0670  -14.6520 C.3   1490  NDP1490     0.5254
     21  N3A       -2.3210   14.2570  -14.0720 N.2   1490  NDP1490    -0.0055
     22  C4A       -3.3550   14.7840  -13.3870 C.2   1490  NDP1490     0.3518
     23  O3        -1.7070   19.2240   -6.9570 O.3   1490  NDP1490    -0.2703
     24  PN        -1.0280   19.1680   -5.4680 P.3   1490  NDP1490     0.2189
     25  O1N       -0.0250   20.1810   -6.3030 O.2   1490  NDP1490    -0.5170
     26  O2N       -1.0140   17.6880   -5.7360 O.3   1490  NDP1490    -0.4371
     27  O5D       -2.4610   19.8690   -5.0020 O.3   1490  NDP1490    -0.3112
     28  C5D       -2.7120   20.1240   -3.6030 C.3   1490  NDP1490     0.1813
     29  C4D       -3.2680   21.5500   -3.3010 C.3   1490  NDP1490     0.1799
     30  O4D       -2.5360   22.0740   -2.1510 O.3   1490  NDP1490    -0.3327
     31  C3D       -3.1400   22.5560   -4.4530 C.3   1490  NDP1490     0.2158
     32  O3D       -4.4450   23.0320   -4.8180 O.3   1490  NDP1490    -0.2175
     33  C2D       -2.2920   23.7120   -3.9190 C.3   1490  NDP1490     0.2309
     34  O2D       -3.0660   24.9270   -3.8840 O.3   1490  NDP1490    -0.2158
     35  C1D       -1.8310   23.3080   -2.5030 C.3   1490  NDP1490     0.2263
     36  N1N       -0.3460   23.1300   -2.3440 N.pl3 1490  NDP1490    -0.2787
     37  C2N        0.4850   24.2440   -2.1190 C.3   1490  NDP1490     0.1244
     38  C3N        1.8650   24.0830   -1.9570 C.2   1490  NDP1490     0.0544
     39  C7N        2.7730   25.3090   -1.7250 C.2   1490  NDP1490     0.2818
     40  O7N        3.9900   25.1820   -1.5810 O.2   1490  NDP1490    -0.2670
     41  N7N        2.1480   26.4880   -1.6990 N.am  1490  NDP1490    -0.0839
     42  C4N        2.5130   22.6860   -2.0060 C.2   1490  NDP1490     0.0033
     43  C5N        1.6000   21.6530   -2.2260 C.2   1490  NDP1490     0.0157
     44  C6N        0.2310   21.8510   -2.3860 C.2   1490  NDP1490     0.0633
     45  P2B       -4.1950   19.7490  -14.6970 P.3   1490  NDP1490     0.5328
     46  O1X       -3.6180   21.1990  -14.3090 O.3   1490  NDP1490    -0.1145
     47  O2X       -4.0670   19.6330  -16.2960 O.2   1490  NDP1490    -0.2224
     48  O3X       -5.5670   19.5080  -14.2170 O.3   1490  NDP1490    -0.1145
@<TRIPOS>BOND
     1    47    45    2
     2    45    46    1
     3    45    48    1
     4    45    11    1
     5    20    19    1
     6    20    21    1
     7    19    17    2
     8    11    10    1
     9    21    22    2
    10    17    18    1
    11    17    16    1
    12    22    16    1
    13    22    13    1
    14    16    15    2
    15    10    12    1
    16    10     8    1
    17     9     8    1
    18    13    12    1
    19    13    14    1
    20    15    14    1
    21    12     7    1
    22     8     6    1
    23     7     6    1
    24     6     5    1
    25     5     4    1
    26     4     1    1
    27     2     1    2
    28     3     1    1
    29     1    23    1
    30    23    24    1
    31    25    24    2
    32    26    24    1
    33    24    27    1
    34    27    28    1
    35    32    31    1
    36    31    33    1
    37    31    29    1
    38    33    34    1
    39    33    35    1
    40    28    29    1
    41    29    30    1
    42    35    36    1
    43    35    30    1
    44    44    36    1
    45    44    43    2
    46    36    37    1
    47    43    42    1
    48    37    38    1
    49    42    38    2
    50    38    39    1
    51    39    41   am
    52    39    40    2
