@<TRIPOS>MOLECULE
4adw_GCG_A_1.pdb
 48 47 0 0 0
SMALL
GASTEIGER

@<TRIPOS>ATOM
      1  C1        21.8820   42.3600  -10.2120 C.2   1491  GCG1491     0.3819
      2  CA1       23.3360   42.9360  -10.3160 C.3   1491  GCG1491     0.1948
      3  O11       21.3610   41.9250  -11.2810 O.co2 1491  GCG1491    -0.2441
      4  O21       21.3310   42.3520   -9.0700 O.co2 1491  GCG1491    -0.2441
      5  CB1       23.4180   44.3670   -9.7390 C.3   1491  GCG1491     0.0402
      6  N1        23.8450   42.8920  -11.7180 N.3   1491  GCG1491    -0.1208
      7  CG1       24.8920   44.8080   -9.7150 C.3   1491  GCG1491     0.0889
      8  CD1       25.2770   45.6840  -10.9430 C.2   1491  GCG1491     0.2418
      9  OD1       26.0430   45.2270  -11.8030 O.2   1491  GCG1491    -0.2733
     10  N2        24.7500   46.9550  -10.9010 N.am  1491  GCG1491    -0.1968
     11  CA2       24.9020   48.0620  -11.8960 C.3   1491  GCG1491     0.1843
     12  C2        24.9870   47.4340  -13.2850 C.2   1491  GCG1491     0.2626
     13  O2        26.0950   47.2240  -13.7940 O.2   1491  GCG1491    -0.2714
     14  CB2       26.1450   48.9590  -11.6440 C.3   1491  GCG1491     0.0997
     15  SG2       26.6090   49.2030   -9.8820 S.3   1491  GCG1491    -0.0797
     16  N3        23.7910   47.0700  -13.8190 N.am  1491  GCG1491    -0.1940
     17  CA3       23.6750   46.3740  -15.1260 C.3   1491  GCG1491     0.2014
     18  C3        24.1290   44.8780  -14.9780 C.2   1491  GCG1491     0.2635
     19  O3        24.6280   44.4470  -13.9210 O.2   1491  GCG1491    -0.2714
     20  N1S       23.9330   44.1080  -16.0820 N.am  1491  GCG1491    -0.2039
     21  C2S       24.2900   42.6710  -16.1360 C.3   1491  GCG1491     0.1152
     22  C3S       23.8340   42.0940  -17.4720 C.3   1491  GCG1491     0.0249
     23  C4S       24.5670   42.8150  -18.6230 C.3   1491  GCG1491     0.0206
     24  C5S       23.6000   43.7010  -19.4410 C.3   1491  GCG1491     0.0888
     25  C7S       22.5320   42.9600  -21.5270 C.3   1491  GCG1491     0.0905
     26  N6S       22.4950   42.9260  -20.0480 N.3   1491  GCG1491    -0.2180
     27  C8S       21.6570   41.8400  -22.1330 C.3   1491  GCG1491     0.0422
     28  C9S       20.1820   42.2950  -22.2540 C.3   1491  GCG1491     0.1167
     29  N11       19.2560   41.1340  -22.4290 N.am  1491  GCG1491    -0.2039
     30  C5        18.2570   41.0470  -23.3770 C.2   1491  GCG1491     0.2635
     31  N5        17.7830   38.7520  -24.4260 N.am  1491  GCG1491    -0.1940
     32  CA5       17.4420   39.7190  -23.3340 C.3   1491  GCG1491     0.2014
     33  O5        17.9830   41.9190  -24.2230 O.2   1491  GCG1491    -0.2714
     34  C6        19.0440   38.4650  -24.8860 C.2   1491  GCG1491     0.2626
     35  N6        18.4680   36.0320  -25.8710 N.am  1491  GCG1491    -0.1968
     36  CA6       19.1650   37.3730  -26.0350 C.3   1491  GCG1491     0.1843
     37  O6        20.0720   39.0520  -24.5050 O.2   1491  GCG1491    -0.2714
     38  CB6       18.7570   38.0080  -27.3920 C.3   1491  GCG1491     0.0997
     39  SG6       16.9330   38.2280  -27.5430 S.3   1491  GCG1491    -0.0797
     40  CD7       18.0610   35.3670  -24.7440 C.2   1491  GCG1491     0.2418
     41  C7        18.2130   30.4820  -26.4860 C.2   1491  GCG1491     0.3819
     42  CA7       17.9440   31.4990  -25.3110 C.3   1491  GCG1491     0.1948
     43  O17       17.9250   30.8330  -27.6590 O.co2 1491  GCG1491    -0.2441
     44  O27       18.6870   29.3550  -26.1900 O.co2 1491  GCG1491    -0.2441
     45  CB7       18.3400   32.9670  -25.6670 C.3   1491  GCG1491     0.0402
     46  N7        18.6340   31.0680  -24.0760 N.3   1491  GCG1491    -0.1208
     47  CG7       17.3800   33.9970  -25.0130 C.3   1491  GCG1491     0.0889
     48  OD7       18.1510   35.7800  -23.5830 O.2   1491  GCG1491    -0.2733
@<TRIPOS>BOND
     1    43    41   ar
     2    39    38    1
     3    38    36    1
     4    41    44   ar
     5    41    42    1
     6    36    35    1
     7    36    34    1
     8    35    40   am
     9    45    42    1
    10    45    47    1
    11    42    46    1
    12    47    40    1
    13    34    37    2
    14    34    31   am
    15    40    48    2
    16    31    32    1
    17    33    30    2
    18    30    32    1
    19    30    29   am
    20    29    28    1
    21    28    27    1
    22    27    25    1
    23    25    26    1
    24    26    24    1
    25    24    23    1
    26    23    22    1
    27    22    21    1
    28    21    20    1
    29    20    18   am
    30    17    18    1
    31    17    16    1
    32    18    19    2
    33    16    12   am
    34    13    12    2
    35    12    11    1
    36    11    14    1
    37    11    10    1
    38     9     8    2
    39     6     2    1
    40    14    15    1
    41     3     1   ar
    42     8    10   am
    43     8     7    1
    44     2     1    1
    45     2     5    1
    46     1     4   ar
    47     5     7    1
