@<TRIPOS>MOLECULE
4ae3_27X_A_1.pdb
 20 22 0 0 0
SMALL
GASTEIGER

@<TRIPOS>ATOM
      1  C01       25.5580   47.2370   25.8680 C.2   1752  27X1752     0.1164
      2  C02       24.9420   47.3040   24.6050 C.2   1752  27X1752     0.0393
      3  C03       23.5180   47.4800   24.4110 C.2   1752  27X1752     0.1007
      4  C04       22.7330   47.5860   25.5540 C.2   1752  27X1752     0.0589
      5  C05       23.3830   47.5260   26.8210 C.3   1752  27X1752     0.1177
      6  C06       24.7550   47.3590   27.0720 C.2   1752  27X1752     0.1351
      7  N07       21.3570   47.7600   25.9060 N.am  1752  27X1752    -0.2553
      8  C08       21.1070   47.8070   27.2650 C.2   1752  27X1752     0.2494
      9  C09       22.4450   47.6520   27.8720 C.2   1752  27X1752     0.0462
     10  O10       20.0200   47.9440   27.8840 O.2   1752  27X1752    -0.2699
     11  C11       22.8490   47.6160   29.1890 C.2   1752  27X1752     0.0397
     12  N12       25.1390   47.3220   28.3930 N.2   1752  27X1752    -0.3976
     13  C13       20.2920   47.8900   24.9260 C.3   1752  27X1752     0.1201
     14  C14       24.2330   47.4390   29.3970 C.2   1752  27X1752     0.2061
     15  N15       26.9330   47.0750   25.9650 N.pl3 1752  27X1752    -0.1257
     16  N16       22.9810   47.5310   23.1280 N.pl3 1752  27X1752    -0.1270
     17  C17       24.6620   47.3930   30.8280 C.2   1752  27X1752     0.3713
     18  O18       25.8120   47.0150   30.9560 O.2   1752  27X1752    -0.2420
     19  O19       23.7980   47.0890   31.8480 O.3   1752  27X1752    -0.4396
     20  C20       24.1050   46.1900   32.8940 C.3   1752  27X1752     0.2560
@<TRIPOS>BOND
     1    16     3    1
     2     3     2    1
     3     3     4    2
     4     2     1    2
     5    13     7    1
     6     4     7    1
     7     4     5    1
     8     1    15    1
     9     1     6    1
    10     7     8   am
    11     5     6    1
    12     5     9    1
    13     6    12    2
    14     8     9    1
    15     8    10    2
    16     9    11    2
    17    12    14    2
    18    11    14    1
    19    14    17    1
    20    17    18    2
    21    17    19    1
    22    19    20    1
