@<TRIPOS>MOLECULE
4ae3_AOV_A_1.pdb
 32 34 0 0 0
SMALL
GASTEIGER

@<TRIPOS>ATOM
      1  PB        19.6360   39.3610   51.5370 P.3   1750  AOV1750     0.0000
      2  O1B       20.9630   39.8860   51.1700 O.2   1750  AOV1750    -0.5000
      3  O2B       19.7500   37.8570   51.7700 O.3   1750  AOV1750    -0.5000
      4  O3B       18.6740   39.6390   50.4160 O.3   1750  AOV1750     0.0000
      5  PA        19.9950   41.4590   53.5920 P.3   1750  AOV1750     0.0000
      6  O1A       21.4120   41.0920   53.9770 O.3   1750  AOV1750    -0.5000
      7  O2A       19.5330   42.6210   52.8390 O.2   1750  AOV1750    -0.5000
      8  O3A       19.3090   40.1480   52.9390 O.3   1750  AOV1750     0.0000
      9  O5'       19.0240   41.4070   54.8670 O.3   1750  AOV1750     0.0000
     10  C5'       17.6570   41.8610   54.9010 C.3   1750  AOV1750     0.0000
     11  C4'       17.4220   42.8000   56.0790 C.3   1750  AOV1750     0.0000
     12  O4'       17.3150   41.9120   57.2270 O.3   1750  AOV1750     0.0000
     13  C3'       18.5210   43.8410   56.2820 C.3   1750  AOV1750     0.0000
     14  O3'       17.9530   44.9530   55.5890 O.3   1750  AOV1750     0.0000
     15  C2'       18.3280   43.9270   57.7820 C.3   1750  AOV1750     0.0000
     16  O2'       17.2630   44.8070   58.1110 O.3   1750  AOV1750     0.0000
     17  C1'       18.0320   42.5460   58.2980 C.3   1750  AOV1750     0.0000
     18  N9        19.2480   41.8220   58.8060 N.pl3 1750  AOV1750     0.5000
     19  C8        19.8250   40.7680   58.1660 C.3   1750  AOV1750     0.0000
     20  N7        20.8730   40.2940   58.8940 N.2   1750  AOV1750     0.0000
     21  C5        20.9130   41.1010   59.9830 C.2   1750  AOV1750     0.0000
     22  C6        21.8100   41.1400   61.1880 C.2   1750  AOV1750     0.0000
     23  N6        22.8210   40.2360   61.3110 N.pl3 1750  AOV1750     0.5000
     24  N1        21.6340   42.0780   62.1550 N.2   1750  AOV1750     0.5000
     25  C2        20.6290   42.9680   62.0510 C.3   1750  AOV1750     0.0000
     26  N3        19.7850   42.9840   61.0110 N.2   1750  AOV1750     0.5000
     27  C4        19.8590   42.1270   59.9570 C.2   1750  AOV1750     0.0000
     28  VG        18.2760   39.6840   48.4040 V     1750  AOV1750     0.0000
     29  O1G       18.8670   41.3280   48.3160 O.3   1750  AOV1750     0.0000
     30  O2G       16.5790   40.1950   48.5800 O.3   1750  AOV1750     0.0000
     31  O3G       18.3600   37.9260   48.2390 O.3   1750  AOV1750     0.0000
     32  O4G       18.0230   39.7710   46.6030 O.3   1750  AOV1750     0.0000
@<TRIPOS>BOND
     1    32    28    1
     2    31    28    1
     3    29    28    1
     4    28    30    1
     5    28     4    1
     6     4     1    1
     7     2     1    2
     8     1     3    1
     9     1     8    1
    10     7     5    2
    11     8     5    1
    12     5     6    1
    13     5     9    1
    14     9    10    1
    15    10    11    1
    16    14    13    1
    17    11    13    1
    18    11    12    1
    19    13    15    1
    20    12    17    1
    21    15    16    1
    22    15    17    1
    23    19    18    1
    24    19    20    1
    25    17    18    1
    26    18    27    1
    27    20    21    2
    28    27    21    1
    29    27    26    2
    30    21    22    1
    31    26    25    1
    32    22    23    1
    33    22    24    2
    34    25    24    1
