@<TRIPOS>MOLECULE
4aec_PLP_A_1.pdb
 15 15 0 0 0
SMALL
GASTEIGER

@<TRIPOS>ATOM
      1  N1        29.7300    5.0760   -7.7110 N.2   500  PLP500     -0.2505
      2  C2        30.4990    5.8680   -8.4950 C.2   500  PLP500      0.0675
      3  C2A       31.9210    5.4220   -8.6930 C.3   500  PLP500      0.0499
      4  C3        29.9510    7.0030   -9.1180 C.3   500  PLP500      0.1913
      5  O3        30.7780    7.7670   -9.9200 O.3   500  PLP500     -0.2167
      6  C4        28.6100    7.3840   -8.8870 C.3   500  PLP500      0.0581
      7  C4A       27.8870    8.3560   -9.7970 C.3   500  PLP500      0.0075
      8  C5        27.8540    6.5600   -8.0470 C.2   500  PLP500      0.0073
      9  C6        28.4370    5.4270   -7.4590 C.2   500  PLP500      0.0921
     10  C5A       26.4100    6.8390   -7.6630 C.3   500  PLP500      0.1776
     11  O4P       25.4720    6.7550   -8.7240 O.3   500  PLP500     -0.2656
     12  P         24.3730    7.9530   -8.7670 P.3   500  PLP500      0.5329
     13  O1P       25.1490    9.2430   -8.7410 O.3   500  PLP500     -0.1145
     14  O2P       23.5220    7.8800   -7.5070 O.3   500  PLP500     -0.1145
     15  O3P       23.4160    7.7190   -9.9130 O.2   500  PLP500     -0.2224
@<TRIPOS>BOND
     1     5     4    1
     2    15    12    2
     3     7     6    1
     4     4     6    1
     5     4     2    1
     6     6     8    1
     7    12    13    1
     8    12    11    1
     9    12    14    1
    10    11    10    1
    11     3     2    1
    12     2     1    2
    13     8    10    1
    14     8     9    2
    15     1     9    1
