@<TRIPOS>MOLECULE
4ael_4HN_A_1.pdb
 28 31 0 0 0
SMALL
GASTEIGER

@<TRIPOS>ATOM
      1  C1        22.7220   15.3450   40.6380 C.1   1769  4HN1769     0.0873
      2  C2        21.9600   14.6330   32.4610 C.ar  1769  4HN1769     0.0002
      3  C3        21.2150   13.4900   32.2500 C.ar  1769  4HN1769     0.0031
      4  C4        21.9070   15.2760   33.6850 C.ar  1769  4HN1769     0.0030
      5  C5        20.0180   15.9820   36.6550 C.ar  1769  4HN1769     0.0002
      6  C6        22.3560   15.6490   36.6550 C.ar  1769  4HN1769     0.0002
      7  C7        20.0930   16.5930   37.8900 C.ar  1769  4HN1769     0.0023
      8  C8        22.4300   16.2610   37.8800 C.ar  1769  4HN1769     0.0023
      9  C9        20.4220   13.0050   33.2720 C.ar  1769  4HN1769     0.0369
     10  C10       20.3500   20.2640   41.6060 C.ar  1769  4HN1769     0.0528
     11  C11       20.4770   20.8010   42.8720 C.ar  1769  4HN1769     0.1015
     12  C12       21.7090   19.0520   43.6010 C.ar  1769  4HN1769     0.1043
     13  C13       22.1170   16.6280   40.8820 C.3   1769  4HN1769     0.2044
     14  C14       21.6090   18.4360   42.3650 C.ar  1769  4HN1769     0.0848
     15  C15       21.1440   15.4870   36.0220 C.ar  1769  4HN1769     0.0029
     16  C16       21.3100   16.7350   38.5370 C.ar  1769  4HN1769     0.0269
     17  C17       21.1210   14.8010   34.7290 C.ar  1769  4HN1769     0.0340
     18  C18       20.9250   19.0410   41.3220 C.ar  1769  4HN1769     0.1369
     19  C19       20.3910   13.6420   34.5050 C.ar  1769  4HN1769     0.1385
     20  C20       22.1880   17.2100   42.1330 C.2   1769  4HN1769     0.1976
     21  C21       21.4340   17.2990   39.8830 C.2   1769  4HN1769     0.1302
     22  C22       20.1110   12.0570   37.5630 C.3   1769  4HN1769     0.0512
     23  C23       20.1120   11.9400   36.0520 C.3   1769  4HN1769     0.2055
     24  N24       23.2020   14.3090   40.4230 N.1   1769  4HN1769    -0.1950
     25  N25       21.1500   20.2340   43.8830 N.ar  1769  4HN1769    -0.2421
     26  N26       20.8330   18.4780   40.1020 N.2   1769  4HN1769    -0.4045
     27  O27       22.8500   16.5950   43.1800 O.2   1769  4HN1769    -0.2897
     28  O28       19.5650   13.1340   35.5040 O.3   1769  4HN1769    -0.4755
@<TRIPOS>BOND
     1     3     2   ar
     2     3     9   ar
     3     2     4   ar
     4     9    19   ar
     5     4    17   ar
     6    19    17   ar
     7    19    28    1
     8    17    15    1
     9    28    23    1
    10    15     6   ar
    11    15     5   ar
    12    23    22    1
    13     6     8   ar
    14     5     7   ar
    15     8    16   ar
    16     7    16   ar
    17    16    21    1
    18    21    26    2
    19    21    13    1
    20    26    18    2
    21    24     1    3
    22     1    13    1
    23    13    20    1
    24    18    10   ar
    25    18    14   ar
    26    10    11   ar
    27    20    14    2
    28    20    27    1
    29    14    12   ar
    30    11    25   ar
    31    12    25   ar
