@<TRIPOS>MOLECULE
4aeo_FMN_A_1.pdb
 39 41 0 0 0
SMALL
GASTEIGER

@<TRIPOS>ATOM
      1  N1       -17.7930  -11.1670   12.2400 N.2   1351  FMN1351    -0.2890
      2  C2       -17.1610  -11.3960   11.0350 C.1   1351  FMN1351     0.3669
      3  O2       -15.9680  -11.1540   10.9640 O.2   1351  FMN1351    -0.1744
      4  N3       -17.8520  -11.8880    9.9390 N.2   1351  FMN1351    -0.2300
      5  C4       -19.1990  -12.1540   10.0730 C.1   1351  FMN1351     0.2513
      6  O4       -19.8480  -12.5790    9.1140 O.2   1351  FMN1351    -0.2057
      7  C4A      -19.8370  -11.9300   11.2980 C.2   1351  FMN1351     0.2700
      8  N5       -21.1710  -12.2030   11.4480 N.2   1351  FMN1351    -0.3884
      9  C5A      -21.8180  -11.9410   12.6400 C.2   1351  FMN1351     0.1236
     10  C6       -23.1760  -12.2110   12.7530 C.2   1351  FMN1351    -0.0228
     11  C7       -23.8150  -11.9650   13.9550 C.2   1351  FMN1351    -0.0450
     12  C7M      -25.2870  -12.2410   14.0460 C.3   1351  FMN1351    -0.0394
     13  C8       -23.1150  -11.4510   15.0440 C.2   1351  FMN1351    -0.0489
     14  C8M      -23.8250  -11.1930   16.3460 C.3   1351  FMN1351    -0.0397
     15  C9       -21.7510  -11.1920   14.9330 C.2   1351  FMN1351    -0.0478
     16  C9A      -21.1120  -11.4410   13.7260 C.3   1351  FMN1351     0.1416
     17  N10      -19.7530  -11.1860   13.5890 N.pl3 1351  FMN1351    -0.2697
     18  C10      -19.1300  -11.4300   12.3830 C.2   1351  FMN1351     0.2416
     19  C1'      -18.9810  -10.6130   14.7340 C.3   1351  FMN1351     0.1294
     20  C2'      -19.1990   -9.0930   14.6600 C.3   1351  FMN1351     0.2044
     21  O2'      -18.5960   -8.5550   13.4940 O.3   1351  FMN1351    -0.2185
     22  C3'      -18.6230   -8.3580   15.8760 C.3   1351  FMN1351     0.2164
     23  O3'      -17.2350   -8.6630   16.0380 O.3   1351  FMN1351    -0.2175
     24  C4'      -19.3900   -8.7320   17.1470 C.3   1351  FMN1351     0.2147
     25  O4'      -20.7990   -8.6700   16.9550 O.3   1351  FMN1351    -0.2176
     26  C5'      -18.9900   -7.8460   18.3270 C.3   1351  FMN1351     0.1892
     27  O5'      -19.1820   -6.4770   18.0400 O.3   1351  FMN1351    -0.2674
     28  P        -20.4740   -5.7580   18.6900 P.3   1351  FMN1351     0.5327
     29  O1P      -21.7240   -6.4270   18.1920 O.2   1351  FMN1351    -0.2224
     30  O2P      -20.3840   -4.2920   18.3200 O.3   1351  FMN1351    -0.1145
     31  O3P      -20.4310   -5.9240   20.1990 O.3   1351  FMN1351    -0.1145
     32  H6       -23.6880  -12.7680   11.9680 H     1351  FMN1351     0.0649
     33 HM71      -25.6440  -11.9800   15.0420 H     1351  FMN1351     0.0278
     34 HM72      -25.4700  -13.2990   13.8610 H     1351  FMN1351     0.0278
     35 HM73      -25.8150  -11.6450   13.3030 H     1351  FMN1351     0.0278
     36 HM81      -23.1140  -10.8090   17.0770 H     1351  FMN1351     0.0278
     37 HM82      -24.2580  -12.1230   16.7140 H     1351  FMN1351     0.0278
     38 HM83      -24.6170  -10.4610   16.1890 H     1351  FMN1351     0.0278
     39  H9       -21.2350  -10.6430   15.7200 H     1351  FMN1351     0.0601
@<TRIPOS>BOND
     1     6     5    2
     2     4     5    2
     3     4     2    2
     4     5     7    1
     5     3     2    2
     6     2     1    2
     7     7     8    2
     8     7    18    1
     9     8     9    2
    10    32    10    1
    11     1    18    2
    12    18    17    1
    13     9    10    1
    14     9    16    1
    15    10    11    2
    16    35    12    1
    17    21    20    1
    18    17    16    1
    19    17    19    1
    20    16    15    1
    21    34    12    1
    22    11    12    1
    23    11    13    1
    24    12    33    1
    25    20    19    1
    26    20    22    1
    27    15    13    2
    28    15    39    1
    29    13    14    1
    30    22    23    1
    31    22    24    1
    32    38    14    1
    33    14    37    1
    34    14    36    1
    35    25    24    1
    36    24    26    1
    37    27    26    1
    38    27    28    1
    39    29    28    2
    40    30    28    1
    41    28    31    1
