@<TRIPOS>MOLECULE
4aeo_TNL_A_1.pdb
 21 21 0 0 0
SMALL
GASTEIGER

@<TRIPOS>ATOM
      1  C1       -18.3050  -14.9160   17.0430 C.ar  1355  TNL1355     0.0100
      2  C7       -18.2610  -14.8200   18.5360 C.3   1355  TNL1355    -0.0354
      3  C2       -18.4440  -16.1430   16.3950 C.ar  1355  TNL1355     0.1334
      4  N2       -18.5670  -17.3840   17.1130 N.pl3 1355  TNL1355     0.0568
      5  O21      -19.3610  -18.2990   16.6410 O.2   1355  TNL1355    -0.1261
      6  O22      -17.9610  -17.5990   18.1540 O.2   1355  TNL1355    -0.1261
      7  C3       -18.4870  -16.1780   15.0050 C.ar  1355  TNL1355    -0.0008
      8  C4       -18.3890  -15.0170   14.2560 C.ar  1355  TNL1355     0.1305
      9  N4       -18.4300  -15.0740   12.8420 N.pl3 1355  TNL1355     0.0566
     10  O41      -17.6620  -14.3280   12.1030 O.2   1355  TNL1355    -0.1261
     11  O42      -19.1870  -15.8680   12.2980 O.2   1355  TNL1355    -0.1261
     12  C5       -18.2560  -13.8040   14.8950 C.ar  1355  TNL1355    -0.0008
     13  C6       -18.2180  -13.7580   16.2760 C.ar  1355  TNL1355     0.1334
     14  N6       -18.0800  -12.4740   16.8640 N.pl3 1355  TNL1355     0.0568
     15  O61      -18.7720  -12.1170   17.9090 O.2   1355  TNL1355    -0.1261
     16  O62      -17.3160  -11.6990   16.3250 O.2   1355  TNL1355    -0.1261
     17 H7C1      -19.1610  -14.8900   18.8940 H     1355  TNL1355     0.0279
     18 H7C2      -17.7200  -15.5490   18.8860 H     1355  TNL1355     0.0279
     19 H7C3      -17.8620  -13.9710   18.7970 H     1355  TNL1355     0.0279
     20  H3       -18.5830  -17.0310   14.5520 H     1355  TNL1355     0.0663
     21  H5       -18.1860  -12.9860   14.3780 H     1355  TNL1355     0.0663
@<TRIPOS>BOND
     1    10     9    2
     2    11     9    2
     3     9     8    1
     4     8    12   ar
     5     8     7   ar
     6    21    12    1
     7    20     7    1
     8    12    13   ar
     9     7     3   ar
    10    13    14    1
    11    13     1   ar
    12    16    14    2
    13     3     1   ar
    14     3     4    1
    15     5     4    2
    16    14    15    2
    17     1     2    1
    18     4     6    2
    19     2    19    1
    20     2    18    1
    21     2    17    1
