@<TRIPOS>MOLECULE
4af0_IMP_A_1.pdb
 23 25 0 0 0
SMALL
GASTEIGER

@<TRIPOS>ATOM
      1  P         12.1050   19.5390   31.2950 P.3   1527  IMP1527     0.5327
      2  O1P       12.2600   19.4240   29.7700 O.2   1527  IMP1527    -0.2224
      3  O2P       11.2700   18.4100   31.8010 O.3   1527  IMP1527    -0.1145
      4  O3P       11.4480   20.8670   31.5740 O.3   1527  IMP1527    -0.1145
      5  O5'       13.4710   19.4170   32.0910 O.3   1527  IMP1527    -0.2675
      6  C5'       14.5930   20.2210   31.9470 C.3   1527  IMP1527     0.1860
      7  C4'       15.6090   19.9630   33.0330 C.3   1527  IMP1527     0.1823
      8  O4'       16.1500   18.6870   32.9760 O.3   1527  IMP1527    -0.3135
      9  C3'       16.7730   20.9140   33.1670 C.3   1527  IMP1527     0.2184
     10  O3'       16.4540   22.1050   33.8160 O.3   1527  IMP1527    -0.2174
     11  C2'       17.7650   20.1350   33.8860 C.3   1527  IMP1527     0.2570
     12  O2'       17.5250   20.0140   35.2770 O.3   1527  IMP1527    -0.2130
     13  C1'       17.5860   18.7930   33.3010 C.3   1527  IMP1527     0.3186
     14  N9        18.4600   18.3770   32.2120 N.pl3 1527  IMP1527    -0.1435
     15  C8        19.0090   19.0980   31.2020 C.3   1527  IMP1527     0.3382
     16  N7        19.7290   18.2940   30.4090 N.2   1527  IMP1527    -0.2054
     17  C5        19.6730   17.0450   30.9160 C.2   1527  IMP1527     0.2446
     18  C6        20.1920   15.7160   30.4940 C.1   1527  IMP1527     0.1792
     19  O6        20.8850   15.5850   29.5170 O.2   1527  IMP1527    -0.2203
     20  N1        19.9180   14.5770   31.2910 N.2   1527  IMP1527    -0.1458
     21  C2        19.0930   14.6370   32.4500 C.3   1527  IMP1527     0.4017
     22  N3        18.5450   15.9120   32.7760 N.2   1527  IMP1527    -0.0334
     23  C4        18.8570   17.1170   32.0430 C.2   1527  IMP1527     0.3528
@<TRIPOS>BOND
     1    19    18    2
     2     2     1    2
     3    16    17    2
     4    16    15    1
     5    18    17    1
     6    18    20    2
     7    17    23    1
     8    15    14    1
     9    20    21    1
    10     1     4    1
    11     1     3    1
    12     1     5    1
    13     6     5    1
    14     6     7    1
    15    23    14    1
    16    23    22    2
    17    14    13    1
    18    21    22    1
    19     8     7    1
    20     8    13    1
    21     7     9    1
    22     9    10    1
    23     9    11    1
    24    13    11    1
    25    11    12    1
