@<TRIPOS>MOLECULE
4af0_MOA_A_1.pdb
 23 24 0 0 0
SMALL
GASTEIGER

@<TRIPOS>ATOM
      1  C1        19.7700   15.4400   36.0630 C.2   1526  MOA1526     0.3445
      2  C2        24.5960   16.2010   32.8250 C.3   1526  MOA1526     0.0049
      3  C3        25.7370   16.6630   32.2120 C.3   1526  MOA1526     0.0009
      4  C4        27.0450   16.1500   32.8300 C.3   1526  MOA1526     0.0118
      5  C5        27.6320   16.8750   33.9900 C.3   1526  MOA1526     0.1141
      6  C6        27.0170   16.6580   35.3350 C.2   1526  MOA1526     0.3649
      7  C7        21.0050   19.9830   35.6180 C.3   1526  MOA1526     0.0340
      8  C8        24.1190   19.6710   34.1710 C.3   1526  MOA1526     0.2524
      9  C9        25.7830   17.8910   31.3330 C.3   1526  MOA1526     0.0000
     10  C10       19.4470   17.4410   36.8780 C.3   1526  MOA1526     0.2355
     11  C11       20.4940   17.5010   35.6920 C.ar  1526  MOA1526     0.0296
     12  C12       21.2280   18.5440   35.1020 C.ar  1526  MOA1526     0.0117
     13  C13       22.0980   18.2640   34.0420 C.ar  1526  MOA1526     0.1335
     14  C14       22.2680   16.9290   33.6120 C.ar  1526  MOA1526     0.0505
     15  C15       21.5450   15.8980   34.2330 C.ar  1526  MOA1526     0.2006
     16  C16       20.6340   16.1940   35.2580 C.ar  1526  MOA1526     0.1135
     17  C17       23.1970   16.5700   32.4050 C.3   1526  MOA1526     0.0327
     18  O1        19.7290   14.2120   36.0050 O.2   1526  MOA1526    -0.2448
     19  O2        19.2500   16.0490   37.1130 O.3   1526  MOA1526    -0.4404
     20  O3        22.8970   19.2970   33.5110 O.3   1526  MOA1526    -0.4720
     21  O4        21.6940   14.5820   33.8350 O.3   1526  MOA1526    -0.2866
     22  O5        26.8830   17.6510   36.1550 O.co2 1526  MOA1526    -0.2457
     23  O6        26.6380   15.5010   35.6830 O.co2 1526  MOA1526    -0.2457
@<TRIPOS>BOND
     1     9     3    1
     2     3     2    1
     3     3     4    1
     4    17     2    1
     5    17    14    1
     6     4     5    1
     7    20    13    1
     8    20     8    1
     9    14    13   ar
    10    14    15   ar
    11    21    15    1
    12     5     6    1
    13    13    12   ar
    14    15    16   ar
    15    12     7    1
    16    12    11   ar
    17    16    11   ar
    18    16     1    1
    19     6    23   ar
    20     6    22   ar
    21    11    10    1
    22    18     1    2
    23     1    19    1
    24    10    19    1
