@<TRIPOS>MOLECULE
4af3_VX6_A_1.pdb
 33 37 0 0 0
SMALL
GASTEIGER

@<TRIPOS>ATOM
      1  N1        26.8280  -20.5750  -15.1820 N.3   500  VX6500     -0.2686
      2  C2        25.4860  -20.5210  -15.8370 C.3   500  VX6500      0.0939
      3  C3        24.4510  -20.1530  -14.8120 C.3   500  VX6500      0.1102
      4  N4        24.3950  -21.2370  -13.8010 N.pl3 500  VX6500     -0.2830
      5  C5        25.5770  -22.1270  -13.6900 C.3   500  VX6500      0.1102
      6  C6        26.8130  -21.3150  -13.8930 C.3   500  VX6500      0.0939
      7  C7        27.4520  -19.2360  -14.9940 C.3   500  VX6500      0.0897
      8  C8        23.3460  -21.4550  -12.9810 C.2   500  VX6500      0.1843
      9  C9        22.0410  -21.0120  -13.2100 C.3   500  VX6500      0.1825
     10  C10       21.0530  -21.3320  -12.2770 C.2   500  VX6500      0.3106
     11  N11       21.3890  -22.0610  -11.1880 N.2   500  VX6500     -0.2951
     12  C12       22.6500  -22.4860  -10.9950 C.1   500  VX6500      0.1763
     13  N13       23.5980  -22.1820  -11.8830 N.2   500  VX6500     -0.3233
     14  N14       19.8000  -20.8790  -12.5020 N.pl3 500  VX6500      0.0224
     15  C15       18.7090  -21.2910  -11.8100 C.2   500  VX6500      0.3768
     16  C17       18.5290  -22.2470  -10.8890 C.3   500  VX6500      0.1690
     17  C18       17.2410  -22.1620  -10.5690 C.2   500  VX6500      0.0959
     18  N19       16.6830  -21.1950  -11.2730 N.2   500  VX6500     -0.0426
     19  N20       17.5380  -20.6930  -11.9950 N.2   500  VX6500      0.0793
     20  C21       16.4520  -23.0090   -9.5610 C.3   500  VX6500      0.0520
     21  S23       23.1370  -23.4460   -9.5850 S.3   500  VX6500      0.0090
     22  C24       21.7750  -23.2610   -8.5580 C.ar  500  VX6500      0.0409
     23  C25       21.6380  -22.1030   -7.8120 C.ar  500  VX6500      0.0085
     24  C26       20.5450  -21.9470   -6.9750 C.ar  500  VX6500      0.0171
     25  C27       19.5730  -22.9410   -6.8680 C.ar  500  VX6500      0.0734
     26  C28       19.7240  -24.1110   -7.6340 C.ar  500  VX6500      0.0171
     27  C29       20.8230  -24.2630   -8.4670 C.ar  500  VX6500      0.0085
     28  N30       18.5490  -22.6830   -6.0290 N.am  500  VX6500     -0.1792
     29  C31       17.5190  -23.5400   -5.9130 C.2   500  VX6500      0.2451
     30  O32       17.4040  -24.6060   -6.5110 O.2   500  VX6500     -0.2730
     31  C33       16.4240  -23.0950   -4.9500 C.3   500  VX6500      0.0786
     32  C34       14.9990  -22.9710   -5.5090 C.3   500  VX6500      0.0096
     33  C35       15.3580  -24.1280   -4.6040 C.3   500  VX6500      0.0096
@<TRIPOS>BOND
     1     2     1    1
     2     2     3    1
     3     1     7    1
     4     1     6    1
     5     3     4    1
     6     6     5    1
     7     4     5    1
     8     4     8    1
     9     9     8    1
    10     9    10    1
    11     8    13    2
    12    14    10    1
    13    14    15    1
    14    10    11    2
    15    19    15    2
    16    19    18    1
    17    13    12    2
    18    15    16    1
    19    18    17    2
    20    11    12    2
    21    12    21    1
    22    16    17    1
    23    17    20    1
    24    21    22    1
    25    22    27   ar
    26    22    23   ar
    27    27    26   ar
    28    23    24   ar
    29    26    25   ar
    30    24    25   ar
    31    25    28    1
    32    30    29    2
    33    28    29   am
    34    29    31    1
    35    32    31    1
    36    32    33    1
    37    31    33    1
