@<TRIPOS>MOLECULE
4af9_GAL_A_1.pdb
 11 11 0 0 0
SMALL
GASTEIGER

@<TRIPOS>ATOM
      1  C1        55.3640    9.0660   -2.5640 C.3   1271  GAL1271     0.1777
      2  C2        54.1950    8.9890   -1.5930 C.3   1271  GAL1271     0.2141
      3  C3        52.8650    9.2220   -2.2630 C.3   1271  GAL1271     0.2173
      4  C4        52.8790   10.4460   -3.1620 C.3   1271  GAL1271     0.2142
      5  C5        54.1020   10.3950   -4.1140 C.3   1271  GAL1271     0.1810
      6  C6        54.2570   11.6910   -4.8900 C.3   1271  GAL1271     0.2141
      7  O2        54.1550    7.6640   -1.0450 O.3   1271  GAL1271    -0.2176
      8  O3        51.9130    9.4050   -1.1960 O.3   1271  GAL1271    -0.2175
      9  O4        52.8660   11.6210   -2.3590 O.3   1271  GAL1271    -0.2176
     10  O5        55.2820   10.2430   -3.3390 O.3   1271  GAL1271    -0.3481
     11  O6        55.3750   11.5000   -5.7720 O.3   1271  GAL1271    -0.2176
@<TRIPOS>BOND
     1    11     6    1
     2     6     5    1
     3     5    10    1
     4     5     4    1
     5    10     1    1
     6     4     9    1
     7     4     3    1
     8     1     2    1
     9     3     2    1
    10     3     8    1
    11     2     7    1
