@<TRIPOS>MOLECULE
4af9_BGC_A_1.pdb
 12 12 0 0 0
SMALL
GASTEIGER

@<TRIPOS>ATOM
      1  C2        58.5250    7.7010   -1.5150 C.3   1272  BGC1272     0.2434
      2  C3        57.7250    8.5570   -2.4880 C.3   1272  BGC1272     0.2199
      3  C4        58.5150    9.7210   -3.0300 C.3   1272  BGC1272     0.2144
      4  C5        59.9340    9.3220   -3.4230 C.3   1272  BGC1272     0.1836
      5  C6        60.7920   10.5870   -3.5350 C.3   1272  BGC1272     0.2142
      6  O3        56.5670    9.0210   -1.7760 O.3   1272  BGC1272    -0.2174
      7  O4        57.8540   10.2170   -4.2080 O.3   1272  BGC1272    -0.2176
      8  O5        60.5560    8.4750   -2.4630 O.3   1272  BGC1272    -0.3236
      9  O6        62.0970   10.1810   -3.9910 O.3   1272  BGC1272    -0.2176
     10  O2        57.7200    6.5700   -1.1750 O.3   1272  BGC1272    -0.2148
     11  C1        59.8410    7.2690   -2.1620 C.3   1272  BGC1272     0.3024
     12  O1        60.5880    6.4520   -1.2500 O.3   1272  BGC1272    -0.1869
@<TRIPOS>BOND
     1     7     3    1
     2     9     5    1
     3     5     4    1
     4     4     3    1
     5     4     8    1
     6     3     2    1
     7     2     6    1
     8     2     1    1
     9     8    11    1
    10    11     1    1
    11    11    12    1
    12     1    10    1
