@<TRIPOS>MOLECULE
4afa_GAL_A_1.pdb
 11 11 0 0 0
SMALL
GASTEIGER

@<TRIPOS>ATOM
      1  C1        55.3340    8.9030   -2.8170 C.3   1271  GAL1271     0.1777
      2  C2        54.3260    8.8740   -1.6650 C.3   1271  GAL1271     0.2141
      3  C3        52.9310    9.1880   -2.1910 C.3   1271  GAL1271     0.2173
      4  C4        52.9190   10.4240   -3.0860 C.3   1271  GAL1271     0.2142
      5  C5        54.0820   10.4780   -4.0830 C.3   1271  GAL1271     0.1810
      6  C6        54.1710   11.8340   -4.7960 C.3   1271  GAL1271     0.2141
      7  O2        54.3310    7.6200   -1.0180 O.3   1271  GAL1271    -0.2176
      8  O3        52.0650    9.4070   -1.1040 O.3   1271  GAL1271    -0.2175
      9  O4        52.9130   11.5680   -2.2750 O.3   1271  GAL1271    -0.2176
     10  O5        55.3150   10.1710   -3.4540 O.3   1271  GAL1271    -0.3481
     11  O6        55.2200   11.8750   -5.7310 O.3   1271  GAL1271    -0.2176
@<TRIPOS>BOND
     1    11     6    1
     2     6     5    1
     3     5    10    1
     4     5     4    1
     5    10     1    1
     6     4     9    1
     7     4     3    1
     8     1     2    1
     9     3     2    1
    10     3     8    1
    11     2     7    1
