@<TRIPOS>MOLECULE
4afa_GLC_A_1.pdb
 12 12 0 0 0
SMALL
GASTEIGER

@<TRIPOS>ATOM
      1  C1        59.0130    6.4320   -4.1760 C.2   1272  GLC1272     0.3505
      2  C2        57.6080    6.8690   -3.7820 C.3   1272  GLC1272     0.2823
      3  O5        60.0990    6.8390   -3.3220 O.3   1272  GLC1272    -0.4450
      4  O1        59.2610    5.7720   -5.4280 O.2   1272  GLC1272    -0.2472
      5  O2        56.6780    6.6530   -4.8630 O.3   1272  GLC1272    -0.2082
      6  C3        57.5940    8.3610   -3.4150 C.3   1272  GLC1272     0.2270
      7  O3        56.6590    8.5690   -2.3310 O.3   1272  GLC1272    -0.2169
      8  C4        58.9420    9.0190   -3.0230 C.3   1272  GLC1272     0.2276
      9  O4        59.0340   10.2150   -3.8090 O.3   1272  GLC1272    -0.2163
     10  C5        60.2740    8.2590   -3.2150 C.3   1272  GLC1272     0.2344
     11  C6        61.2620    8.5370   -2.0700 C.3   1272  GLC1272     0.2281
     12  O6        61.5990    9.9390   -1.9810 O.3   1272  GLC1272    -0.2163
@<TRIPOS>BOND
     1     4     1    2
     2     5     2    1
     3     1     2    1
     4     1     3    1
     5     9     8    1
     6     2     6    1
     7     6     8    1
     8     6     7    1
     9     3    10    1
    10    10     8    1
    11    10    11    1
    12    11    12    1
