@<TRIPOS>MOLECULE
4afb_GOL_A_1.pdb
 12 11 0 0 0
SMALL
GASTEIGER

@<TRIPOS>ATOM
      1  C1       -15.4430   42.1930   -2.8630 C.3   1268  GOL1268     0.1141
      2  O1       -15.0380   42.4150   -1.5100 O.3   1268  GOL1268    -0.2319
      3  C2       -16.5130   41.1080   -2.9150 C.3   1268  GOL1268     0.1427
      4  O2       -16.0250   39.9110   -2.3510 O.3   1268  GOL1268    -0.2263
      5  C3       -17.0520   40.8330   -4.3270 C.3   1268  GOL1268     0.0757
      6  O3       -18.2060   39.9950   -4.2400 O.3   1268  GOL1268    -0.3923
      7  H11      -16.2850   40.3430   -4.9270 H     1268  GOL1268     0.0585
      8  H12      -17.3150   41.7730   -4.8120 H     1268  GOL1268     0.0585
      9  HO1      -18.5890   39.8730   -5.1330 H     1268  GOL1268     0.2095
     10  H2       -17.3520   41.4550   -2.3120 H     1268  GOL1268     0.0675
     11  H31      -14.5820   41.8880   -3.4580 H     1268  GOL1268     0.0619
     12  H32      -15.8360   43.1170   -3.2850 H     1268  GOL1268     0.0619
@<TRIPOS>BOND
     1     9     6    1
     2     7     5    1
     3     8     5    1
     4     5     6    1
     5     5     3    1
     6    11     1    1
     7    12     1    1
     8     3     1    1
     9     3     4    1
    10     3    10    1
    11     1     2    1
