@<TRIPOS>MOLECULE
4afc_GLC_A_1.pdb
 12 12 0 0 0
SMALL
GASTEIGER

@<TRIPOS>ATOM
      1  C1        58.5200    6.1920   -4.2400 C.3   1269  GLC1269     0.3024
      2  C2        57.4670    6.6850   -3.2570 C.3   1269  GLC1269     0.2434
      3  C3        57.3470    8.1890   -3.3390 C.3   1269  GLC1269     0.2199
      4  C4        58.6830    8.9050   -3.2610 C.3   1269  GLC1269     0.2144
      5  C5        59.7870    8.2070   -4.0670 C.3   1269  GLC1269     0.1836
      6  C6        61.1470    8.7150   -3.6070 C.3   1269  GLC1269     0.2142
      7  O1        58.1940    6.5710   -5.5830 O.3   1269  GLC1269    -0.1869
      8  O2        56.1990    6.1070   -3.6020 O.3   1269  GLC1269    -0.2148
      9  O3        56.5130    8.6890   -2.2800 O.3   1269  GLC1269    -0.2174
     10  O4        58.4680   10.2160   -3.7830 O.3   1269  GLC1269    -0.2176
     11  O5        59.7780    6.7780   -3.9120 O.3   1269  GLC1269    -0.3236
     12  O6        61.8200    7.6920   -2.8630 O.3   1269  GLC1269    -0.2176
@<TRIPOS>BOND
     1     7     1    1
     2     1    11    1
     3     1     2    1
     4     5    11    1
     5     5     6    1
     6     5     4    1
     7    10     4    1
     8     6    12    1
     9     8     2    1
    10     3     4    1
    11     3     2    1
    12     3     9    1
