@<TRIPOS>MOLECULE
4afc_GAL_A_1.pdb
 11 11 0 0 0
SMALL
GASTEIGER

@<TRIPOS>ATOM
      1  C1        55.1990    8.9180   -2.7730 C.3   1268  GAL1268     0.1777
      2  C2        54.1610    8.8640   -1.6520 C.3   1268  GAL1268     0.2141
      3  C3        52.7790    9.1330   -2.2130 C.3   1268  GAL1268     0.2173
      4  C4        52.7770   10.3670   -3.1150 C.3   1268  GAL1268     0.2142
      5  C5        53.9290   10.3950   -4.1300 C.3   1268  GAL1268     0.1810
      6  C6        54.0780   11.7160   -4.8940 C.3   1268  GAL1268     0.2141
      7  O2        54.1740    7.6150   -0.9460 O.3   1268  GAL1268    -0.2176
      8  O3        51.8360    9.3440   -1.1740 O.3   1268  GAL1268    -0.2175
      9  O4        52.9000   11.5570   -2.3430 O.3   1268  GAL1268    -0.2176
     10  O5        55.1610   10.1410   -3.4790 O.3   1268  GAL1268    -0.3481
     11  O6        55.0470   11.5170   -5.9470 O.3   1268  GAL1268    -0.2176
@<TRIPOS>BOND
     1    11     6    1
     2     6     5    1
     3     5    10    1
     4     5     4    1
     5    10     1    1
     6     4     9    1
     7     4     3    1
     8     1     2    1
     9     3     2    1
    10     3     8    1
    11     2     7    1
