@<TRIPOS>MOLECULE
4afd_BGC_A_1.pdb
 12 12 0 0 0
SMALL
GASTEIGER

@<TRIPOS>ATOM
      1  C2       -10.4510   19.4200   -9.9870 C.3   1167  BGC1167     0.2434
      2  C3       -10.5980   20.8180   -9.2770 C.3   1167  BGC1167     0.2199
      3  C4        -9.1040   21.3640   -9.1480 C.3   1167  BGC1167     0.2144
      4  C5        -8.4640   21.5130  -10.6420 C.3   1167  BGC1167     0.1836
      5  C6        -6.9180   21.6000  -10.5870 C.3   1167  BGC1167     0.2142
      6  C1       -10.0380   19.8110  -11.4560 C.3   1167  BGC1167     0.3024
      7  O1       -10.0100   18.6440  -12.2600 O.3   1167  BGC1167    -0.1869
      8  O2       -11.7120   18.7790   -9.9570 O.3   1167  BGC1167    -0.2148
      9  O3       -11.3200   20.7670   -8.0300 O.3   1167  BGC1167    -0.2174
     10  O4        -9.0100   22.6140   -8.5280 O.3   1167  BGC1167    -0.2176
     11  O5        -8.6940   20.3620  -11.5050 O.3   1167  BGC1167    -0.3236
     12  O6        -6.4990   22.4250  -11.6650 O.3   1167  BGC1167    -0.2176
@<TRIPOS>BOND
     1     7     6    1
     2    12     5    1
     3    11     6    1
     4    11     4    1
     5     6     1    1
     6     4     5    1
     7     4     3    1
     8     1     8    1
     9     1     2    1
    10     2     3    1
    11     2     9    1
    12     3    10    1
