@<TRIPOS>MOLECULE
4afe_GGY_A_1.pdb
 34 36 0 0 0
SMALL
GASTEIGER

@<TRIPOS>ATOM
      1  C01        0.7340  -10.6350   16.2100 C.3   1280  GGY1280     0.0523
      2  C02        1.6380  -10.3860   15.0640 C.3   1280  GGY1280     0.1880
      3  C03        2.2870  -11.6990   14.6490 C.2   1280  GGY1280     0.0204
      4  C04        1.6540  -12.5230   13.7680 C.2   1280  GGY1280     0.0743
      5  C05        0.3350  -12.1410   13.2160 C.3   1280  GGY1280     0.4183
      6  F06       -0.1130  -13.1120   12.3990 F     1280  GGY1280    -0.1659
      7  F07        0.4550  -10.9920   12.5220 F     1280  GGY1280    -0.1659
      8  F08       -0.5310  -11.9680   14.2160 F     1280  GGY1280    -0.1659
      9  O09        2.5890   -9.4410   15.4250 O.3   1280  GGY1280    -0.4746
     10  C10        3.3560   -8.7970   14.4370 C.ar  1280  GGY1280     0.1433
     11  C11        2.7760   -8.5050   13.2090 C.ar  1280  GGY1280     0.0372
     12  C12        3.5100   -7.8720   12.2230 C.ar  1280  GGY1280     0.0058
     13  C13        2.8500   -7.5530   10.8590 C.ar  1280  GGY1280     0.0350
     14  C14        2.2010   -8.5770   10.1440 C.ar  1280  GGY1280     0.0049
     15  C15        1.6030   -8.2640    8.8960 C.ar  1280  GGY1280     0.0253
     16  C16        0.9050   -9.3170    8.1060 C.ar  1280  GGY1280     0.0307
     17  C17        0.3080   -9.1760    6.8140 C.ar  1280  GGY1280     0.0041
     18  C18       -0.3080  -10.3960    6.2870 C.ar  1280  GGY1280     0.0008
     19  C19       -1.0060  -10.4710    4.9190 C.3   1280  GGY1280     0.0997
     20  N20       -1.5860   -9.2340    4.3820 N.3   1280  GGY1280    -0.2665
     21  C21       -1.6680   -9.3120    2.9340 C.3   1280  GGY1280     0.0899
     22  C22       -2.9570   -9.0320    4.9470 C.3   1280  GGY1280     0.0899
     23  C23       -0.1960  -11.5140    7.1740 C.ar  1280  GGY1280     0.0325
     24  S24        0.6520  -10.9540    8.5590 S.2   1280  GGY1280    -0.0867
     25  C25        1.6800   -6.9660    8.4280 C.ar  1280  GGY1280     0.1009
     26  N26        2.3110   -6.0040    9.1380 N.ar  1280  GGY1280    -0.2259
     27  C27        2.8930   -6.2710   10.3360 C.ar  1280  GGY1280     0.1696
     28  N28        3.5410   -5.2150   11.0330 N.pl3 1280  GGY1280    -0.1072
     29  C29        4.8740   -7.5160   12.4670 C.ar  1280  GGY1280     0.0004
     30  C30        5.4570   -7.8050   13.6910 C.ar  1280  GGY1280     0.0077
     31  C31        4.7280   -8.4390   14.6870 C.ar  1280  GGY1280     0.0905
     32  C32        5.3750   -8.7460   16.0080 C.2   1280  GGY1280     0.2871
     33  N33        4.9180   -9.8690   16.8310 N.am  1280  GGY1280    -0.0836
     34  O34        6.2880   -8.0650   16.4150 O.2   1280  GGY1280    -0.2666
@<TRIPOS>BOND
     1    21    20    1
     2    20    19    1
     3    20    22    1
     4    19    18    1
     5    18    17   ar
     6    18    23   ar
     7    17    16   ar
     8    23    24   ar
     9    16    24   ar
    10    16    15    1
    11    25    15   ar
    12    25    26   ar
    13    15    14   ar
    14    26    27   ar
    15    14    13   ar
    16    27    13   ar
    17    27    28    1
    18    13    12    1
    19    12    29   ar
    20    12    11   ar
    21     6     5    1
    22    29    30   ar
    23     7     5    1
    24    11    10   ar
    25     5     4    1
    26     5     8    1
    27    30    31   ar
    28     4     3    2
    29    10    31   ar
    30    10     9    1
    31     3     2    1
    32    31    32    1
    33     2     9    1
    34     2     1    1
    35    32    34    2
    36    32    33   am
