@<TRIPOS>MOLECULE
4aff_FLC_A_1.pdb
 13 12 0 0 0
SMALL
GASTEIGER

@<TRIPOS>ATOM
      1  CAC       17.9810   25.6480   15.2800 C.2   1119  FLC1119     0.3680
      2  CA        19.1860   25.7740   16.1630 C.3   1119  FLC1119     0.1560
      3  CB        18.9100   26.6420   17.4060 C.3   1119  FLC1119     0.2402
      4  CBC       20.0150   26.5480   18.4280 C.2   1119  FLC1119     0.3927
      5  CG        18.6480   28.0830   17.0100 C.3   1119  FLC1119     0.1560
      6  CGC       18.0350   28.9490   18.0910 C.2   1119  FLC1119     0.3680
      7  OA1       18.1820   25.3210   14.0380 O.co2 1119  FLC1119    -0.2455
      8  OA2       16.8420   25.7610   15.7560 O.co2 1119  FLC1119    -0.2455
      9  OB1       19.7450   26.4110   19.6450 O.co2 1119  FLC1119    -0.2429
     10  OB2       21.1950   26.6610   18.0140 O.co2 1119  FLC1119    -0.2429
     11  OG1       17.5650   30.0290   17.6690 O.co2 1119  FLC1119    -0.2455
     12  OG2       17.9960   28.5880   19.3030 O.co2 1119  FLC1119    -0.2455
     13  OHB       17.7450   26.0970   18.0950 O.3   1119  FLC1119    -0.2129
@<TRIPOS>BOND
     1     7     1   ar
     2     1     8   ar
     3     1     2    1
     4     2     3    1
     5     5     3    1
     6     5     6    1
     7     3    13    1
     8     3     4    1
     9    11     6   ar
    10    10     4   ar
    11     6    12   ar
    12     4     9   ar
