@<TRIPOS>MOLECULE
4aff_ATP_A_1.pdb
 31 33 0 0 0
SMALL
GASTEIGER

@<TRIPOS>ATOM
      1  PG        17.6020   24.1410   22.2160 P.3   1117  ATP1117     0.5373
      2  O1G       18.9860   24.0210   22.7440 O.3   1117  ATP1117    -0.1143
      3  O2G       16.8220   22.8880   22.3750 O.3   1117  ATP1117    -0.1143
      4  O3G       17.5190   24.7620   20.8220 O.2   1117  ATP1117    -0.2221
      5  PB        16.7220   26.7980   23.0500 P.3   1117  ATP1117     0.2277
      6  O1B       17.6770   27.2950   22.0430 O.2   1117  ATP1117    -0.5168
      7  O2B       16.7340   27.4250   24.4070 O.3   1117  ATP1117    -0.4368
      8  O3B       16.8660   25.2290   23.2200 O.3   1117  ATP1117    -0.2258
      9  PA        14.6130   26.5730   21.0660 P.3   1117  ATP1117     0.2189
     10  O1A       14.0160   25.2510   21.0690 O.3   1117  ATP1117    -0.4371
     11  O2A       15.6520   26.8610   20.0290 O.2   1117  ATP1117    -0.5170
     12  O3A       15.2410   26.9470   22.5140 O.3   1117  ATP1117    -0.2700
     13  O5'       13.5120   27.7300   21.0300 O.3   1117  ATP1117    -0.3112
     14  C5'       12.3390   27.5170   20.2240 C.3   1117  ATP1117     0.1813
     15  C4'       11.5530   28.7590   20.1740 C.3   1117  ATP1117     0.1821
     16  O4'       11.0660   29.0940   21.4950 O.3   1117  ATP1117    -0.3135
     17  C3'       12.2540   30.0300   19.7470 C.3   1117  ATP1117     0.2184
     18  O3'       12.4020   30.1010   18.3170 O.3   1117  ATP1117    -0.2174
     19  C2'       11.3440   31.1300   20.2990 C.3   1117  ATP1117     0.2570
     20  O2'       10.1890   31.2180   19.4760 O.3   1117  ATP1117    -0.2130
     21  C1'       10.9600   30.4950   21.6260 C.3   1117  ATP1117     0.3186
     22  N9        11.8160   30.9270   22.7470 N.pl3 1117  ATP1117    -0.1439
     23  C8        12.9420   30.3160   23.1770 C.3   1117  ATP1117     0.3377
     24  N7        13.4310   30.8860   24.3010 N.2   1117  ATP1117    -0.2095
     25  C5        12.5540   31.9050   24.5510 C.2   1117  ATP1117     0.2526
     26  C6        12.4420   32.8490   25.6190 C.2   1117  ATP1117     0.4393
     27  N6        13.3010   32.8520   26.6730 N.pl3 1117  ATP1117     0.2180
     28  N1        11.4440   33.7230   25.6010 N.2   1117  ATP1117     0.0021
     29  C2        10.5410   33.6730   24.5920 C.3   1117  ATP1117     0.5254
     30  N3        10.5360   32.8220   23.5540 N.2   1117  ATP1117    -0.0055
     31  C4        11.5660   31.9570   23.5970 C.2   1117  ATP1117     0.3518
@<TRIPOS>BOND
     1    18    17    1
     2    20    19    1
     3    17    15    1
     4    17    19    1
     5    11     9    2
     6    15    14    1
     7    15    16    1
     8    14    13    1
     9    19    21    1
    10     4     1    2
    11    13     9    1
    12     9    10    1
    13     9    12    1
    14    16    21    1
    15    21    22    1
    16     6     5    2
    17     1     3    1
    18     1     2    1
    19     1     8    1
    20    12     5    1
    21    22    23    1
    22    22    31    1
    23     5     8    1
    24     5     7    1
    25    23    24    1
    26    30    31    2
    27    30    29    1
    28    31    25    1
    29    24    25    2
    30    25    26    1
    31    29    28    1
    32    28    26    2
    33    26    27    1
