@<TRIPOS>MOLECULE
4afg_QMR_A_1.pdb
 16 19 0 0 0
SMALL
GASTEIGER

@<TRIPOS>ATOM
      1  C01       46.4010   -4.1070   13.8550 C.3   1214  QMR1214     0.0927
      2  N02       44.9110   -4.2010   13.9650 N.3   1214  QMR1214    -0.2174
      3  C03       44.1410   -3.2140   13.0450 C.3   1214  QMR1214     0.0927
      4  C04       44.8150   -1.9330   12.9480 C.3   1214  QMR1214     0.0358
      5  C05       46.2280   -2.1000   12.5880 C.3   1214  QMR1214     0.0109
      6  C06       46.8960   -2.7320   13.7010 C.3   1214  QMR1214     0.0358
      7  C07       46.2420   -1.9610   14.6730 C.2   1214  QMR1214    -0.0446
      8  C08       46.6940   -1.6410   15.9850 C.3   1214  QMR1214     0.0684
      9  C09       45.8900   -0.8330   16.8420 C.ar  1214  QMR1214     0.0769
     10  N10       46.3530   -0.5080   18.1260 N.ar  1214  QMR1214    -0.2450
     11  C11       45.5860    0.2470   18.9370 C.ar  1214  QMR1214     0.1191
     12  C12       44.3510    0.7350   18.5270 C.ar  1214  QMR1214     0.1191
     13  N13       43.9070    0.4430   17.2880 N.ar  1214  QMR1214    -0.2450
     14  C14       44.6970   -0.3640   16.4370 C.ar  1214  QMR1214     0.0769
     15  C15       44.2240   -0.6500   15.1330 C.3   1214  QMR1214     0.0684
     16  C16       45.0140   -1.4680   14.2640 C.2   1214  QMR1214    -0.0446
@<TRIPOS>BOND
     1     5     4    1
     2     5     6    1
     3     4     3    1
     4     4    16    1
     5     3     2    1
     6     6     1    1
     7     6     7    1
     8     1     2    1
     9    16     7    2
    10    16    15    1
    11     7     8    1
    12    15    14    1
    13     8     9    1
    14    14     9   ar
    15    14    13   ar
    16     9    10   ar
    17    13    12   ar
    18    10    11   ar
    19    12    11   ar
