@<TRIPOS>MOLECULE
4afh_L0B_A_1.pdb
 25 27 0 0 0
SMALL
GASTEIGER

@<TRIPOS>ATOM
      1  O1       -44.1380  110.1400   16.2770 O.2   1216  L0B1216    -0.2913
      2  C3       -45.3000  110.4800   16.4450 C.2   1216  L0B1216     0.1744
      3  C21      -45.1260  119.1780   10.1170 C.ar  1216  L0B1216    -0.0000
      4  C10      -46.1550  118.6720   10.9040 C.ar  1216  L0B1216    -0.0002
      5  C19      -45.9520  117.5170   11.6690 C.ar  1216  L0B1216    -0.0018
      6  C17      -44.7160  116.8720   11.6440 C.ar  1216  L0B1216     0.0077
      7  C18      -43.6920  117.3810   10.8510 C.ar  1216  L0B1216    -0.0018
      8  C20      -43.8850  118.5410   10.0870 C.ar  1216  L0B1216    -0.0002
      9  C14      -44.9980  114.4550   11.6130 C.3   1216  L0B1216     0.0534
     10  C11      -44.7910  113.0680   12.2620 C.3   1216  L0B1216     0.0604
     11  C13      -45.1510  111.9430   11.2770 C.3   1216  L0B1216     0.0161
     12  C15      -44.8360  110.5940   11.9160 C.3   1216  L0B1216     0.0028
     13  C12      -45.6040  110.4630   13.2300 C.3   1216  L0B1216     0.0165
     14  C9       -45.2250  111.6060   14.1740 C.3   1216  L0B1216     0.0652
     15  N1       -45.5070  112.9310   13.5560 N.3   1216  L0B1216    -0.2735
     16  C22      -46.9630  113.1440   13.4240 C.3   1216  L0B1216     0.0896
     17  C8       -45.9880  111.4600   15.5030 C.3   1216  L0B1216     0.0851
     18  C16      -44.4980  115.6340   12.4440 C.3   1216  L0B1216     0.1756
     19  O2       -45.2500  115.6990   13.6510 O.3   1216  L0B1216    -0.2183
     20  C4       -47.2920  110.4570   17.9870 C.ar  1216  L0B1216     0.0028
     21  C1       -46.0810  109.8910   17.5930 C.ar  1216  L0B1216     0.0347
     22  C2       -45.5810  108.7730   18.2650 C.ar  1216  L0B1216     0.0028
     23  C5       -46.2980  108.2150   19.3180 C.ar  1216  L0B1216     0.0001
     24  C6       -47.5030  108.7860   19.7130 C.ar  1216  L0B1216     0.0000
     25  C7       -48.0060  109.9000   19.0470 C.ar  1216  L0B1216     0.0001
@<TRIPOS>BOND
     1     8     3   ar
     2     8     7   ar
     3     3     4   ar
     4     7     6   ar
     5     4     5   ar
     6    11    12    1
     7    11    10    1
     8     9    10    1
     9     9    18    1
    10     6     5   ar
    11     6    18    1
    12    12    13    1
    13    10    15    1
    14    18    19    1
    15    13    14    1
    16    16    15    1
    17    15    14    1
    18    14    17    1
    19    17     2    1
    20     1     2    2
    21     2    21    1
    22    21    20   ar
    23    21    22   ar
    24    20    25   ar
    25    22    23   ar
    26    25    24   ar
    27    23    24   ar
