@<TRIPOS>MOLECULE
4afj_SJJ_A_1.pdb
 23 25 0 0 0
SMALL
GASTEIGER

@<TRIPOS>ATOM
      1  C5       101.3010   24.7550  -10.5850 C.ar  1391  SJJ1391     0.0016
      2  C7       103.5570   24.8720  -11.3080 C.ar  1391  SJJ1391     0.0016
      3  C4       101.5420   23.5290   -9.9970 C.ar  1391  SJJ1391     0.0367
      4  C8       103.8190   23.6480  -10.7190 C.ar  1391  SJJ1391     0.0367
      5  C19      106.2320   30.1010  -15.2860 C.ar  1391  SJJ1391     0.0181
      6  C23      107.7230   28.7750  -13.9870 C.ar  1391  SJJ1391     0.0181
      7  C20      107.0300   29.8400  -16.3820 C.ar  1391  SJJ1391     0.0986
      8  C22      108.4470   28.5700  -15.1440 C.ar  1391  SJJ1391     0.0986
      9  C11      100.5140   28.1870  -12.4960 C.3   1391  SJJ1391     0.2723
     10  C6       102.2960   25.4340  -11.2560 C.ar  1391  SJJ1391     0.0107
     11  C18      106.5920   29.5580  -14.0690 C.ar  1391  SJJ1391     0.0025
     12  C3       102.7970   22.9690  -10.0760 C.ar  1391  SJJ1391     0.1387
     13  C9       101.9570   26.6920  -11.9020 C.3   1391  SJJ1391     0.1836
     14  C13      102.5900   27.7600  -12.4980 C.2   1391  SJJ1391     0.1424
     15  C14      104.0260   28.0820  -12.6840 C.2   1391  SJJ1391     0.2811
     16  C1       104.2920   21.2820   -9.5980 C.3   1391  SJJ1391     0.2525
     17  C17      105.7780   29.8150  -12.8560 C.3   1391  SJJ1391     0.1419
     18  N21      108.1340   29.0840  -16.3410 N.ar  1391  SJJ1391    -0.2423
     19  N12      101.6580   28.6970  -12.8650 N.2   1391  SJJ1391    -0.2362
     20  N16      104.3900   29.3370  -13.0880 N.am  1391  SJJ1391    -0.1957
     21  O15      104.8680   27.2400  -12.4010 O.2   1391  SJJ1391    -0.2670
     22  O10      100.6240   26.9710  -11.9080 O.3   1391  SJJ1391    -0.3228
     23  O2       102.9420   21.7240   -9.4640 O.3   1391  SJJ1391    -0.4714
@<TRIPOS>BOND
     1     7    18   ar
     2     7     5   ar
     3    18     8   ar
     4     5    11   ar
     5     8     6   ar
     6    11     6   ar
     7    11    17    1
     8    20    17    1
     9    20    15   am
    10    19    14    2
    11    19     9    1
    12    15    14    1
    13    15    21    2
    14    14    13    1
    15     9    22    1
    16    22    13    1
    17    13    10    1
    18     2    10   ar
    19     2     4   ar
    20    10     1   ar
    21     4    12   ar
    22     1     3   ar
    23    12     3   ar
    24    12    23    1
    25    16    23    1
