@<TRIPOS>MOLECULE
4afk_78N_A_1.pdb
 22 21 0 0 0
SMALL
GASTEIGER

@<TRIPOS>ATOM
      1  O22        7.3470  -22.4070   20.9220 O.3   1511  78N1511    -0.2174
      2  C19        5.9670  -22.4710   21.3230 C.3   1511  78N1511     0.2187
      3  C18        5.6840  -23.6110   22.3100 C.3   1511  78N1511     0.2281
      4  O20        6.6340  -24.6750   22.1680 O.3   1511  78N1511    -0.2163
      5  C17        5.7360  -23.0950   23.7420 C.3   1511  78N1511     0.2438
      6  O16        5.1090  -24.0270   24.6220 O.3   1511  78N1511    -0.4456
      7  C8         4.6730  -23.5490   25.9260 C.2   1511  78N1511     0.3171
      8  O15        4.0000  -22.5250   25.9590 O.2   1511  78N1511    -0.2501
      9  C7         5.0080  -24.2820   27.2110 C.3   1511  78N1511     0.1096
     10  C6         4.2530  -23.5940   28.3500 C.3   1511  78N1511     0.0117
     11  C5         4.3830  -24.3200   29.6840 C.3   1511  78N1511     0.0009
     12  C4         4.2420  -23.3160   30.8170 C.3   1511  78N1511     0.0047
     13  C3         3.8360  -23.9720   32.1240 C.3   1511  78N1511     0.0257
     14  C2         2.3450  -24.2150   32.1500 C.2   1511  78N1511    -0.0307
     15  C1         1.7460  -24.5150   33.2970 C.2   1511  78N1511    -0.0307
     16  C9         2.5630  -24.5520   34.5650 C.3   1511  78N1511     0.0257
     17  C10        3.0640  -25.9570   34.8530 C.3   1511  78N1511     0.0047
     18  C11        4.0960  -25.8930   35.9730 C.3   1511  78N1511     0.0003
     19  C12        4.8900  -27.1900   36.1290 C.3   1511  78N1511     0.0000
     20  C13        4.2050  -28.1540   37.0910 C.3   1511  78N1511     0.0000
     21  C15        6.0260  -29.0100   38.6070 C.3   1511  78N1511     0.0000
     22  C14        5.0980  -29.3290   37.4560 C.3   1511  78N1511     0.0000
@<TRIPOS>BOND
     1     1     2    1
     2     2     3    1
     3     4     3    1
     4     3     5    1
     5     5     6    1
     6     6     7    1
     7     7     8    2
     8     7     9    1
     9     9    10    1
    10    10    11    1
    11    11    12    1
    12    12    13    1
    13    13    14    1
    14    14    15    2
    15    15    16    1
    16    16    17    1
    17    17    18    1
    18    18    19    1
    19    19    20    1
    20    20    22    1
    21    22    21    1
