@<TRIPOS>MOLECULE
4afk_78M_A_1.pdb
 22 21 0 0 0
SMALL
GASTEIGER

@<TRIPOS>ATOM
      1  O21        5.9630  -26.7000   49.9950 O.3   1510  78M1510    -0.2174
      2  C20        4.5340  -26.7050   49.9280 C.3   1510  78M1510     0.2187
      3  C18        4.1320  -26.9120   48.4760 C.3   1510  78M1510     0.2281
      4  O19        2.7270  -27.0790   48.2980 O.3   1510  78M1510    -0.2163
      5  C17        4.8160  -28.1320   47.8780 C.3   1510  78M1510     0.2438
      6  O2         5.2360  -27.6400   46.6100 O.3   1510  78M1510    -0.4456
      7  C1         4.8480  -28.3430   45.4140 C.2   1510  78M1510     0.3171
      8  O1         4.0740  -29.2790   45.5280 O.2   1510  78M1510    -0.2501
      9  C2         5.3950  -27.9040   44.0730 C.3   1510  78M1510     0.1096
     10  C3         5.7210  -26.4240   44.1120 C.3   1510  78M1510     0.0117
     11  C4         6.1510  -25.8850   42.7500 C.3   1510  78M1510     0.0009
     12  C5         6.1550  -24.3590   42.7930 C.3   1510  78M1510     0.0047
     13  C6         6.7470  -23.7480   41.5230 C.3   1510  78M1510     0.0257
     14  C7         5.9690  -24.2000   40.3190 C.2   1510  78M1510    -0.0307
     15  C8         6.5730  -24.7710   39.2670 C.2   1510  78M1510    -0.0307
     16  C9         8.0610  -25.0200   39.2750 C.3   1510  78M1510     0.0257
     17  C10        8.5130  -25.1320   37.8330 C.3   1510  78M1510     0.0047
     18  C11        9.8430  -25.8460   37.7340 C.3   1510  78M1510     0.0003
     19  C12       10.3710  -25.6730   36.3140 C.3   1510  78M1510     0.0000
     20  C13       11.7820  -26.2250   36.1680 C.3   1510  78M1510     0.0000
     21  C15       13.5670  -26.7020   34.4860 C.3   1510  78M1510     0.0000
     22  C14       12.3030  -25.9260   34.7710 C.3   1510  78M1510     0.0000
@<TRIPOS>BOND
     1    21    22    1
     2    22    20    1
     3    20    19    1
     4    19    18    1
     5    18    17    1
     6    17    16    1
     7    15    16    1
     8    15    14    2
     9    14    13    1
    10    13    12    1
    11    11    12    1
    12    11    10    1
    13     9    10    1
    14     9     7    1
    15     7     8    2
    16     7     6    1
    17     6     5    1
    18     5     3    1
    19     4     3    1
    20     3     2    1
    21     2     1    1
