@<TRIPOS>MOLECULE
4afo_C5E_A_1.pdb
 14 16 0 0 0
SMALL
GASTEIGER

@<TRIPOS>ATOM
      1  O         27.7520  -26.5910   83.3060 O.2   301  C5E301     -0.2670
      2  C         28.2490  -26.1080   84.3580 C.ar  301  C5E301      0.2607
      3  N         28.8240  -26.9210   85.3640 N.ar  301  C5E301     -0.2991
      4  C5        29.8810  -27.7720   84.8250 C.3   301  C5E301      0.1101
      5  C6        30.5040  -28.6890   85.9060 C.3   301  C5E301      0.0405
      6  C10       29.5240  -29.6920   86.4960 C.3   301  C5E301      0.0906
      7  N1        28.5900  -29.1180   87.4790 N.3   301  C5E301     -0.2176
      8  C9        29.1230  -28.0300   88.3310 C.3   301  C5E301      0.0945
      9  C8        30.0150  -27.0320   87.6030 C.3   301  C5E301      0.0559
     10  C7        31.1160  -27.8570   87.0170 C.3   301  C5E301      0.0107
     11  C4        29.3500  -26.2620   86.5140 C.ar  301  C5E301      0.0409
     12  C3        29.2490  -24.8960   86.6800 C.ar  301  C5E301      0.0130
     13  C2        28.6450  -24.1430   85.7010 C.ar  301  C5E301      0.0060
     14  C1        28.1480  -24.7490   84.5560 C.ar  301  C5E301      0.0608
@<TRIPOS>BOND
     1     1     2    2
     2     2    14   ar
     3     2     3   ar
     4    14    13   ar
     5     4     3    1
     6     4     5    1
     7     3    11   ar
     8    13    12   ar
     9     5     6    1
    10     5    10    1
    11     6     7    1
    12    11    12   ar
    13    11     9    1
    14    10     9    1
    15     7     8    1
    16     9     8    1
