@<TRIPOS>MOLECULE
4aft_QMR_A_1.pdb
 16 19 0 0 0
SMALL
GASTEIGER

@<TRIPOS>ATOM
      1  C01      -29.4400  -88.9840   28.8380 C.3   301  QMR301      0.0930
      2  N02      -28.2800  -88.2420   29.3830 N.3   301  QMR301     -0.2174
      3  C03      -28.7240  -87.2680   30.4060 C.3   301  QMR301      0.0930
      4  C04      -29.7800  -86.3440   29.8250 C.3   301  QMR301      0.0398
      5  C05      -30.9860  -87.2240   29.5150 C.3   301  QMR301      0.0116
      6  C06      -30.4940  -88.0170   28.3130 C.3   301  QMR301      0.0398
      7  C07      -29.8090  -86.9730   27.5410 C.ar  301  QMR301     -0.0234
      8  C08      -29.5360  -86.8860   26.1890 C.ar  301  QMR301      0.0161
      9  C09      -28.8310  -85.7630   25.7580 C.ar  301  QMR301      0.0986
     10  N10      -28.5350  -85.5920   24.4560 N.ar  301  QMR301     -0.2407
     11  C11      -27.8540  -84.5040   24.0580 C.ar  301  QMR301      0.1195
     12  C12      -27.4350  -83.5240   24.9620 C.ar  301  QMR301      0.1195
     13  N13      -27.7010  -83.6370   26.2690 N.ar  301  QMR301     -0.2407
     14  C14      -28.3800  -84.7110   26.7240 C.ar  301  QMR301      0.0986
     15  C15      -28.6570  -84.8350   28.0770 C.ar  301  QMR301      0.0161
     16  C16      -29.3640  -85.9470   28.4800 C.ar  301  QMR301     -0.0234
@<TRIPOS>BOND
     1    11    10   ar
     2    11    12   ar
     3    10     9   ar
     4    12    13   ar
     5     9     8   ar
     6     9    14   ar
     7     8     7   ar
     8    13    14   ar
     9    14    15   ar
    10     7     6    1
    11     7    16   ar
    12    15    16   ar
    13     6     1    1
    14     6     5    1
    15    16     4    1
    16     1     2    1
    17     2     3    1
    18     5     4    1
    19     4     3    1
