@<TRIPOS>MOLECULE
4afy_NUC_C_1.pdb
 46 51 0 0 0
SMALL
GASTEIGER

@<TRIPOS>ATOM
      1  P         12.3930  -21.7300   16.0600 P.3     1  RG1         0.3942
      2  OP1       13.7640  -21.1680   15.7510 O.3     1  RG1        -0.1425
      3  OP2       11.5820  -21.1190   17.1500 O.3     1  RG1        -0.1425
      4  O5'       11.5050  -21.9580   14.7170 O.3     1  RG1        -0.2926
      5  C5'       10.7560  -23.1810   14.5180 C.3     1  RG1         0.1829
      6  C4'       11.0890  -23.9230   13.2080 C.3     1  RG1         0.1771
      7  O4'       11.6310  -25.2480   13.5150 O.3     1  RG1        -0.3327
      8  C3'        9.9080  -24.2180   12.3090 C.3     1  RG1         0.1857
      9  O3'        9.6510  -23.1520   11.4250 O.3     1  RG1        -0.3112
     10  C2'       10.3050  -25.5220   11.5780 C.3     1  RG1         0.2282
     11  O2'       11.1100  -25.2670   10.4050 O.3     1  RG1        -0.2159
     12  C1'       11.1680  -26.2230   12.5800 C.3     1  RG1         0.2292
     13  N9        10.4620  -27.3180   13.3090 N.pl3   1  RG1        -0.2354
     14  C8        10.7480  -28.6510   13.2540 C.3     1  RG1         0.2246
     15  N7        10.0730  -29.4160   14.0380 N.2     1  RG1        -0.2322
     16  C5         9.2250  -28.5440   14.6810 C.2     1  RG1         0.2182
     17  C6         8.2270  -28.8350   15.6640 C.1     1  RG1         0.2372
     18  O6         7.9170  -29.9500   16.1330 O.2     1  RG1        -0.2069
     19  N1         7.5690  -27.6810   16.1030 N.2     1  RG1        -0.2485
     20  C2         7.8310  -26.3990   15.6460 C.1     1  RG1         0.2531
     21  N2         7.0630  -25.4380   16.2160 N.pl3   1  RG1        -0.0226
     22  N3         8.7650  -26.1100   14.7110 N.2     1  RG1        -0.3074
     23  C4         9.4370  -27.2320   14.2650 C.2     1  RG1         0.2300
     24  P          8.2960  -22.2890   11.5010 P.3     2  RG2         0.2141
     25  OP1        8.0230  -21.9980   12.9460 O.3     2  RG2        -0.4373
     26  OP2        8.5010  -21.1480   10.5690 O.2     2  RG2        -0.5172
     27  O5'        7.1890  -23.3100   10.9180 O.3     2  RG2        -0.3114
     28  C5'        5.8460  -22.8990   10.6150 C.3     2  RG2         0.1813
     29  C4'        5.4250  -23.4040    9.2480 C.3     2  RG2         0.1799
     30  O4'        4.0050  -23.7770    9.2380 O.3     2  RG2        -0.3326
     31  C3'        5.6280  -22.4180    8.0900 C.3     2  RG2         0.2158
     32  O3'        6.4470  -23.0130    7.0960 O.3     2  RG2        -0.2175
     33  C2'        4.2040  -22.1870    7.5280 C.3     2  RG2         0.2310
     34  O2'        4.1370  -22.0200    6.1330 O.3     2  RG2        -0.2158
     35  C1'        3.4540  -23.4360    7.9680 C.3     2  RG2         0.2293
     36  N9         1.9850  -23.2340    8.0800 N.pl3   2  RG2        -0.2354
     37  C8         1.3860  -22.1520    8.6990 C.3     2  RG2         0.2246
     38  N7         0.0780  -22.1600    8.6440 N.2     2  RG2        -0.2322
     39  C5        -0.2480  -23.3060    7.9320 C.2     2  RG2         0.2182
     40  C6        -1.5370  -23.8240    7.5780 C.1     2  RG2         0.2372
     41  O6        -2.6780  -23.3580    7.8240 O.2     2  RG2        -0.2069
     42  N1        -1.4350  -25.0110    6.8430 N.2     2  RG2        -0.2485
     43  C2        -0.2580  -25.6260    6.5120 C.1     2  RG2         0.2531
     44  N2        -0.4200  -26.7530    5.8100 N.pl3   2  RG2        -0.0226
     45  N3         0.9580  -25.1610    6.8420 N.2     2  RG2        -0.3074
     46  C4         0.9120  -23.9880    7.5540 C.2     2  RG2         0.2300
@<TRIPOS>BOND
     1    44    43    1
     2    34    33    1
     3    43    45    2
     4    43    42    2
     5    45    46    2
     6    42    40    2
     7    32    31    1
     8    33    35    1
     9    33    31    1
    10    46    39    1
    11    46    36    1
    12    40    41    2
    13    40    39    1
    14    39    38    2
    15    35    36    1
    16    35    30    1
    17    36    37    1
    18    31    29    1
    19    38    37    1
    20    30    29    1
    21    29    28    1
    22    11    10    1
    23    26    24    2
    24    28    27    1
    25    27    24    1
    26     9    24    1
    27     9     8    1
    28    24    25    1
    29    10     8    1
    30    10    12    1
    31     8     6    1
    32    12    13    1
    33    12     7    1
    34     6     7    1
    35     6     5    1
    36    14    13    1
    37    14    15    1
    38    13    23    1
    39    15    16    2
    40    23    16    1
    41    23    22    2
    42     5     4    1
    43    16    17    1
    44    22    20    2
    45     4     1    1
    46    20    19    2
    47    20    21    1
    48    17    19    2
    49    17    18    2
    50     2     1    1
    51     1     3    1
