@<TRIPOS>MOLECULE
4ag3_NDP_A_1.pdb
 48 52 0 0 0
SMALL
GASTEIGER

@<TRIPOS>ATOM
      1  PA         7.9390    4.0450   -5.3160 P.3   701  NDP701      0.2189
      2  O1A        9.2430    3.4540   -4.9380 O.2   701  NDP701     -0.5170
      3  O2A        6.8430    4.2610   -4.3760 O.3   701  NDP701     -0.4371
      4  O5B        7.3470    3.1560   -6.5710 O.3   701  NDP701     -0.3112
      5  C5B        8.2130    2.8930   -7.7000 C.3   701  NDP701      0.1813
      6  C4B        7.4390    2.0930   -8.8180 C.3   701  NDP701      0.1820
      7  O4B        8.4650    1.7490   -9.7880 O.3   701  NDP701     -0.3136
      8  C3B        6.8690    0.7960   -8.2410 C.3   701  NDP701      0.2157
      9  O3B        5.5620    0.5440   -8.8210 O.3   701  NDP701     -0.2175
     10  C2B        7.9590   -0.2300   -8.6150 C.3   701  NDP701      0.2314
     11  O2B        7.4030   -1.5280   -8.7830 O.3   701  NDP701     -0.2630
     12  C1B        8.4130    0.3270   -9.9810 C.3   701  NDP701      0.3158
     13  N9A        9.7550   -0.1650  -10.3130 N.pl3 701  NDP701     -0.1439
     14  C8A       10.8790   -0.0520   -9.5730 C.3   701  NDP701      0.3377
     15  N7A       11.9020   -0.6570  -10.1950 N.2   701  NDP701     -0.2095
     16  C5A       11.4180   -1.1340  -11.3630 C.2   701  NDP701      0.2526
     17  C6A       11.9830   -1.8270  -12.4360 C.2   701  NDP701      0.4393
     18  N6A       13.2640   -2.1850  -12.4280 N.pl3 701  NDP701      0.2180
     19  N1A       11.1870   -2.1380  -13.4970 N.2   701  NDP701      0.0021
     20  C2A        9.8900   -1.8350  -13.4930 C.3   701  NDP701      0.5254
     21  N3A        9.3000   -1.1800  -12.5000 N.2   701  NDP701     -0.0055
     22  C4A       10.0590   -0.8260  -11.4240 C.2   701  NDP701      0.3518
     23  O3         8.3360    5.4630   -6.1050 O.3   701  NDP701     -0.2703
     24  PN         7.5090    6.7450   -6.3820 P.3   701  NDP701      0.2189
     25  O1N        7.8270    7.6730   -5.2660 O.3   701  NDP701     -0.4371
     26  O2N        6.0770    6.4990   -6.7080 O.2   701  NDP701     -0.5170
     27  O5D        8.3600    7.1690   -7.6840 O.3   701  NDP701     -0.3112
     28  C5D        7.8190    7.1230   -9.0410 C.3   701  NDP701      0.1813
     29  C4D        8.8190    7.8950   -9.9390 C.3   701  NDP701      0.1799
     30  O4D        8.8180    9.2470   -9.4490 O.3   701  NDP701     -0.3327
     31  C3D       10.2490    7.3500   -9.8570 C.3   701  NDP701      0.2158
     32  O3D       10.8880    7.4320  -11.1570 O.3   701  NDP701     -0.2175
     33  C2D       10.8980    8.3370   -8.8820 C.3   701  NDP701      0.2309
     34  O2D       12.2960    8.5020   -9.1310 O.3   701  NDP701     -0.2158
     35  C1D       10.1640    9.6450   -9.2670 C.3   701  NDP701      0.2263
     36  N1N       10.1990   10.6750   -8.1910 N.pl3 701  NDP701     -0.2787
     37  C2N        9.6100   10.4590   -6.9680 C.3   701  NDP701      0.1244
     38  C3N        9.6510   11.4680   -6.0220 C.2   701  NDP701      0.0544
     39  C7N        9.0340   11.3050   -4.6500 C.2   701  NDP701      0.2818
     40  O7N        9.1590   12.3570   -3.8260 O.2   701  NDP701     -0.2670
     41  N7N        8.3660   10.1790   -4.3480 N.am  701  NDP701     -0.0839
     42  C4N       10.3240   12.8220   -6.2880 C.2   701  NDP701      0.0033
     43  C5N       10.8500   12.9270   -7.5830 C.2   701  NDP701      0.0157
     44  C6N       10.8100   11.8890   -8.4870 C.2   701  NDP701      0.0633
     45  P2B        7.0810   -2.4900   -7.5680 P.3   701  NDP701      0.5328
     46  O1X        7.0080   -3.9250   -8.2260 O.2   701  NDP701     -0.2224
     47  O2X        8.4220   -2.4470   -6.6910 O.3   701  NDP701     -0.1145
     48  O3X        5.8810   -2.0940   -6.7980 O.3   701  NDP701     -0.1145
@<TRIPOS>BOND
     1    19    20    1
     2    19    17    2
     3    20    21    1
     4    21    22    2
     5    17    18    1
     6    17    16    1
     7    22    16    1
     8    22    13    1
     9    16    15    2
    10    32    31    1
    11    13    12    1
    12    13    14    1
    13    15    14    1
    14    12     7    1
    15    12    10    1
    16    29    31    1
    17    29    30    1
    18    29    28    1
    19    31    33    1
    20     7     6    1
    21    30    35    1
    22    35    33    1
    23    35    36    1
    24    34    33    1
    25    28    27    1
    26     9     8    1
    27     6     8    1
    28     6     5    1
    29    11    10    1
    30    11    45    1
    31    10     8    1
    32    44    36    1
    33    44    43    2
    34    46    45    2
    35    36    37    1
    36     5     4    1
    37    27    24    1
    38    43    42    1
    39    45    48    1
    40    45    47    1
    41    37    38    1
    42    26    24    2
    43     4     1    1
    44    24    23    1
    45    24    25    1
    46    42    38    2
    47    23     1    1
    48    38    39    1
    49     1     2    2
    50     1     3    1
    51    39    41   am
    52    39    40    2
