@<TRIPOS>MOLECULE
4ag5_ADP_A_1.pdb
 27 29 0 0 0
SMALL
GASTEIGER

@<TRIPOS>ATOM
      1  PB        11.7460   16.9010   64.8300 P.3   1591  ADP1591     0.5373
      2  O1B       12.2890   15.6960   64.0920 O.3   1591  ADP1591    -0.1143
      3  O2B       10.4370   16.5780   65.5270 O.3   1591  ADP1591    -0.1143
      4  O3B       11.7250   18.2160   64.0900 O.2   1591  ADP1591    -0.2221
      5  PA        12.6870   17.1640   67.5490 P.3   1591  ADP1591     0.2231
      6  O1A       11.4680   17.9870   67.8710 O.2   1591  ADP1591    -0.5169
      7  O2A       12.7640   15.7230   68.0200 O.3   1591  ADP1591    -0.4370
      8  O3A       12.8950   17.1730   65.9410 O.3   1591  ADP1591    -0.2261
      9  O5'       14.0100   17.9150   68.0840 O.3   1591  ADP1591    -0.3111
     10  C5'       15.3020   17.3280   67.8620 C.3   1591  ADP1591     0.1813
     11  C4'       16.0640   17.2230   69.1800 C.3   1591  ADP1591     0.1821
     12  O4'       16.5280   18.5110   69.5710 O.3   1591  ADP1591    -0.3135
     13  C3'       15.1810   16.7070   70.3060 C.3   1591  ADP1591     0.2184
     14  O3'       15.9420   15.7610   71.0590 O.3   1591  ADP1591    -0.2174
     15  C2'       14.8570   17.9110   71.1730 C.3   1591  ADP1591     0.2570
     16  O2'       14.9540   17.5800   72.5680 O.3   1591  ADP1591    -0.2130
     17  C1'       15.9040   18.9480   70.7900 C.3   1591  ADP1591     0.3186
     18  N9        15.3150   20.2980   70.5700 N.pl3 1591  ADP1591    -0.1439
     19  C8        14.4630   20.6160   69.5910 C.3   1591  ADP1591     0.3377
     20  N7        14.1150   21.9240   69.6400 N.2   1591  ADP1591    -0.2095
     21  C5        14.7550   22.4720   70.6770 C.2   1591  ADP1591     0.2526
     22  C6        14.8280   23.8210   71.2880 C.2   1591  ADP1591     0.4393
     23  N6        14.1240   24.8630   70.7780 N.pl3 1591  ADP1591     0.2180
     24  N1        15.6260   23.9730   72.3690 N.2   1591  ADP1591     0.0021
     25  C2        16.3250   22.9440   72.8790 C.3   1591  ADP1591     0.5254
     26  N3        16.3030   21.6980   72.3720 N.2   1591  ADP1591    -0.0055
     27  C4        15.5490   21.3980   71.2870 C.2   1591  ADP1591     0.3518
@<TRIPOS>BOND
     1     4     1    2
     2     2     1    1
     3     1     3    1
     4     1     8    1
     5     8     5    1
     6     5     6    2
     7     5     7    1
     8     5     9    1
     9    10     9    1
    10    10    11    1
    11    11    12    1
    12    11    13    1
    13    12    17    1
    14    19    20    1
    15    19    18    1
    16    20    21    2
    17    13    14    1
    18    13    15    1
    19    18    17    1
    20    18    27    1
    21    21    27    1
    22    21    22    1
    23    23    22    1
    24    17    15    1
    25    15    16    1
    26    27    26    2
    27    22    24    2
    28    24    25    1
    29    26    25    1
