@<TRIPOS>MOLECULE
4ag7_COA_A_1.pdb
 48 50 0 0 0
SMALL
GASTEIGER

@<TRIPOS>ATOM
      1  N1A      -36.9630   57.9620    7.5790 N.2   1166  COA1166     0.0021
      2  C2A      -37.3960   59.2050    8.0340 C.3   1166  COA1166     0.5254
      3  N3A      -36.4190   60.0490    8.6160 N.2   1166  COA1166    -0.0055
      4  C4A      -35.1180   59.6700    8.7240 C.2   1166  COA1166     0.3518
      5  C5A      -34.7450   58.4660    8.2710 C.2   1166  COA1166     0.2526
      6  C6A      -35.6630   57.6460    7.7150 C.2   1166  COA1166     0.4393
      7  N6A      -35.2250   56.4720    7.2870 N.pl3 1166  COA1166     0.2180
      8  N7A      -33.4270   58.3460    8.5010 N.2   1166  COA1166    -0.2095
      9  C8A      -32.9920   59.4570    9.0850 C.3   1166  COA1166     0.3377
     10  N9A      -34.0320   60.2810    9.2370 N.pl3 1166  COA1166    -0.1439
     11  C1B      -33.9110   61.6560    9.8590 C.3   1166  COA1166     0.3185
     12  C2B      -34.7650   61.9130   11.1060 C.3   1166  COA1166     0.2543
     13  O2B      -35.1560   63.3530   11.1990 O.3   1166  COA1166    -0.2131
     14  C3B      -33.7170   61.5500   12.1420 C.3   1166  COA1166     0.1928
     15  O3B      -34.0730   61.8900   13.4930 O.3   1166  COA1166    -0.2673
     16  P3B      -34.8770   60.6900   14.2520 P.3   1166  COA1166     0.5327
     17  O7A      -34.7460   61.0310   15.8380 O.3   1166  COA1166    -0.1145
     18  O8A      -34.1000   59.2440   14.0400 O.3   1166  COA1166    -0.1145
     19  O9A      -36.2630   60.5980   13.7200 O.2   1166  COA1166    -0.2224
     20  C4B      -32.5290   62.2880   11.6430 C.3   1166  COA1166     0.1795
     21  O4B      -32.5440   61.7320   10.3200 O.3   1166  COA1166    -0.3136
     22  C5B      -31.2290   61.8330   12.3550 C.3   1166  COA1166     0.1812
     23  O5B      -30.8500   60.4940   11.9370 O.3   1166  COA1166    -0.3112
     24  P1A      -29.5210   59.8760   12.4140 P.3   1166  COA1166     0.2189
     25  O1A      -29.7410   58.7630   13.4070 O.3   1166  COA1166    -0.4371
     26  O2A      -28.5500   60.9240   12.7920 O.2   1166  COA1166    -0.5170
     27  O3A      -29.2080   59.3030   10.9010 O.3   1166  COA1166    -0.2703
     28  P2A      -28.5280   57.9230   10.6320 P.3   1166  COA1166     0.2188
     29  O4A      -29.6440   56.9730   10.5220 O.2   1166  COA1166    -0.5170
     30  O5A      -27.4440   57.5780   11.5070 O.3   1166  COA1166    -0.4371
     31  O6A      -27.8990   58.1710    9.1280 O.3   1166  COA1166    -0.3138
     32  CBP      -28.1970   58.1930    6.7190 C.3   1166  COA1166     0.0645
     33  CCP      -28.7640   58.6560    8.0680 C.3   1166  COA1166     0.1519
     34  CDP      -28.9730   58.9600    5.6300 C.3   1166  COA1166     0.0056
     35  CEP      -26.6740   58.5470    6.6560 C.3   1166  COA1166     0.0056
     36  CAP      -28.3510   56.6860    6.6210 C.3   1166  COA1166     0.2312
     37  OAP      -29.7480   56.3460    6.4370 O.3   1166  COA1166    -0.2131
     38  C9P      -27.6240   56.0780    5.4340 C.2   1166  COA1166     0.2719
     39  O9P      -26.4690   55.6250    5.5220 O.2   1166  COA1166    -0.2706
     40  N8P      -28.3670   55.8980    4.3260 N.am  1166  COA1166    -0.2028
     41  C7P      -27.7260   55.2320    3.1590 C.3   1166  COA1166     0.1248
     42  C6P      -26.7570   56.1660    2.3280 C.3   1166  COA1166     0.1102
     43  C5P      -27.2600   57.6410    2.2240 C.2   1166  COA1166     0.2432
     44  O5P      -28.4610   57.9310    1.9670 O.2   1166  COA1166    -0.2733
     45  N4P      -26.3630   58.6210    2.5110 N.am  1166  COA1166    -0.2044
     46  C3P      -26.7740   60.0540    2.5560 C.3   1166  COA1166     0.1276
     47  C2P      -26.1570   60.8710    1.4510 C.3   1166  COA1166     0.0920
     48  S1P      -26.8840   60.3520   -0.1830 S.3   1166  COA1166    -0.0802
@<TRIPOS>BOND
     1    48    47    1
     2    47    46    1
     3    44    43    2
     4    43    42    1
     5    43    45   am
     6    42    41    1
     7    45    46    1
     8    41    40    1
     9    40    38   am
    10    38    39    2
    11    38    36    1
    12    34    32    1
    13    37    36    1
    14    36    32    1
    15    35    32    1
    16    32    33    1
    17     7     6    1
    18     1     6    2
    19     1     2    1
    20     6     5    1
    21     2     3    1
    22    33    31    1
    23     5     8    2
    24     5     4    1
    25     8     9    1
    26     3     4    2
    27     4    10    1
    28     9    10    1
    29    31    28    1
    30    10    11    1
    31    11    21    1
    32    11    12    1
    33    21    20    1
    34    29    28    2
    35    28    27    1
    36    28    30    1
    37    27    24    1
    38    12    13    1
    39    12    14    1
    40    20    14    1
    41    20    22    1
    42    23    22    1
    43    23    24    1
    44    14    15    1
    45    24    26    2
    46    24    25    1
    47    15    16    1
    48    19    16    2
    49    18    16    1
    50    16    17    1
