@<TRIPOS>MOLECULE
4ag8_AXI_A_1.pdb
 28 31 0 0 0
SMALL
GASTEIGER

@<TRIPOS>ATOM
      1  O81       24.8310   23.4700   35.7940 O.2   2000  AXI2000    -0.2684
      2  C80       25.4990   22.8060   36.6100 C.2   2000  AXI2000     0.2653
      3  N82       26.4150   21.9160   36.1840 N.am  2000  AXI2000    -0.1998
      4  C88       26.7820   21.7270   34.7830 C.3   2000  AXI2000     0.1388
      5  C23       25.2920   23.0320   38.0660 C.ar  2000  AXI2000     0.0610
      6  C22       26.4560   22.9970   38.8890 C.ar  2000  AXI2000     0.0051
      7  C21       26.4090   23.2000   40.2910 C.ar  2000  AXI2000     0.0002
      8  C20       25.1560   23.4620   40.8850 C.ar  2000  AXI2000     0.0005
      9  C18       24.0180   23.2980   38.6740 C.ar  2000  AXI2000     0.0336
     10  C19       23.9820   23.4920   40.0940 C.ar  2000  AXI2000     0.0066
     11  S24       22.5100   23.3470   37.7880 S.3   2000  AXI2000    -0.0907
     12  C07       21.4890   24.5480   38.5260 C.2   2000  AXI2000     0.0132
     13  C08       20.1230   24.2590   38.7960 C.3   2000  AXI2000     0.0590
     14  C09       19.2570   25.2390   39.3920 C.2   2000  AXI2000    -0.0178
     15  C12       22.0200   25.8320   38.8650 C.2   2000  AXI2000     0.0234
     16  C11       21.1780   26.7750   39.4500 C.2   2000  AXI2000     0.1042
     17  N15       21.4300   28.0760   39.8550 N.2   2000  AXI2000    -0.1480
     18  N14       20.3390   28.5970   40.3060 N.2   2000  AXI2000    -0.1480
     19  C13       19.3710   27.7550   40.2740 C.2   2000  AXI2000     0.1041
     20  C10       19.8440   26.5040   39.7110 C.2   2000  AXI2000     0.0349
     21  C16       18.0180   28.1340   40.7130 C.2   2000  AXI2000     0.0225
     22  C17       16.8850   27.3250   40.8080 C.2   2000  AXI2000     0.0207
     23  C02       15.5470   27.8250   41.2730 C.ar  2000  AXI2000     0.0814
     24  N03       14.5760   26.8900   41.3370 N.ar  2000  AXI2000    -0.2438
     25  C04       13.3190   27.2230   41.7450 C.ar  2000  AXI2000     0.0988
     26  C05       13.0020   28.5450   42.1030 C.ar  2000  AXI2000     0.0207
     27  C06       14.0040   29.5300   42.0410 C.ar  2000  AXI2000     0.0031
     28  C01       15.3120   29.1790   41.6160 C.ar  2000  AXI2000     0.0191
@<TRIPOS>BOND
     1     4     3    1
     2     1     2    2
     3     3     2   am
     4     2     5    1
     5    11    12    1
     6    11     9    1
     7     5     9   ar
     8     5     6   ar
     9    12    13    1
    10    12    15    2
    11     9    10   ar
    12    13    14    1
    13    15    16    1
    14     6     7   ar
    15    14    20    2
    16    16    20    1
    17    16    17    2
    18    20    19    1
    19    17    18    1
    20    10     8   ar
    21    19    18    2
    22    19    21    1
    23     7     8   ar
    24    21    22    2
    25    22    23    1
    26    23    24   ar
    27    23    28   ar
    28    24    25   ar
    29    28    27   ar
    30    25    26   ar
    31    27    26   ar
