@<TRIPOS>MOLECULE
4ag9_COA_A_1.pdb
 48 50 0 0 0
SMALL
GASTEIGER

@<TRIPOS>ATOM
      1  N1A       38.6120   26.8910   40.1650 N.2   1166  COA1166     0.0021
      2  C2A       39.6360   27.7100   40.6810 C.3   1166  COA1166     0.5254
      3  N3A       40.9660   27.3790   40.4460 N.2   1166  COA1166    -0.0055
      4  C4A       41.2220   26.2680   39.7280 C.2   1166  COA1166     0.3518
      5  C5A       40.2280   25.4900   39.2340 C.2   1166  COA1166     0.2526
      6  C6A       38.9520   25.7960   39.4600 C.2   1166  COA1166     0.4393
      7  N6A       38.0390   24.9830   38.9440 N.pl3 1166  COA1166     0.2180
      8  N7A       40.7700   24.4640   38.5680 N.2   1166  COA1166    -0.2095
      9  C8A       42.0950   24.6160   38.6330 C.3   1166  COA1166     0.3377
     10  N9A       42.3650   25.7230   39.3640 N.pl3 1166  COA1166    -0.1439
     11  C1B       43.6770   26.2320   39.6080 C.3   1166  COA1166     0.3185
     12  C2B       44.6920   25.2290   40.1380 C.3   1166  COA1166     0.2543
     13  O2B       44.9720   25.5340   41.5570 O.3   1166  COA1166    -0.2131
     14  C3B       45.9160   25.5390   39.2680 C.3   1166  COA1166     0.1928
     15  O3B       46.6470   26.6360   39.8050 O.3   1166  COA1166    -0.2673
     16  P3B       48.0000   26.4570   40.6180 P.3   1166  COA1166     0.5327
     17  O7A       47.5500   25.6120   41.9540 O.3   1166  COA1166    -0.1145
     18  O8A       48.2400   27.9800   41.0890 O.3   1166  COA1166    -0.1145
     19  O9A       49.0110   25.8290   39.7340 O.2   1166  COA1166    -0.2224
     20  C4B       45.3620   26.1650   37.9870 C.3   1166  COA1166     0.1795
     21  O4B       43.9880   26.3710   38.2030 O.3   1166  COA1166    -0.3136
     22  C5B       45.5560   25.2290   36.8210 C.3   1166  COA1166     0.1812
     23  O5B       44.7270   24.0920   37.0310 O.3   1166  COA1166    -0.3112
     24  P1A       45.1410   22.9370   36.0420 P.3   1166  COA1166     0.2189
     25  O1A       45.4000   21.6610   36.7570 O.3   1166  COA1166    -0.4371
     26  O2A       46.1580   23.5270   35.1750 O.2   1166  COA1166    -0.5170
     27  O3A       43.8690   22.7710   35.1940 O.3   1166  COA1166    -0.2703
     28  P2A       43.7360   21.6980   34.0340 P.3   1166  COA1166     0.2188
     29  O4A       43.2060   20.4490   34.6980 O.3   1166  COA1166    -0.4371
     30  O5A       44.8690   21.5770   33.1010 O.2   1166  COA1166    -0.5170
     31  O6A       42.4760   22.4340   33.2300 O.3   1166  COA1166    -0.3138
     32  CBP       40.1530   22.6790   33.0340 C.3   1166  COA1166     0.0645
     33  CCP       41.3730   23.0440   33.8800 C.3   1166  COA1166     0.1519
     34  CDP       38.8310   23.1240   33.6970 C.3   1166  COA1166     0.0056
     35  CEP       40.2350   23.4210   31.7070 C.3   1166  COA1166     0.0056
     36  CAP       40.2230   21.1220   32.8340 C.3   1166  COA1166     0.2312
     37  OAP       40.5900   20.4800   34.0620 O.3   1166  COA1166    -0.2131
     38  C9P       38.9010   20.4790   32.5200 C.2   1166  COA1166     0.2719
     39  O9P       38.4720   19.5790   33.2550 O.2   1166  COA1166    -0.2706
     40  N8P       38.2770   20.8690   31.4290 N.am  1166  COA1166    -0.2028
     41  C7P       36.9380   20.2590   31.1600 C.3   1166  COA1166     0.1248
     42  C6P       35.7610   20.9430   31.9370 C.3   1166  COA1166     0.1102
     43  C5P       35.6720   20.5560   33.4180 C.2   1166  COA1166     0.2432
     44  O5P       35.8420   19.4010   33.8020 O.2   1166  COA1166    -0.2733
     45  N4P       35.3840   21.5660   34.2370 N.am  1166  COA1166    -0.2044
     46  C3P       35.2640   21.3650   35.6770 C.3   1166  COA1166     0.1276
     47  C2P       33.7880   21.3790   36.0240 C.3   1166  COA1166     0.0920
     48  S1P       33.4440   22.6730   37.2640 S.3   1166  COA1166    -0.0802
@<TRIPOS>BOND
     1    41    40    1
     2    41    42    1
     3    40    38   am
     4    35    32    1
     5    42    43    1
     6    38    36    1
     7    38    39    2
     8    36    32    1
     9    36    37    1
    10    32    34    1
    11    32    33    1
    12    30    28    2
    13    31    33    1
    14    31    28    1
    15    43    44    2
    16    43    45   am
    17    28    29    1
    18    28    27    1
    19    45    46    1
    20    26    24    2
    21    27    24    1
    22    46    47    1
    23    47    48    1
    24    24    25    1
    25    24    23    1
    26    22    23    1
    27    22    20    1
    28    20    21    1
    29    20    14    1
    30    21    11    1
    31     8     9    1
    32     8     5    2
    33     9    10    1
    34     7     6    1
    35     5     6    1
    36     5     4    1
    37    14    15    1
    38    14    12    1
    39    10    11    1
    40    10     4    1
    41     6     1    2
    42    11    12    1
    43     4     3    2
    44    19    16    2
    45    15    16    1
    46    12    13    1
    47     1     2    1
    48     3     2    1
    49    16    18    1
    50    16    17    1
