@<TRIPOS>MOLECULE
4ag9_16G_A_1.pdb
 19 19 0 0 0
SMALL
GASTEIGER

@<TRIPOS>ATOM
      1  C1        31.6310   25.4440   26.4310 C.3   1168  16G1168     0.2917
      2  C2        32.8700   25.9450   25.6720 C.3   1168  16G1168     0.1871
      3  C3        32.4920   26.2590   24.1910 C.3   1168  16G1168     0.2095
      4  C4        32.0570   24.9490   23.4890 C.3   1168  16G1168     0.2135
      5  C5        30.8480   24.3450   24.2740 C.3   1168  16G1168     0.1807
      6  C6        30.5040   22.9760   23.7200 C.3   1168  16G1168     0.1859
      7  C7        34.8970   27.0780   26.5920 C.2   1168  16G1168     0.2421
      8  C8        35.4620   28.3390   27.2050 C.3   1168  16G1168     0.0964
      9  N2        33.5610   27.0880   26.3680 N.am  1168  16G1168    -0.1991
     10  O1        30.6240   26.5100   26.6000 O.3   1168  16G1168    -0.1879
     11  O3        33.6130   26.8420   23.5170 O.3   1168  16G1168    -0.2183
     12  O4        31.7000   25.1660   22.1620 O.3   1168  16G1168    -0.2176
     13  O5        31.1670   24.2540   25.6890 O.3   1168  16G1168    -0.3243
     14  O6        29.2520   22.5950   24.3620 O.3   1168  16G1168    -0.2675
     15  O7        35.6590   26.1210   26.3910 O.2   1168  16G1168    -0.2733
     16  P         27.9490   22.4660   23.4300 P.3   1168  16G1168     0.5327
     17  O1P       26.7540   22.1460   24.3260 O.3   1168  16G1168    -0.1145
     18  O2P       28.1880   21.1970   22.5510 O.2   1168  16G1168    -0.2224
     19  O3P       27.5100   23.6790   22.6960 O.3   1168  16G1168    -0.1145
@<TRIPOS>BOND
     1    12     4    1
     2    18    16    2
     3    19    16    1
     4    16    17    1
     5    16    14    1
     6     4     3    1
     7     4     5    1
     8    11     3    1
     9     6     5    1
    10     6    14    1
    11     3     2    1
    12     5    13    1
    13     2     9    1
    14     2     1    1
    15    13     1    1
    16     9     7   am
    17    15     7    2
    18     1    10    1
    19     7     8    1
