@<TRIPOS>MOLECULE
4agc_AXI_A_1.pdb
 28 31 0 0 0
SMALL
GASTEIGER

@<TRIPOS>ATOM
      1  O81      -26.0500   -1.5400   -9.1290 O.2   2000  AXI2000    -0.2684
      2  C80      -26.8130   -2.1120   -9.9250 C.2   2000  AXI2000     0.2653
      3  N82      -27.7940   -2.9030   -9.4730 N.am  2000  AXI2000    -0.1998
      4  C88      -28.0620   -3.1670   -8.0660 C.3   2000  AXI2000     0.1388
      5  C23      -26.6610   -1.9210  -11.4070 C.ar  2000  AXI2000     0.0610
      6  C22      -27.8430   -2.0160  -12.2280 C.ar  2000  AXI2000     0.0051
      7  C21      -27.7850   -1.8450  -13.6350 C.ar  2000  AXI2000     0.0002
      8  C20      -26.5390   -1.5730  -14.2630 C.ar  2000  AXI2000     0.0005
      9  C18      -25.3980   -1.6480  -12.0440 C.ar  2000  AXI2000     0.0336
     10  C19      -25.3620   -1.4780  -13.4740 C.ar  2000  AXI2000     0.0066
     11  S24      -23.9020   -1.5160  -11.1330 S.3   2000  AXI2000    -0.0907
     12  C07      -22.9590   -0.2700  -11.9050 C.2   2000  AXI2000     0.0132
     13  C08      -21.5910   -0.5420  -12.2670 C.3   2000  AXI2000     0.0590
     14  C09      -20.7750    0.4570  -12.8950 C.2   2000  AXI2000    -0.0178
     15  C12      -23.5120    1.0330  -12.1840 C.2   2000  AXI2000     0.0234
     16  C11      -22.6840    2.0040  -12.8080 C.2   2000  AXI2000     0.1042
     17  N15      -22.9180    3.3130  -13.1930 N.2   2000  AXI2000    -0.1480
     18  N14      -21.8720    3.8470  -13.7310 N.2   2000  AXI2000    -0.1480
     19  C13      -20.8950    3.0070  -13.7590 C.2   2000  AXI2000     0.1041
     20  C10      -21.3640    1.7410  -13.1560 C.2   2000  AXI2000     0.0349
     21  C16      -19.5650    3.3590  -14.3260 C.2   2000  AXI2000     0.0225
     22  C17      -18.3340    2.7660  -13.9990 C.2   2000  AXI2000     0.0207
     23  C02      -17.0050    3.1500  -14.5720 C.ar  2000  AXI2000     0.0814
     24  N03      -16.0980    2.1400  -14.7540 N.ar  2000  AXI2000    -0.2438
     25  C04      -14.8630    2.4370  -15.2680 C.ar  2000  AXI2000     0.0988
     26  C05      -14.4730    3.7600  -15.6240 C.ar  2000  AXI2000     0.0207
     27  C06      -15.4110    4.8170  -15.4370 C.ar  2000  AXI2000     0.0031
     28  C01      -16.6980    4.5180  -14.9050 C.ar  2000  AXI2000     0.0191
@<TRIPOS>BOND
     1    26    27   ar
     2    26    25   ar
     3    27    28   ar
     4    25    24   ar
     5    28    23   ar
     6    24    23   ar
     7    23    22    1
     8    21    22    2
     9    21    19    1
    10     8     7   ar
    11     8    10   ar
    12    19    18    2
    13    19    20    1
    14    18    17    1
    15     7     6   ar
    16    10     9   ar
    17    17    16    2
    18    20    14    2
    19    20    16    1
    20    14    13    1
    21    16    15    1
    22    13    12    1
    23     6     5   ar
    24    15    12    2
    25     9     5   ar
    26     9    11    1
    27    12    11    1
    28     5     2    1
    29     2     3   am
    30     2     1    2
    31     3     4    1
