@<TRIPOS>MOLECULE
4agd_B49_A_1.pdb
 29 31 0 0 0
SMALL
GASTEIGER

@<TRIPOS>ATOM
      1  C4        50.6820    0.3670  -16.1610 C.3   2000  B492000     0.0665
      2  C5        42.9760   -4.0970  -12.0930 C.ar  2000  B492000     0.0323
      3  C6        43.1080   -2.8170  -12.6960 C.ar  2000  B492000     0.0353
      4  C7        45.2970   -4.6700  -12.5600 C.ar  2000  B492000     0.0326
      5  C13       50.4040   -3.1660  -14.7440 C.2   2000  B492000     0.0105
      6  C15       44.0560   -5.0260  -12.0210 C.ar  2000  B492000     0.1403
      7  C17       45.4340   -3.3660  -13.1770 C.ar  2000  B492000     0.0411
      8  C20       46.6220   -2.6830  -13.8380 C.2   2000  B492000     0.0820
      9  C21       46.0000   -1.3910  -14.2210 C.1   2000  B492000     0.2010
     10  C22       52.7490   -2.2040  -15.7730 C.2   2000  B492000     0.2667
     11  C3        50.6720   -4.6410  -14.2650 C.3   2000  B492000     0.0336
     12  C12       47.9450   -3.1720  -14.0210 C.3   2000  B492000     0.0978
     13  C14       50.4360   -1.0270  -15.5620 C.2   2000  B492000     0.1131
     14  C16       44.3520   -2.4790  -13.2330 C.ar  2000  B492000     0.1449
     15  C18       49.1440   -2.5460  -14.6150 C.2   2000  B492000     0.1100
     16  C19       51.2780   -2.1530  -15.3750 C.2   2000  B492000     0.0786
     17  N23       49.2210   -1.3050  -15.1090 N.2   2000  B492000    -0.4104
     18  N24       44.6980   -1.3280  -13.8490 N.2   2000  B492000    -0.3331
     19  N25       53.3480   -1.1340  -16.3410 N.am  2000  B492000    -0.2001
     20  O27       46.5690   -0.5000  -14.7920 O.2   2000  B492000    -0.2096
     21  O28       53.4890   -3.1810  -15.6130 O.2   2000  B492000    -0.2683
     22  F29       43.8400   -6.2100  -11.4410 F     2000  B492000    -0.2042
     23  C37       54.7670   -1.1510  -16.7250 C.3   2000  B492000     0.1327
     24  C38       55.7440   -0.0290  -16.2620 C.3   2000  B492000     0.0958
     25  N4        57.0620   -0.2560  -16.9650 N.3   2000  B492000    -0.2712
     26  C39       58.1790   -0.1130  -15.9310 C.3   2000  B492000     0.0722
     27  C40       57.2000    0.6510  -18.2320 C.3   2000  B492000     0.0722
     28  C41       57.1470    0.0830  -19.6840 C.3   2000  B492000     0.0188
     29  C42       59.6930   -0.4920  -16.2000 C.3   2000  B492000     0.0188
@<TRIPOS>BOND
     1    28    27    1
     2    27    25    1
     3    25    24    1
     4    25    26    1
     5    23    19    1
     6    23    24    1
     7    19    10   am
     8    29    26    1
     9     1    13    1
    10    10    21    2
    11    10    16    1
    12    13    16    1
    13    13    17    2
    14    16     5    2
    15    17    15    2
    16    20     9    2
    17     5    15    1
    18     5    11    1
    19    15    12    1
    20     9    18    2
    21     9     8    1
    22    12     8    1
    23    18    14    2
    24     8     7    2
    25    14     7   ar
    26    14     3   ar
    27     7     4   ar
    28     3     2   ar
    29     4     6   ar
    30     2     6   ar
    31     6    22    1
