@<TRIPOS>MOLECULE
4agi_SFU_A_1.pdb
 12 12 0 0 0
SMALL
GASTEIGER

@<TRIPOS>ATOM
      1  C1        64.4560    3.8820   94.6210 C.3   910  SFU910      0.0000
      2  C2        63.9550    5.2600   94.2020 C.3   910  SFU910      0.0000
      3  C3        62.6290    5.1400   93.4470 C.3   910  SFU910      0.0000
      4  C4        61.5850    4.3190   94.1890 C.3   910  SFU910      0.0000
      5  C5        62.2020    2.9370   94.4870 C.3   910  SFU910      0.0000
      6  C6        61.2870    2.0680   95.3280 C.3   910  SFU910      0.0000
      7  O2        64.9630    5.9490   93.4090 O.3   910  SFU910      0.0000
      8  O3        62.1280    6.4630   93.1530 O.3   910  SFU910      0.0000
      9  O4        61.2440    5.0160   95.4000 O.3   910  SFU910      0.0000
     10  O5        63.4140    3.1240   95.2070 O.3   910  SFU910      0.0000
     11  CM        65.4990    1.2320   93.8640 C.3   910  SFU910      0.0000
     12 SE         65.1260    2.9400   92.9710 Se    910  SFU910      0.0000
@<TRIPOS>BOND
     1    12    11    1
     2    12     1    1
     3     8     3    1
     4     7     2    1
     5     3     4    1
     6     3     2    1
     7     4     5    1
     8     4     9    1
     9     2     1    1
    10     5    10    1
    11     5     6    1
    12     1    10    1
