@<TRIPOS>MOLECULE
4agl_P84_A_1.pdb
 13 13 0 0 0
SMALL
GASTEIGER

@<TRIPOS>ATOM
      1  C1        91.1500   95.7340  -44.9530 C.ar  400  P84400      0.0337
      2  C2        91.5110   95.5430  -43.6140 C.ar  400  P84400      0.1983
      3  C3        91.8830   94.2830  -43.1520 C.ar  400  P84400      0.0691
      4  C4        90.7150   97.0950  -45.4760 C.3   400  P84400      0.1024
      5  N5        91.3970   98.2310  -44.8270 N.3   400  P84400     -0.2664
      6  C6        91.8960   93.1760  -44.0130 C.ar  400  P84400      0.0147
      7  C8        91.1670   94.6180  -45.8160 C.ar  400  P84400      0.0061
      8  C9        92.7910   98.4320  -45.2710 C.3   400  P84400      0.0899
      9  C10       91.5360   93.3480  -45.3510 C.ar  400  P84400      0.0304
     10  I15       92.3850   94.0740  -41.1170 I     400  P84400     -0.0392
     11  O16       91.5240   96.6270  -42.7800 O.3   400  P84400     -0.2864
     12  I17       91.5360   91.7340  -46.6820 I     400  P84400     -0.0425
     13  C14       90.6140   99.4730  -44.9250 C.3   400  P84400      0.0899
@<TRIPOS>BOND
     1    12     9    1
     2     7     9   ar
     3     7     1   ar
     4     4     1    1
     5     4     5    1
     6     9     6   ar
     7     8     5    1
     8     1     2   ar
     9    13     5    1
    10     6     3   ar
    11     2     3   ar
    12     2    11    1
    13     3    10    1
