@<TRIPOS>MOLECULE
4agm_P86_A_1.pdb
 21 22 0 0 0
SMALL
GASTEIGER

@<TRIPOS>ATOM
      1  C01       91.0680   93.5550  -45.0980 C.ar  400  P86400      0.0304
      2  C1        90.4990   95.8990  -44.7880 C.ar  400  P86400      0.0337
      3  N1        90.4980   98.3810  -44.6910 N.3   400  P86400     -0.2688
      4  O1        90.8570   96.9650  -42.6590 O.3   400  P86400     -0.2864
      5  C02       91.4810   93.4570  -43.7630 C.ar  400  P86400      0.0147
      6  C2        89.9050   97.1660  -45.3350 C.3   400  P86400      0.1024
      7  N2        92.0320  102.4380  -44.4730 N.3   400  P86400     -0.2739
      8  C03       89.5430   99.5450  -44.7170 C.3   400  P86400      0.0738
      9  C3        90.5790   94.7670  -45.6090 C.ar  400  P86400      0.0061
     10  C4        91.3960   94.6040  -42.9570 C.ar  400  P86400      0.0691
     11  C7        90.9090   95.8370  -43.4300 C.ar  400  P86400      0.1983
     12  C8        90.1750  100.7310  -44.0050 C.3   400  P86400      0.0333
     13  C10       91.4300  101.0810  -44.8020 C.3   400  P86400      0.0603
     14  C11       92.9470  102.9030  -45.5930 C.3   400  P86400      0.0721
     15  C12       92.9390  104.4100  -45.7850 C.3   400  P86400      0.0188
     16  C13       92.7530  102.4490  -43.1430 C.3   400  P86400      0.0721
     17  C14       92.6400  103.7790  -42.4090 C.3   400  P86400      0.0188
     18  C15       92.4510   99.9400  -44.6950 C.3   400  P86400      0.0333
     19  C16       91.8210   98.7070  -45.3220 C.3   400  P86400      0.0738
     20  I1        91.1810   91.8880  -46.3980 I     400  P86400     -0.0425
     21  I2        91.9860   94.4580  -40.9270 I     400  P86400     -0.0392
@<TRIPOS>BOND
     1    20     1    1
     2    15    14    1
     3     9     1   ar
     4     9     2   ar
     5    14     7    1
     6     6     2    1
     7     6     3    1
     8    19    18    1
     9    19     3    1
    10     1     5   ar
    11    13    18    1
    12    13     7    1
    13    13    12    1
    14     2    11   ar
    15     8     3    1
    16     8    12    1
    17     7    16    1
    18     5    10   ar
    19    11    10   ar
    20    11     4    1
    21    16    17    1
    22    10    21    1
