@<TRIPOS>MOLECULE
4agn_NXG_A_1.pdb
 24 25 0 0 0
SMALL
GASTEIGER

@<TRIPOS>ATOM
      1  C01       91.4340   93.5340  -45.2570 C.ar  1294  NXG1294     0.0421
      2  C1        90.7660   95.8310  -44.8540 C.ar  1294  NXG1294     0.0338
      3  N1        90.7020   98.2900  -44.6610 N.3   1294  NXG1294    -0.2688
      4  O1        90.9900   96.8240  -42.6710 O.3   1294  NXG1294    -0.2864
      5  C02       91.8080   93.4050  -43.9090 C.ar  1294  NXG1294     0.0172
      6  C2        90.1700   97.1080  -45.3810 C.3   1294  NXG1294     0.1024
      7  N2        92.0850  102.4030  -44.3390 N.3   1294  NXG1294    -0.2739
      8  C03       89.7100   99.4240  -44.7190 C.3   1294  NXG1294     0.0738
      9  C3        90.9080   94.7520  -45.7280 C.ar  1294  NXG1294     0.0085
     10  C4        91.6500   94.5140  -43.0550 C.ar  1294  NXG1294     0.0693
     11  C7        91.1290   95.7400  -43.4870 C.ar  1294  NXG1294     0.1983
     12  C8        90.2630  100.6250  -43.9720 C.3   1294  NXG1294     0.0333
     13  C10       91.5230  101.0190  -44.7370 C.3   1294  NXG1294     0.0603
     14  C11       93.1810  102.4220  -43.2800 C.3   1294  NXG1294     0.0721
     15  C12       94.1450  103.5810  -43.4820 C.3   1294  NXG1294     0.0188
     16  C13       90.9370  103.3670  -43.9740 C.3   1294  NXG1294     0.0721
     17  C14       90.9680  103.6760  -42.4870 C.3   1294  NXG1294     0.0188
     18  C15       92.5920   99.9270  -44.5600 C.3   1294  NXG1294     0.0333
     19  C16       92.0450   98.6620  -45.2120 C.3   1294  NXG1294     0.0738
     20  C17       91.5740   92.4640  -46.1940 C.1   1294  NXG1294    -0.0618
     21  C18       91.7020   91.5680  -46.9810 C.1   1294  NXG1294    -0.0506
     22  C19       91.8600   90.4730  -47.9390 C.3   1294  NXG1294     0.2578
     23  O2        91.9170   90.9840  -49.2660 O.3   1294  NXG1294    -0.2049
     24  I2        92.1750   94.3250  -41.0000 I     1294  NXG1294    -0.0392
@<TRIPOS>BOND
     1    23    22    1
     2    22    21    1
     3    21    20    3
     4    20     1    1
     5     9     1   ar
     6     9     2   ar
     7     6     2    1
     8     6     3    1
     9     1     5   ar
    10    19     3    1
    11    19    18    1
    12     2    11   ar
    13    13    18    1
    14    13     7    1
    15    13    12    1
    16     8     3    1
    17     8    12    1
    18     7    16    1
    19     7    14    1
    20    16    17    1
    21     5    10   ar
    22    11    10   ar
    23    11     4    1
    24    15    14    1
    25    10    24    1
