@<TRIPOS>MOLECULE
4ago_P74_A_1.pdb
 31 32 0 0 0
SMALL
GASTEIGER

@<TRIPOS>ATOM
      1  C01       91.3920   93.3530  -45.3400 C.ar  1292  P741292     0.0420
      2  C04       91.5040   92.3070  -46.3020 C.1   1292  P741292    -0.0626
      3  C05       91.6520   91.4460  -47.1170 C.1   1292  P741292    -0.0623
      4  C06       91.8410   90.3840  -48.1100 C.3   1292  P741292     0.1941
      5  N         91.6040   90.9580  -49.4160 N.am  1292  P741292    -0.1543
      6  C1        90.7290   95.6540  -44.9800 C.ar  1292  P741292     0.0338
      7  N1        90.6220   98.1370  -44.7970 N.3   1292  P741292    -0.2688
      8  O1        90.9480   96.6360  -42.8080 O.3   1292  P741292    -0.2864
      9  C02       91.7760   93.2220  -44.0020 C.ar  1292  P741292     0.0172
     10  C2        90.1570   96.9320  -45.5280 C.3   1292  P741292     0.1024
     11  N2        91.8380  102.1460  -43.8410 N.3   1292  P741292    -0.2739
     12  C03       89.6020   99.2340  -44.8940 C.3   1292  P741292     0.0738
     13  C3        90.8820   94.5670  -45.8350 C.ar  1292  P741292     0.0085
     14  C4        91.6110   94.3260  -43.1650 C.ar  1292  P741292     0.0693
     15  C7        91.0980   95.5530  -43.6160 C.ar  1292  P741292     0.1983
     16  C8        90.0730  100.3930  -44.0350 C.3   1292  P741292     0.0333
     17  C10       91.3910  100.8890  -44.6110 C.3   1292  P741292     0.0603
     18  C11       93.2610  102.0780  -43.2710 C.3   1292  P741292     0.0721
     19  C12       93.9640  103.3960  -43.5390 C.3   1292  P741292     0.0188
     20  C13       91.5150  103.5180  -44.4200 C.3   1292  P741292     0.0721
     21  C14       90.0580  103.7120  -44.8220 C.3   1292  P741292     0.0188
     22  C15       92.4480   99.7750  -44.4930 C.3   1292  P741292     0.0333
     23  C16       91.9640   98.5780  -45.2900 C.3   1292  P741292     0.0738
     24  I2        92.1580   94.1710  -41.1100 I     1292  P741292    -0.0392
     25  C07       90.3370   91.1370  -49.8940 C.2   1292  P741292     0.4218
     26  O01       90.3970   91.9600  -50.9680 O.3   1292  P741292    -0.4408
     27  C08       89.1960   92.5360  -51.5480 C.3   1292  P741292     0.1379
     28  C09       89.7220   93.4330  -52.6750 C.3   1292  P741292     0.0437
     29  C17       88.4400   93.4270  -50.5530 C.3   1292  P741292     0.0437
     30  C         88.2930   91.4460  -52.1380 C.3   1292  P741292     0.0437
     31  O         89.3380   90.6620  -49.3760 O.2   1292  P741292    -0.2245
@<TRIPOS>BOND
     1    28    27    1
     2    30    27    1
     3    27    26    1
     4    27    29    1
     5    26    25    1
     6    25     5   am
     7    25    31    2
     8     5     4    1
     9     4     3    1
    10     3     2    3
    11     2     1    1
    12    13     1   ar
    13    13     6   ar
    14    10     6    1
    15    10     7    1
    16     1     9   ar
    17    23     7    1
    18    23    22    1
    19     6    15   ar
    20    12     7    1
    21    12    16    1
    22    21    20    1
    23    17    22    1
    24    17    16    1
    25    17    11    1
    26    20    11    1
    27     9    14   ar
    28    11    18    1
    29    15    14   ar
    30    15     8    1
    31    19    18    1
    32    14    24    1
