@<TRIPOS>MOLECULE
4agp_P51_A_1.pdb
 30 32 0 0 0
SMALL
GASTEIGER

@<TRIPOS>ATOM
      1  C01       91.5770   93.4520  -45.2950 C.ar  1292  P511292     0.0421
      2  C04       91.7530   92.3450  -46.1880 C.1   1292  P511292    -0.0608
      3  C05       91.8950   91.4530  -46.9720 C.1   1292  P511292    -0.0393
      4  C06       92.1440   90.3480  -47.9190 C.3   1292  P511292     0.2814
      5  O         90.9260   89.9330  -48.5430 O.3   1292  P511292    -0.4612
      6  C07       90.3680   90.7330  -49.5100 C.ar  1292  P511292     0.1400
      7  C1        90.9060   95.7610  -44.9550 C.ar  1292  P511292     0.0338
      8  N1        90.8320   98.2450  -44.8170 N.3   1292  P511292    -0.2688
      9  O1        91.0790   96.7610  -42.7680 O.3   1292  P511292    -0.2864
     10  C02       91.9220   93.3360  -43.9450 C.ar  1292  P511292     0.0172
     11  C2        90.3530   97.0310  -45.5320 C.3   1292  P511292     0.1024
     12  N2        92.0580  102.3500  -44.2520 N.3   1292  P511292    -0.2739
     13  C03       89.7980   99.3400  -44.8630 C.3   1292  P511292     0.0738
     14  C3        91.0740   94.6640  -45.8050 C.ar  1292  P511292     0.0085
     15  C4        91.7430   94.4530  -43.1210 C.ar  1292  P511292     0.0693
     16  C7        91.2390   95.6800  -43.5770 C.ar  1292  P511292     0.1983
     17  C8        90.3350  100.5070  -44.0570 C.3   1292  P511292     0.0333
     18  C10       91.5700  100.9970  -44.8020 C.3   1292  P511292     0.0603
     19  C11       93.0710  102.1710  -43.1140 C.3   1292  P511292     0.0721
     20  C12       93.7770  103.4970  -42.9020 C.3   1292  P511292     0.0188
     21  C13       90.9580  103.2970  -43.7890 C.3   1292  P511292     0.0721
     22  C14       90.1540  103.9020  -44.9310 C.3   1292  P511292     0.0188
     23  C15       92.6740   99.9330  -44.6790 C.3   1292  P511292     0.0333
     24  C16       92.1560   98.6850  -45.3690 C.3   1292  P511292     0.0738
     25  I2        92.2500   94.2730  -41.0690 I     1292  P511292    -0.0392
     26  C08       89.1070   90.3130  -49.9440 C.ar  1292  P511292     0.0369
     27  C09       88.4200   91.0300  -50.9270 C.ar  1292  P511292     0.0031
     28  C17       88.9920   92.1730  -51.4820 C.ar  1292  P511292     0.0002
     29  C18       90.2540   92.5960  -51.0580 C.ar  1292  P511292     0.0031
     30  C         90.9380   91.8770  -50.0700 C.ar  1292  P511292     0.0369
@<TRIPOS>BOND
     1    28    29   ar
     2    28    27   ar
     3    29    30   ar
     4    27    26   ar
     5    30     6   ar
     6    26     6   ar
     7     6     5    1
     8     5     4    1
     9     4     3    1
    10     3     2    3
    11     2     1    1
    12    14     1   ar
    13    14     7   ar
    14    11     7    1
    15    11     8    1
    16    24     8    1
    17    24    23    1
    18     1    10   ar
    19     7    16   ar
    20    22    21    1
    21    13     8    1
    22    13    17    1
    23    18    23    1
    24    18    12    1
    25    18    17    1
    26    12    21    1
    27    12    19    1
    28    10    15   ar
    29    16    15   ar
    30    16     9    1
    31    15    25    1
    32    19    20    1
