@<TRIPOS>MOLECULE
4agq_P96_A_1.pdb
 30 32 0 0 0
SMALL
GASTEIGER

@<TRIPOS>ATOM
      1  C         90.8850   91.8020  -50.1560 C.ar  1291  P961291     0.0161
      2  N         91.0760   89.9140  -48.5970 N.pl3 1291  P961291    -0.2234
      3  C01       91.5330   93.4550  -45.3070 C.ar  1291  P961291     0.0420
      4  C1        90.7800   95.7390  -44.9640 C.ar  1291  P961291     0.0338
      5  N1        90.6830   98.2530  -44.8460 N.3   1291  P961291    -0.2688
      6  O1        90.9230   96.7270  -42.7950 O.3   1291  P961291    -0.2864
      7  C02       91.8810   93.3660  -43.9520 C.ar  1291  P961291     0.0172
      8  C2        90.1810   96.9990  -45.5280 C.3   1291  P961291     0.1024
      9  N2        91.9400  102.3560  -44.2570 N.3   1291  P961291    -0.2739
     10  C03       89.6400   99.3320  -44.9180 C.3   1291  P961291     0.0738
     11  C3        90.9950   94.6440  -45.8120 C.ar  1291  P961291     0.0085
     12  C04       91.7590   92.3600  -46.1960 C.1   1291  P961291    -0.0626
     13  C4        91.6780   94.4580  -43.0960 C.ar  1291  P961291     0.0693
     14  C05       91.9620   91.4750  -46.9830 C.1   1291  P961291    -0.0625
     15  C06       92.2560   90.3680  -47.9040 C.3   1291  P961291     0.1876
     16  C07       90.3620   90.6810  -49.5060 C.ar  1291  P961291     0.0665
     17  C7        91.1240   95.6340  -43.6080 C.ar  1291  P961291     0.1983
     18  C08       89.0360   90.3300  -49.7960 C.ar  1291  P961291     0.0161
     19  C8        90.1590  100.5540  -44.1790 C.3   1291  P961291     0.0333
     20  C09       88.2670   91.0680  -50.7030 C.ar  1291  P961291     0.0013
     21  C10       91.4680  101.0070  -44.8210 C.3   1291  P961291     0.0603
     22  C12       90.0990  103.9410  -44.8990 C.3   1291  P961291     0.0188
     23  C13       93.0260  102.2730  -43.2010 C.3   1291  P961291     0.0721
     24  C14       93.6440  103.6430  -42.9800 C.3   1291  P961291     0.0188
     25  C15       92.5330   99.9110  -44.6780 C.3   1291  P961291     0.0333
     26  C16       92.0460   98.6390  -45.3540 C.3   1291  P961291     0.0738
     27  C17       88.8110   92.1780  -51.3390 C.ar  1291  P961291     0.0001
     28  C18       90.1280   92.5440  -51.0680 C.ar  1291  P961291     0.0013
     29  I2        92.1690   94.3450  -41.0290 I     1291  P961291    -0.0392
     30  C11       90.7760  103.2160  -43.7470 C.3   1291  P961291     0.0721
@<TRIPOS>BOND
     1    27    28   ar
     2    27    20   ar
     3    28     1   ar
     4    20    18   ar
     5     1    16   ar
     6    18    16   ar
     7    16     2    1
     8     2    15    1
     9    15    14    1
    10    14    12    3
    11    12     3    1
    12    11     3   ar
    13    11     4   ar
    14     8     4    1
    15     8     5    1
    16    26     5    1
    17    26    25    1
    18     3     7   ar
    19     4    17   ar
    20    10     5    1
    21    10    19    1
    22    22    30    1
    23    21    25    1
    24    21     9    1
    25    21    19    1
    26     9    30    1
    27     9    23    1
    28     7    13   ar
    29    17    13   ar
    30    17     6    1
    31    23    24    1
    32    13    29    1
