@<TRIPOS>MOLECULE
4ags_GSH_A_1.pdb
 20 19 0 0 0
SMALL
GASTEIGER

@<TRIPOS>ATOM
      1  N1        16.3910   36.6600  134.8810 N.3   1449  GSH1449    -0.1208
      2  CA1       17.7390   37.2080  135.0380 C.3   1449  GSH1449     0.1948
      3  C1        18.3360   36.6730  136.2950 C.2   1449  GSH1449     0.3819
      4  O11       17.6020   36.4100  137.2850 O.co2 1449  GSH1449    -0.2441
      5  O12       19.5720   36.5030  136.3380 O.co2 1449  GSH1449    -0.2441
      6  CB1       17.7540   38.7260  135.1770 C.3   1449  GSH1449     0.0402
      7  CG1       19.1590   39.2850  135.3820 C.3   1449  GSH1449     0.0889
      8  CD1       19.2140   40.7250  134.9110 C.2   1449  GSH1449     0.2418
      9  OE1       18.2390   41.1780  134.0020 O.2   1449  GSH1449    -0.2733
     10  N2        20.2000   41.5140  135.3750 N.am  1449  GSH1449    -0.1968
     11  CA2       20.4260   42.8680  134.8700 C.3   1449  GSH1449     0.1843
     12  C2        21.0630   42.8710  133.5060 C.2   1449  GSH1449     0.2627
     13  O2        22.2050   42.0860  133.3140 O.2   1449  GSH1449    -0.2714
     14  CB2       21.3300   43.6230  135.8480 C.3   1449  GSH1449     0.0997
     15  SG2       20.6350   43.8900  137.5060 S.3   1449  GSH1449    -0.0797
     16  N3        20.5200   43.5910  132.5070 N.am  1449  GSH1449    -0.1917
     17  CA3       21.1120   43.6400  131.1690 C.3   1449  GSH1449     0.2285
     18  C3        20.2000   43.2270  130.0090 C.2   1449  GSH1449     0.3865
     19  O31       20.6740   43.0710  128.8540 O.co2 1449  GSH1449    -0.2437
     20  O32       18.9660   43.0270  130.1360 O.co2 1449  GSH1449    -0.2437
@<TRIPOS>BOND
     1    19    18   ar
     2    18    20   ar
     3    18    17    1
     4    17    16    1
     5    16    12   am
     6    13    12    2
     7    12    11    1
     8     9     8    2
     9    11    10    1
    10    11    14    1
    11     1     2    1
    12     8    10   am
    13     8     7    1
    14     2     6    1
    15     2     3    1
    16     6     7    1
    17    14    15    1
    18     3     5   ar
    19     3     4   ar
