@<TRIPOS>MOLECULE
4agt_FUC_A_1.pdb
 11 11 0 0 0
SMALL
GASTEIGER

@<TRIPOS>ATOM
      1  C1       -13.2180   13.3620    4.6050 C.3   910  FUC910      0.3023
      2  C2       -12.7240   13.6160    3.1770 C.3   910  FUC910      0.2434
      3  C3       -11.2680   14.0980    3.1250 C.3   910  FUC910      0.2198
      4  C4       -10.3460   13.2510    4.0050 C.3   910  FUC910      0.2118
      5  C5       -10.9640   13.1890    5.4070 C.3   910  FUC910      0.1509
      6  C6       -10.0960   12.3870    6.3620 C.3   910  FUC910      0.0350
      7  O1       -13.5840   14.5810    5.2540 O.3   910  FUC910     -0.1869
      8  O2       -13.5940   14.5380    2.5220 O.3   910  FUC910     -0.2148
      9  O3       -10.8090   14.1790    1.7880 O.3   910  FUC910     -0.2174
     10  O4       -10.2010   11.9560    3.4890 O.3   910  FUC910     -0.2177
     11  O5       -12.2590   12.6410    5.3840 O.3   910  FUC910     -0.3264
@<TRIPOS>BOND
     1     9     3    1
     2     8     2    1
     3     3     2    1
     4     3     4    1
     5     2     1    1
     6    10     4    1
     7     4     5    1
     8     1     7    1
     9     1    11    1
    10    11     5    1
    11     5     6    1
