@<TRIPOS>MOLECULE
4agw_NG7_A_1.pdb
 43 48 0 0 0
SMALL
GASTEIGER

@<TRIPOS>ATOM
      1  C          1.7850    0.5430   -0.4770 C.3   1534  NG71534     0.4184
      2  F1         1.4900    0.6440   -1.7950 F     1534  NG71534    -0.1659
      3  N         -5.2820    1.9060   -0.9510 N.3   1534  NG71534    -0.2703
      4  O          4.0070    4.5760    0.7680 O.2   1534  NG71534    -0.2680
      5  S         10.6290   10.4750   -0.4600 S.3   1534  NG71534    -0.0039
      6  C01       10.4060    6.7630    0.6920 C.2   1534  NG71534     0.0379
      7  F3         1.4730   -0.7190   -0.1290 F     1534  NG71534    -0.1659
      8  N01        8.6450    8.9420    0.8560 N.2   1534  NG71534    -0.3926
      9  O01       12.1590   12.0010   -2.3740 O.2   1534  NG71534    -0.2729
     10  C02       10.8430    7.9870    0.1560 C.2   1534  NG71534     0.1695
     11  F2         3.1320    0.5400   -0.4990 F     1534  NG71534    -0.1659
     12  N02       12.1130    8.2720   -0.4860 N.2   1534  NG71534    -0.3755
     13  C03        9.8750    9.0270    0.2950 C.2   1534  NG71534     0.1939
     14  N03       13.2730   10.2430   -1.5050 N.am  1534  NG71534    -0.1434
     15  C04        8.2310    7.7260    1.3920 C.2   1534  NG71534     0.1322
     16  N04        2.1640    4.9080    2.0810 N.am  1534  NG71534    -0.1755
     17  C05        9.1310    6.6430    1.2890 C.2   1534  NG71534     0.0348
     18  N05       -2.6320    0.9140   -0.4090 N.3   1534  NG71534    -0.2665
     19  C06       12.2080    9.5350   -0.8780 C.2   1534  NG71534     0.2395
     20  C07       13.2260   11.4110   -2.3560 C.2   1534  NG71534     0.2476
     21  C08       14.4830   12.1560   -2.8450 C.3   1534  NG71534     0.0787
     22  C09       14.9170   12.2140   -4.3140 C.3   1534  NG71534     0.0096
     23  C10       14.2550   13.4140   -3.7220 C.3   1534  NG71534     0.0096
     24  C11        6.8050    7.5590    2.0280 C.ar  1534  NG71534     0.0298
     25  C12        6.3850    8.3990    3.0640 C.ar  1534  NG71534     0.0025
     26  C13        5.1050    8.2470    3.6170 C.ar  1534  NG71534     0.0002
     27  C14        4.1740    7.2880    3.1960 C.ar  1534  NG71534     0.0046
     28  C15        4.5080    6.4160    2.1690 C.ar  1534  NG71534     0.0555
     29  C16        5.8190    6.6000    1.6250 C.ar  1534  NG71534     0.0071
     30  C17        3.5110    5.2770    1.6410 C.2   1534  NG71534     0.2690
     31  C18        1.3300    3.8040    1.5790 C.ar  1534  NG71534     0.0736
     32  C19       -0.0500    3.6910    1.7430 C.ar  1534  NG71534     0.0163
     33  C20       -0.8130    2.6260    1.2390 C.ar  1534  NG71534    -0.0016
     34  C21       -0.3120    1.5490    0.5190 C.ar  1534  NG71534    -0.0022
     35  C22        1.0880    1.6380    0.3530 C.ar  1534  NG71534     0.0701
     36  C23        1.8660    2.7070    0.8490 C.ar  1534  NG71534     0.0202
     37  C24       -1.2390    0.4450   -0.0420 C.3   1534  NG71534     0.0992
     38  C25       -3.8170    0.2130    0.1730 C.3   1534  NG71534     0.0899
     39  C26       -5.2060    0.9120    0.1390 C.3   1534  NG71534     0.0897
     40  C27       -4.2480    2.9470   -0.7930 C.3   1534  NG71534     0.0897
     41  C28       -2.8270    2.3400   -0.7800 C.3   1534  NG71534     0.0899
     42  C29       -6.6520    2.4920   -1.1740 C.3   1534  NG71534     0.0722
     43  C30       -7.7170    1.7720   -0.3510 C.3   1534  NG71534     0.0188
@<TRIPOS>BOND
     1    22    23    1
     2    22    21    1
     3    23    21    1
     4    21    20    1
     5     9    20    2
     6    20    14   am
     7     2     1    1
     8    14    19    1
     9    42     3    1
    10    42    43    1
    11     3    40    1
    12     3    39    1
    13    19    12    2
    14    19     5    1
    15    40    41    1
    16    41    18    1
    17    11     1    1
    18    12    10    2
    19     1     7    1
    20     1    35    1
    21     5    13    1
    22    18    37    1
    23    18    38    1
    24    37    34    1
    25    39    38    1
    26    10    13    1
    27    10     6    1
    28    13     8    2
    29    35    34   ar
    30    35    36   ar
    31    34    33   ar
    32     6    17    2
    33     4    30    2
    34    36    31   ar
    35     8    15    2
    36    33    32   ar
    37    17    15    1
    38    15    24    1
    39    31    32   ar
    40    31    16    1
    41    29    24   ar
    42    29    28   ar
    43    30    16   am
    44    30    28    1
    45    24    25   ar
    46    28    27   ar
    47    25    26   ar
    48    27    26   ar
