@<TRIPOS>MOLECULE
4ah3_PLP_A_1.pdb
 15 15 0 0 0
SMALL
GASTEIGER

@<TRIPOS>ATOM
      1  N1        -0.2880   -3.0950   -4.9170 N.ar  1288  PLP1288    -0.2452
      2  C2        -0.6450   -1.9700   -4.2210 C.ar  1288  PLP1288     0.0978
      3  C2A       -1.4450   -2.0470   -2.9620 C.3   1288  PLP1288     0.0555
      4  C3        -0.2340   -0.6880   -4.7940 C.ar  1288  PLP1288     0.2049
      5  O3        -0.5100    0.4690   -4.1820 O.3   1288  PLP1288    -0.2857
      6  C4         0.5920   -0.6300   -6.0240 C.ar  1288  PLP1288     0.0182
      7  C4A        1.0900    0.7210   -6.5170 C.3   1288  PLP1288     0.0342
      8  C5         0.8920   -1.9480   -6.6510 C.ar  1288  PLP1288     0.0261
      9  C6         0.4510   -3.0960   -6.0530 C.ar  1288  PLP1288     0.0965
     10  C5A        1.6490   -2.1290   -7.9260 C.3   1288  PLP1288     0.1815
     11  O4P        2.9900   -1.7690   -7.7680 O.3   1288  PLP1288    -0.2653
     12  P          3.7500   -1.2280   -9.0510 P.3   1288  PLP1288     0.5329
     13  O1P        3.1490    0.1180   -9.4260 O.3   1288  PLP1288    -0.1145
     14  O2P        3.5510   -2.2510  -10.1350 O.2   1288  PLP1288    -0.2224
     15  O3P        5.1740   -1.0760   -8.6650 O.3   1288  PLP1288    -0.1145
@<TRIPOS>BOND
     1    14    12    2
     2    13    12    1
     3    12    15    1
     4    12    11    1
     5    10    11    1
     6    10     8    1
     7     8     9   ar
     8     8     6   ar
     9     7     6    1
    10     9     1   ar
    11     6     4   ar
    12     1     2   ar
    13     4     2   ar
    14     4     5    1
    15     2     3    1
