@<TRIPOS>MOLECULE
4ah4_FUC_A_1.pdb
 10 10 0 0 0
SMALL
GASTEIGER

@<TRIPOS>ATOM
      1  C1       -17.4810    8.7690   -5.5780 C.3   910  FUC910      0.1776
      2  C2       -17.5020    8.0740   -4.2230 C.3   910  FUC910      0.2141
      3  C3       -17.3390    6.5920   -4.3880 C.3   910  FUC910      0.2172
      4  C4       -16.0820    6.2850   -5.2060 C.3   910  FUC910      0.2116
      5  C5       -16.1250    7.0330   -6.5550 C.3   910  FUC910      0.1483
      6  C6       -14.8810    6.7850   -7.4080 C.3   910  FUC910      0.0349
      7  O2       -18.7030    8.3490   -3.5180 O.3   910  FUC910     -0.2176
      8  O3       -17.3320    5.9790   -3.1140 O.3   910  FUC910     -0.2175
      9  O4       -14.8700    6.5840   -4.5450 O.3   910  FUC910     -0.2177
     10  O5       -16.3200    8.4210   -6.3240 O.3   910  FUC910     -0.3508
@<TRIPOS>BOND
     1     6     5    1
     2     5    10    1
     3     5     4    1
     4    10     1    1
     5     1     2    1
     6     4     9    1
     7     4     3    1
     8     3     2    1
     9     3     8    1
    10     2     7    1
