@<TRIPOS>MOLECULE
4ah5_FUC_A_1.pdb
 10 10 0 0 0
SMALL
GASTEIGER

@<TRIPOS>ATOM
      1  C1        11.4020  -33.1000   19.7980 C.3   910  FUC910      0.1776
      2  C2        12.0150  -32.2040   20.8860 C.3   910  FUC910      0.2141
      3  C3        12.2150  -30.7670   20.4120 C.3   910  FUC910      0.2172
      4  C4        10.9490  -30.1930   19.7590 C.3   910  FUC910      0.2116
      5  C5        10.4340  -31.1910   18.7070 C.3   910  FUC910      0.1483
      6  C6         9.1750  -30.6660   18.0180 C.3   910  FUC910      0.0349
      7  O2        13.2630  -32.7140   21.3350 O.3   910  FUC910     -0.2176
      8  O3        12.6230  -30.0630   21.5500 O.3   910  FUC910     -0.2175
      9  O4         9.9400  -29.9670   20.7170 O.3   910  FUC910     -0.2177
     10  O5        10.2250  -32.4820   19.2760 O.3   910  FUC910     -0.3508
@<TRIPOS>BOND
     1     6     5    1
     2     5    10    1
     3     5     4    1
     4    10     1    1
     5     4     3    1
     6     4     9    1
     7     1     2    1
     8     3     2    1
     9     3     8    1
    10     2     7    1
