@<TRIPOS>MOLECULE
4ah5_GAL_A_1.pdb
 11 11 0 0 0
SMALL
GASTEIGER

@<TRIPOS>ATOM
      1  C1        -2.3730   -7.7430    7.7650 C.3   932  GAL932      0.1777
      2  C2        -0.8770   -8.0580    7.4960 C.3   932  GAL932      0.2141
      3  C3        -0.5800   -9.4200    6.8620 C.3   932  GAL932      0.2173
      4  C4        -1.3650  -10.5160    7.5580 C.3   932  GAL932      0.2142
      5  C5        -2.8340  -10.0920    7.6230 C.3   932  GAL932      0.1810
      6  C6        -3.7300  -11.0820    8.3310 C.3   932  GAL932      0.2141
      7  O2        -0.3530   -7.0580    6.6640 O.3   932  GAL932     -0.2176
      8  O3         0.7930   -9.7520    6.9640 O.3   932  GAL932     -0.2175
      9  O4        -0.7370  -10.7760    8.8100 O.3   932  GAL932     -0.2176
     10  O5        -3.0010   -8.8790    8.3030 O.3   932  GAL932     -0.3481
     11  O6        -4.9570  -10.4160    8.5670 O.3   932  GAL932     -0.2176
@<TRIPOS>BOND
     1     7     2    1
     2     3     8    1
     3     3     2    1
     4     3     4    1
     5     2     1    1
     6     4     5    1
     7     4     9    1
     8     5    10    1
     9     5     6    1
    10     1    10    1
    11     6    11    1
