@<TRIPOS>MOLECULE
4ah9_0MB_A_1.pdb
 18 20 0 0 0
SMALL
GASTEIGER

@<TRIPOS>ATOM
      1  NJ        15.5730  -24.7060   10.7680 N.2   218  0MB218     -0.1420
      2  NK        17.2750  -25.0490   12.3140 N.2   218  0MB218     -0.3265
      3  NL        19.0360  -29.8150   12.1710 N.3   218  0MB218     -0.2162
      4  NQ        17.6570  -27.4380   12.4100 N.pl3 218  0MB218     -0.2751
      5  CAA       16.8350  -19.9770   12.0320 C.ar  218  0MB218      0.0000
      6  CAC       15.9070  -20.5640   11.1530 C.ar  218  0MB218      0.0007
      7  CAB       17.6550  -20.8240   12.7990 C.ar  218  0MB218      0.0007
      8  CAE       15.7350  -21.9380   10.9910 C.ar  218  0MB218      0.0110
      9  CAD       17.4770  -22.1990   12.6260 C.ar  218  0MB218      0.0110
     10  CAF       20.0770  -28.9170   12.7720 C.3   218  0MB218      0.0905
     11  CAG       17.7030  -29.8970   12.8380 C.3   218  0MB218      0.1101
     12  CAI       16.9050  -28.7090   12.3330 C.3   218  0MB218      0.1124
     13  SAM       15.7620  -26.4010   10.7660 S.3   218  0MB218      0.0730
     14  CAN       16.5390  -22.7450   11.7780 C.ar  218  0MB218      0.0746
     15  CAO       16.4440  -24.1740   11.6180 C.1   218  0MB218      0.0961
     16  CAP       17.0270  -26.3140   11.9320 C.2   218  0MB218      0.2439
     17  C9        19.5380  -28.1180   13.9470 C.3   218  0MB218      0.0403
     18  C10       18.4400  -27.1270   13.6100 C.3   218  0MB218      0.0952
@<TRIPOS>BOND
     1    13     1    1
     2    13    16    1
     3     1    15    2
     4     8     6   ar
     5     8    14   ar
     6     6     5   ar
     7    15    14    1
     8    15     2    2
     9    14     9   ar
    10    16     2    2
    11    16     4    1
    12     5     7   ar
    13     3    10    1
    14     3    11    1
    15    12     4    1
    16    12    11    1
    17     4    18    1
    18     9     7   ar
    19    10    17    1
    20    18    17    1
