@<TRIPOS>MOLECULE
4aha_FUC_A_1.pdb
 11 11 0 0 0
SMALL
GASTEIGER

@<TRIPOS>ATOM
      1  C1        16.5970  -12.4800    3.6160 C.3   910  FUC910      0.3023
      2  C2        17.0000  -11.4060    4.6050 C.3   910  FUC910      0.2434
      3  C3        17.0020   -9.9980    4.0060 C.3   910  FUC910      0.2198
      4  C4        15.6340   -9.6770    3.4120 C.3   910  FUC910      0.2118
      5  C5        15.3800  -10.7510    2.3620 C.3   910  FUC910      0.1509
      6  C6        14.0550  -10.4660    1.6130 C.3   910  FUC910      0.0350
      7  O1        17.6890  -12.8480    2.7430 O.3   910  FUC910     -0.1869
      8  O2        18.2710  -11.7080    5.1370 O.3   910  FUC910     -0.2148
      9  O3        17.4300   -9.0590    4.9710 O.3   910  FUC910     -0.2174
     10  O4        14.6080   -9.7860    4.3810 O.3   910  FUC910     -0.2177
     11  O5        15.4090  -12.0810    2.9160 O.3   910  FUC910     -0.3264
@<TRIPOS>BOND
     1     6     5    1
     2     5    11    1
     3     5     4    1
     4     7     1    1
     5    11     1    1
     6     4     3    1
     7     4    10    1
     8     1     2    1
     9     3     2    1
    10     3     9    1
    11     2     8    1
