@<TRIPOS>MOLECULE
4ahb_GXL_A_1.pdb
 12 12 0 0 0
SMALL
GASTEIGER

@<TRIPOS>ATOM
      1  C1        18.6900  -24.5240   19.4770 C.3   911  GXL911      0.3024
      2  C2        19.8920  -23.6170   19.7670 C.3   911  GXL911      0.2434
      3  C3        19.6090  -22.1440   19.4780 C.3   911  GXL911      0.2199
      4  C4        18.3190  -21.7190   20.2370 C.3   911  GXL911      0.2144
      5  C5        17.1780  -22.6790   19.8300 C.3   911  GXL911      0.1836
      6  C6        15.8850  -22.2120   20.4560 C.3   911  GXL911      0.2142
      7  O1        18.3660  -24.6010   18.0800 O.3   911  GXL911     -0.1869
      8  O2        21.0170  -24.1310   19.0510 O.3   911  GXL911     -0.2148
      9  O3        20.7900  -21.3670   19.8200 O.3   911  GXL911     -0.2174
     10  O4        18.4980  -21.7520   21.6460 O.3   911  GXL911     -0.2176
     11  O5        17.5530  -24.0000   20.1630 O.3   911  GXL911     -0.3236
     12  O6        14.8370  -23.0460   19.9620 O.3   911  GXL911     -0.2176
@<TRIPOS>BOND
     1     7     1    1
     2     8     2    1
     3     1     2    1
     4     1    11    1
     5     3     2    1
     6     3     9    1
     7     3     4    1
     8     5    11    1
     9     5     4    1
    10     5     6    1
    11    12     6    1
    12     4    10    1
