@<TRIPOS>MOLECULE
4ahr_I2E_A_1.pdb
 14 15 0 0 0
SMALL
GASTEIGER

@<TRIPOS>ATOM
      1  C4        16.6480  -20.9310   11.5740 C.ar  1218  I2E1218     0.1764
      2  C5        15.5630  -21.3390   10.8010 C.ar  1218  I2E1218     0.0399
      3  C6        15.2250  -22.6900   10.8630 C.ar  1218  I2E1218    -0.0009
      4  C3        17.3750  -21.7610   12.3750 C.ar  1218  I2E1218     0.1761
      5  C2        17.0740  -23.0890   12.4860 C.ar  1218  I2E1218     0.0359
      6  C1        15.9890  -23.5130   11.7100 C.ar  1218  I2E1218    -0.0184
      7  C7        15.6230  -24.9350   11.8420 C.3   1218  I2E1218     0.0383
      8  C8        16.1860  -25.7920   10.7460 C.3   1218  I2E1218     0.1187
      9  C9        17.1820  -26.6050   11.5630 C.2   1218  I2E1218     0.3652
     10  O1        17.6730  -27.4950   10.8180 O.co2 1218  I2E1218    -0.2456
     11  C20       18.3720  -19.8990   12.3310 C.3   1218  I2E1218     0.4294
     12  O2        17.4050  -26.3020   12.7840 O.co2 1218  I2E1218    -0.2456
     13  O4        17.1420  -19.6460   11.6670 O.3   1218  I2E1218    -0.4346
     14  O3        18.3860  -21.1300   13.0370 O.3   1218  I2E1218    -0.4346
@<TRIPOS>BOND
     1     8     9    1
     2     8     7    1
     3     2     3   ar
     4     2     1   ar
     5    10     9   ar
     6     3     6   ar
     7     9    12   ar
     8     1    13    1
     9     1     4   ar
    10    13    11    1
    11     6     7    1
    12     6     5   ar
    13    11    14    1
    14     4     5   ar
    15     4    14    1
