@<TRIPOS>MOLECULE
4ahs_AKH_A_1.pdb
 12 13 0 0 0
SMALL
GASTEIGER

@<TRIPOS>ATOM
      1  C5       -15.5130   20.2680  -10.7570 C.ar  1216  AKH1216     0.0031
      2  C6       -16.5350   19.9790  -11.6690 C.ar  1216  AKH1216     0.0379
      3  C7       -17.4470   20.9660  -12.3540 C.ar  1216  AKH1216     0.0437
      4  C8       -18.2890   20.0010  -13.1750 C.ar  1216  AKH1216     0.1796
      5  C4A      -14.7740   19.2290  -10.2400 C.ar  1216  AKH1216     0.0004
      6  C4       -15.0580   17.9310  -10.6550 C.ar  1216  AKH1216     0.0097
      7  C3       -16.0660   17.6140  -11.5690 C.ar  1216  AKH1216     0.1142
      8  C2       -16.3240   16.1750  -11.9280 C.2   1216  AKH1216     0.3907
      9  O1       -17.0720   15.9140  -12.9330 O.co2 1216  AKH1216    -0.2404
     10  C40      -16.8200   18.6790  -12.0610 C.ar  1216  AKH1216     0.1517
     11  O2       -15.8020   15.2980  -11.1610 O.co2 1216  AKH1216    -0.2404
     12  O8       -17.8760   18.6150  -12.9730 O.2   1216  AKH1216    -0.4502
@<TRIPOS>BOND
     1     4    12   ar
     2     4     3   ar
     3    12    10   ar
     4     9     8   ar
     5     3     2   ar
     6    10     2   ar
     7    10     7   ar
     8     8     7    1
     9     8    11   ar
    10     2     1   ar
    11     7     6   ar
    12     1     5   ar
    13     6     5   ar
