@<TRIPOS>MOLECULE
4aht_Q6T_A_1.pdb
 12 13 0 0 0
SMALL
GASTEIGER

@<TRIPOS>ATOM
      1  OAA       17.5390  -16.2390  -12.6560 O.co2 1216  Q6T1216    -0.2404
      2  C10       16.5960  -16.4050  -11.8110 C.2   1216  Q6T1216     0.3908
      3  OAB       15.9040  -15.5010  -11.2400 O.co2 1216  Q6T1216    -0.2404
      4  CAD       16.2410  -17.8000  -11.4200 C.ar  1216  Q6T1216     0.1168
      5  CAK       16.8720  -18.9710  -11.8380 C.ar  1216  Q6T1216     0.1827
      6  CAL       16.4430  -20.1980  -11.3960 C.ar  1216  Q6T1216     0.1766
      7  OAH       17.1480  -21.2810  -11.9580 O.3   1216  Q6T1216    -0.4346
      8  CAF       18.1390  -20.5280  -12.7060 C.3   1216  Q6T1216     0.4294
      9  OAG       17.9150  -19.1230  -12.7140 O.3   1216  Q6T1216    -0.4344
     10  CAE       15.3970  -20.3080  -10.5110 C.ar  1216  Q6T1216     0.0402
     11  CAJ       14.7590  -19.1760  -10.0550 C.ar  1216  Q6T1216     0.0035
     12  CAC       15.1820  -17.9450  -10.5230 C.ar  1216  Q6T1216     0.0099
@<TRIPOS>BOND
     1     9     8    1
     2     9     5    1
     3     8     7    1
     4     1     2   ar
     5     7     6    1
     6     5     4   ar
     7     5     6   ar
     8     2     4    1
     9     2     3   ar
    10     4    12   ar
    11     6    10   ar
    12    12    11   ar
    13    10    11   ar
