@<TRIPOS>MOLECULE
4ahu_ICO_A_1.pdb
 12 13 0 0 0
SMALL
GASTEIGER

@<TRIPOS>ATOM
      1  CAA      -16.7460   18.1670    1.2830 C.2   1217  ICO1217     0.0218
      2  CAD      -17.7150   18.5320    0.3550 C.2   1217  ICO1217     0.0011
      3  CAI      -18.0010   19.8650    0.1180 C.2   1217  ICO1217    -0.0041
      4  CAJ      -17.3330   20.8640    0.7900 C.2   1217  ICO1217    -0.0198
      5  CAF      -16.3540   20.5380    1.7160 C.3   1217  ICO1217     0.0717
      6  CAB      -16.0780   19.1950    1.9530 C.2   1217  ICO1217     0.0636
      7  NAE      -15.1340   18.6220    2.7950 N.2   1217  ICO1217    -0.2476
      8  CAG      -15.1930   17.2650    2.6960 C.2   1217  ICO1217     0.1050
      9  CAC      -16.1790   16.9370    1.7720 C.2   1217  ICO1217     0.1000
     10  CAH      -16.5350   15.4530    1.4080 C.2   1217  ICO1217     0.3893
     11  OAL      -17.4080   15.2070    0.5020 O.co2 1217  ICO1217    -0.2405
     12  OAK      -15.9570   14.5480    2.0920 O.co2 1217  ICO1217    -0.2405
@<TRIPOS>BOND
     1     3     2    1
     2     3     4    2
     3     2     1    2
     4    11    10   ar
     5     4     5    1
     6     1     9    1
     7     1     6    1
     8    10     9    1
     9    10    12   ar
    10     5     6    1
    11     9     8    2
    12     6     7    2
    13     8     7    1
