@<TRIPOS>MOLECULE
4ahv_Z5P_A_1.pdb
 13 14 0 0 0
SMALL
GASTEIGER

@<TRIPOS>ATOM
      1  N13      -14.5700   18.3040    3.0210 N.3   1219  Z5P1219    -0.1262
      2  C10      -16.6770   20.8270    1.6790 C.ar  1219  Z5P1219    -0.0013
      3  N4       -16.4880   17.0620    1.5340 N.ar  1219  Z5P1219    -0.2284
      4  C9       -17.5700   21.0430    0.6750 C.ar  1219  Z5P1219    -0.0002
      5  C8       -18.0950   19.9550    0.0310 C.ar  1219  Z5P1219     0.0015
      6  C7       -17.7150   18.6980    0.4050 C.ar  1219  Z5P1219     0.0189
      7  C6       -16.7950   18.4630    1.3980 C.ar  1219  Z5P1219     0.0803
      8  C3       -15.5870   16.3970    2.3160 C.ar  1219  Z5P1219     0.1020
      9  C2       -15.8310   15.0400    2.1980 C.ar  1219  Z5P1219     0.0431
     10  C1       -16.9110   14.9370    1.2760 C.ar  1219  Z5P1219     0.1221
     11  C11      -16.2730   19.5800    2.0520 C.ar  1219  Z5P1219     0.0145
     12  N5       -17.2900   16.1640    0.8760 N.ar  1219  Z5P1219    -0.1635
     13  C12      -15.2340   19.6070    3.1190 C.3   1219  Z5P1219     0.1371
@<TRIPOS>BOND
     1     5     6   ar
     2     5     4   ar
     3     6     7   ar
     4     4     2   ar
     5    12    10   ar
     6    12     3   ar
     7    10     9   ar
     8     7     3    1
     9     7    11   ar
    10     3     8   ar
    11     2    11   ar
    12    11    13    1
    13     9     8   ar
    14     1    13    1
