@<TRIPOS>MOLECULE
4ai5_ADK_A_1.pdb
 11 12 0 0 0
SMALL
GASTEIGER

@<TRIPOS>ATOM
      1  N9        26.2000  -21.4960    1.6340 N.2   400  ADK400     -0.0346
      2  C4        27.4690  -21.4560    1.9430 C.2   400  ADK400      0.3494
      3  N3        28.3330  -22.4180    1.9370 N.pl3 400  ADK400     -0.1388
      4  C2        29.6470  -22.1400    2.2810 C.3   400  ADK400      0.4722
      5  N1        29.9970  -20.9240    2.6590 N.2   400  ADK400     -0.0033
      6  C6        29.0750  -19.8940    2.7010 C.2   400  ADK400      0.4391
      7  N6        29.4370  -18.6270    3.0510 N.pl3 400  ADK400      0.2180
      8  C5        27.8070  -20.1980    2.3350 C.2   400  ADK400      0.2527
      9  N7        26.7120  -19.4900    2.2340 N.2   400  ADK400     -0.2043
     10  C8        25.6950  -20.2680    1.8410 C.3   400  ADK400      0.3923
     11  C3A       27.9200  -23.8350    1.5190 C.3   400  ADK400      0.2573
@<TRIPOS>BOND
     1    11     3    1
     2     1    10    1
     3     1     2    2
     4    10     9    1
     5     3     2    1
     6     3     4    1
     7     2     8    1
     8     9     8    2
     9     4     5    1
    10     8     6    1
    11     5     6    2
    12     6     7    1
