@<TRIPOS>MOLECULE
4ai6_ATP_A_1.pdb
 31 33 0 0 0
SMALL
GASTEIGER

@<TRIPOS>ATOM
      1  PG       105.5310  -31.8810  179.9060 P.3   5400  ATP5400     0.5373
      2  O1G      107.0020  -32.2350  179.7500 O.3   5400  ATP5400    -0.1143
      3  O2G      105.1470  -30.6240  179.1470 O.2   5400  ATP5400    -0.2221
      4  O3G      104.5750  -33.0380  179.7640 O.3   5400  ATP5400    -0.1143
      5  PB       105.3650  -32.5840  182.6070 P.3   5400  ATP5400     0.2277
      6  O1B      106.4310  -33.6240  182.2770 O.2   5400  ATP5400    -0.5168
      7  O2B      103.9510  -32.9980  182.8350 O.3   5400  ATP5400    -0.4368
      8  O3B      105.3690  -31.4630  181.4470 O.3   5400  ATP5400    -0.2258
      9  PA       107.4060  -31.7220  184.3220 P.3   5400  ATP5400     0.2189
     10  O1A      108.2540  -31.6530  183.0590 O.2   5400  ATP5400    -0.5170
     11  O2A      107.6400  -32.8300  185.3270 O.3   5400  ATP5400    -0.4371
     12  O3A      105.8460  -31.7700  183.9080 O.3   5400  ATP5400    -0.2700
     13  O5'      107.4750  -30.3010  185.0610 O.3   5400  ATP5400    -0.3112
     14  C5'      107.3650  -30.2360  186.4820 C.3   5400  ATP5400     0.1813
     15  C4'      107.1320  -28.7910  186.8870 C.3   5400  ATP5400     0.1821
     16  O4'      106.2310  -28.7750  187.9910 O.3   5400  ATP5400    -0.3135
     17  C3'      108.4260  -28.0990  187.3240 C.3   5400  ATP5400     0.2184
     18  O3'      108.7060  -27.0030  186.4710 O.3   5400  ATP5400    -0.2174
     19  C2'      108.1810  -27.6270  188.7440 C.3   5400  ATP5400     0.2570
     20  O2'      108.1590  -26.1770  188.8050 O.3   5400  ATP5400    -0.2130
     21  C1'      106.7960  -28.1010  189.1170 C.3   5400  ATP5400     0.3186
     22  N9       106.8800  -29.0210  190.2820 N.pl3 5400  ATP5400    -0.1439
     23  C8       106.7830  -30.3560  190.2360 C.3   5400  ATP5400     0.3377
     24  N7       106.9010  -30.9060  191.4660 N.2   5400  ATP5400    -0.2095
     25  C5       107.0500  -29.8950  192.3350 C.2   5400  ATP5400     0.2526
     26  C6       107.2200  -29.7630  193.8000 C.2   5400  ATP5400     0.4393
     27  N6       107.2550  -30.8570  194.5980 N.pl3 5400  ATP5400     0.2180
     28  N1       107.3510  -28.5150  194.3110 N.2   5400  ATP5400     0.0021
     29  C2       107.3180  -27.4230  193.5230 C.3   5400  ATP5400     0.5254
     30  N3       107.1570  -27.4680  192.1850 N.2   5400  ATP5400    -0.0055
     31  C4       107.0340  -28.6580  191.5450 C.2   5400  ATP5400     0.3518
@<TRIPOS>BOND
     1     3     1    2
     2     2     1    1
     3     4     1    1
     4     1     8    1
     5     8     5    1
     6     6     5    2
     7     5     7    1
     8     5    12    1
     9    10     9    2
    10    12     9    1
    11     9    13    1
    12     9    11    1
    13    13    14    1
    14    18    17    1
    15    14    15    1
    16    15    17    1
    17    15    16    1
    18    17    19    1
    19    16    21    1
    20    19    20    1
    21    19    21    1
    22    21    22    1
    23    23    22    1
    24    23    24    1
    25    22    31    1
    26    24    25    2
    27    31    30    2
    28    31    25    1
    29    30    29    1
    30    25    26    1
    31    29    28    1
    32    26    28    2
    33    26    27    1
