@<TRIPOS>MOLECULE
4ai6_ADP_A_1.pdb
 27 29 0 0 0
SMALL
GASTEIGER

@<TRIPOS>ATOM
      1  PB       100.6120   -9.9080  160.9780 P.3   5401  ADP5401     0.5373
      2  O1B      101.7030   -9.6300  161.9540 O.3   5401  ADP5401    -0.1143
      3  O2B       99.2040   -9.9070  161.5430 O.3   5401  ADP5401    -0.1143
      4  O3B      100.9400  -11.0830  160.0850 O.2   5401  ADP5401    -0.2221
      5  PA       101.8760   -7.6210  159.8860 P.3   5401  ADP5401     0.2231
      6  O1A      102.8730   -8.1910  158.9140 O.2   5401  ADP5401    -0.5169
      7  O2A      102.2700   -7.1140  161.2480 O.3   5401  ADP5401    -0.4370
      8  O3A      100.6290   -8.6410  159.9860 O.3   5401  ADP5401    -0.2261
      9  O5'      101.2120   -6.4220  159.0720 O.3   5401  ADP5401    -0.3111
     10  C5'      101.4740   -5.1030  159.5030 C.3   5401  ADP5401     0.1813
     11  C4'      101.2860   -4.1650  158.3200 C.3   5401  ADP5401     0.1821
     12  O4'      100.3430   -3.1910  158.7080 O.3   5401  ADP5401    -0.3135
     13  C3'      102.5760   -3.4480  157.9240 C.3   5401  ADP5401     0.2184
     14  O3'      102.7940   -3.6170  156.5130 O.3   5401  ADP5401    -0.2174
     15  C2'      102.4270   -1.9950  158.3200 C.3   5401  ADP5401     0.2570
     16  O2'      102.6580   -1.1500  157.1960 O.3   5401  ADP5401    -0.2130
     17  C1'      100.9830   -1.9100  158.7760 C.3   5401  ADP5401     0.3186
     18  N9       100.8770   -1.3590  160.1460 N.pl3 5401  ADP5401    -0.1439
     19  C8        99.8880   -1.6250  161.0220 C.3   5401  ADP5401     0.3377
     20  N7       100.0230   -0.9270  162.1780 N.2   5401  ADP5401    -0.2095
     21  C5       101.1270   -0.1880  162.0420 C.2   5401  ADP5401     0.2526
     22  C6       101.8420    0.7920  162.8900 C.2   5401  ADP5401     0.4393
     23  N6       101.3560    1.0640  164.1220 N.pl3 5401  ADP5401     0.2180
     24  N1       102.9680    1.3810  162.3830 N.2   5401  ADP5401     0.0021
     25  C2       103.4040    1.0740  161.1280 C.3   5401  ADP5401     0.5254
     26  N3       102.8020    0.1790  160.3000 N.2   5401  ADP5401    -0.0055
     27  C4       101.6840   -0.4740  160.6990 C.2   5401  ADP5401     0.3518
@<TRIPOS>BOND
     1    14    13    1
     2    16    15    1
     3    13    11    1
     4    13    15    1
     5    11    12    1
     6    11    10    1
     7    15    17    1
     8    12    17    1
     9    17    18    1
    10     6     5    2
    11     9    10    1
    12     9     5    1
    13     5     8    1
    14     5     7    1
    15     8     1    1
    16     4     1    2
    17    18    27    1
    18    18    19    1
    19    26    27    2
    20    26    25    1
    21    27    21    1
    22     1     3    1
    23     1     2    1
    24    19    20    1
    25    25    24    1
    26    21    20    2
    27    21    22    1
    28    24    22    2
    29    22    23    1
