@<TRIPOS>MOLECULE
4ai8_DZA_A_1.pdb
 11 10 0 0 0
SMALL
GASTEIGER

@<TRIPOS>ATOM
      1  O10       17.9010   24.4170   27.7210 O.co2 1358  DZA1358    -0.2456
      2  C09       18.0340   24.9420   28.8430 C.2   1358  DZA1358     0.3654
      3  O11       17.1220   25.3240   29.5850 O.co2 1358  DZA1358    -0.2456
      4  C08       19.3640   25.6400   29.1560 C.3   1358  DZA1358     0.1237
      5  C07       20.4010   24.7400   28.5030 C.3   1358  DZA1358     0.1000
      6  C02       21.7030   25.5500   28.5180 C.2   1358  DZA1358     0.2570
      7  O01       21.7870   26.6790   28.9400 O.2   1358  DZA1358    -0.2719
      8  N03       22.7330   24.8630   28.0050 N.am  1358  DZA1358    -0.1275
      9  N04       23.7060   25.4240   27.9990 N.3   1358  DZA1358    -0.1814
     10  C06       24.5390   24.5780   28.8650 C.3   1358  DZA1358     0.1130
     11  C05       24.0980   25.5210   26.5790 C.3   1358  DZA1358     0.1130
@<TRIPOS>BOND
     1    11     9    1
     2     1     2   ar
     3     9     8    1
     4     9    10    1
     5     8     6   am
     6     5     6    1
     7     5     4    1
     8     6     7    2
     9     2     4    1
    10     2     3   ar
