@<TRIPOS>MOLECULE
4ai9_DZA_A_1.pdb
 11 10 0 0 0
SMALL
GASTEIGER

@<TRIPOS>ATOM
      1  O10       34.3320   23.5660  -10.3500 O.co2 601  DZA601     -0.2456
      2  C09       34.0840   23.6380  -11.5730 C.2   601  DZA601      0.3654
      3  O11       34.2700   24.6360  -12.3040 O.co2 601  DZA601     -0.2456
      4  C08       33.4470   22.4100  -12.2250 C.3   601  DZA601      0.1237
      5  C07       31.9250   22.5200  -12.1150 C.3   601  DZA601      0.1000
      6  C02       31.2650   21.3070  -12.7740 C.2   601  DZA601      0.2570
      7  O01       30.9260   21.3420  -13.9550 O.2   601  DZA601     -0.2719
      8  N03       31.1440   20.2310  -11.9830 N.am  601  DZA601     -0.1275
      9  N04       30.6610   19.3130  -12.4120 N.3   601  DZA601     -0.1814
     10  C06       31.5190   18.6920  -13.4310 C.3   601  DZA601      0.1130
     11  C05       30.4290   18.3460  -11.3300 C.3   601  DZA601      0.1130
@<TRIPOS>BOND
     1     7     6    2
     2    10     9    1
     3     6     5    1
     4     6     8   am
     5     9     8    1
     6     9    11    1
     7     3     2   ar
     8     4     5    1
     9     4     2    1
    10     2     1   ar
