@<TRIPOS>MOLECULE
4aia_ADK_A_1.pdb
 11 12 0 0 0
SMALL
GASTEIGER

@<TRIPOS>ATOM
      1  N9        30.5610  -19.8250    2.7660 N.2   400  ADK400     -0.0346
      2  C4        29.7040  -20.8150    2.4760 C.2   400  ADK400      0.3494
      3  N3        29.9060  -22.1390    2.2820 N.pl3 400  ADK400     -0.1388
      4  C2        28.8360  -22.9570    1.9950 C.3   400  ADK400      0.4722
      5  N1        27.6130  -22.4810    1.9080 N.2   400  ADK400     -0.0033
      6  C6        27.4230  -21.1340    2.1200 C.2   400  ADK400      0.4391
      7  N6        26.1920  -20.6440    2.0520 N.pl3 400  ADK400      0.2180
      8  C5        28.4630  -20.3160    2.4140 C.2   400  ADK400      0.2527
      9  N7        28.5560  -19.0100    2.6660 N.2   400  ADK400     -0.2043
     10  C8        29.8380  -18.6900    2.8940 C.3   400  ADK400      0.3923
     11  C3A       31.2850  -22.7350    2.3440 C.3   400  ADK400      0.2573
@<TRIPOS>BOND
     1     5     4    1
     2     5     6    2
     3     4     3    1
     4     7     6    1
     5     6     8    1
     6     3    11    1
     7     3     2    1
     8     8     2    1
     9     8     9    2
    10     2     1    2
    11     9    10    1
    12     1    10    1
