@<TRIPOS>MOLECULE
4aic_FOM_A_1.pdb
 11 10 0 0 0
SMALL
GASTEIGER

@<TRIPOS>ATOM
      1  O2        14.9760   -0.6280    0.6990 O.3   1390  FOM1390    -0.4195
      2  N1        13.8950   -0.8330    1.5470 N.am  1390  FOM1390    -0.2796
      3  C1        13.7260   -0.0730    2.6550 C.2   1390  FOM1390     0.1130
      4  O1        14.5240    0.8140    2.9110 O.2   1390  FOM1390    -0.5358
      5  C2        12.9730   -1.9090    1.2590 C.3   1390  FOM1390     0.0985
      6  C3        13.6960   -3.1290    1.8350 C.3   1390  FOM1390     0.0297
      7  C4        13.0980   -4.3880    1.2550 C.3   1390  FOM1390     0.0607
      8  PA1       14.2430   -5.7590    1.4220 P.3   1390  FOM1390     0.1172
      9  OP1       13.5150   -6.9880    0.9650 O.3   1390  FOM1390    -0.3571
     10  OP2       14.7040   -5.9530    2.8500 O.3   1390  FOM1390    -0.3571
     11  OP3       15.4500   -5.5190    0.5440 O.2   1390  FOM1390    -0.4601
@<TRIPOS>BOND
     1    11     8    2
     2     1     2    1
     3     9     8    1
     4     7     8    1
     5     7     6    1
     6     5     2    1
     7     5     6    1
     8     8    10    1
     9     2     3   am
    10     3     4    2
