@<TRIPOS>MOLECULE
4aic_NDP_A_1.pdb
 48 52 0 0 0
SMALL
GASTEIGER

@<TRIPOS>ATOM
      1  PA        10.7290    5.2130   -8.4880 P.3   1391  NDP1391     0.2189
      2  O1A       11.0350    4.4830   -9.7710 O.2   1391  NDP1391    -0.5170
      3  O2A        9.3980    5.1170   -7.7890 O.3   1391  NDP1391    -0.4371
      4  O5B       11.0170    6.7740   -8.7500 O.3   1391  NDP1391    -0.3112
      5  C5B       12.0420    7.1960   -9.6500 C.3   1391  NDP1391     0.1813
      6  C4B       11.9530    8.7110   -9.7960 C.3   1391  NDP1391     0.1820
      7  O4B       13.0590    9.1940  -10.5620 O.3   1391  NDP1391    -0.3136
      8  C3B       10.7060    9.1210  -10.5700 C.3   1391  NDP1391     0.2157
      9  O3B       10.2870   10.3840  -10.0580 O.3   1391  NDP1391    -0.2175
     10  C2B       11.1980    9.2680  -11.9970 C.3   1391  NDP1391     0.2314
     11  O2B       10.4630   10.1860  -12.7980 O.3   1391  NDP1391    -0.2630
     12  C1B       12.5800    9.8300  -11.7530 C.3   1391  NDP1391     0.3158
     13  N9A       13.5070    9.5570  -12.8620 N.pl3 1391  NDP1391    -0.1439
     14  C8A       13.6630    8.4070  -13.5550 C.3   1391  NDP1391     0.3377
     15  N7A       14.6460    8.5540  -14.4800 N.2   1391  NDP1391    -0.2095
     16  C5A       15.1140    9.8140  -14.3730 C.2   1391  NDP1391     0.2526
     17  C6A       16.1440   10.6350  -15.0440 C.2   1391  NDP1391     0.4393
     18  N6A       16.8850   10.1260  -16.0560 N.pl3 1391  NDP1391     0.2180
     19  N1A       16.3060   11.9020  -14.6120 N.2   1391  NDP1391     0.0021
     20  C2A       15.5800   12.4410  -13.6200 C.3   1391  NDP1391     0.5254
     21  N3A       14.6190   11.7570  -12.9750 N.2   1391  NDP1391    -0.0055
     22  C4A       14.3630   10.4660  -13.3020 C.2   1391  NDP1391     0.3518
     23  O3        11.9000    4.8020   -7.4550 O.3   1391  NDP1391    -0.2703
     24  PN        11.7530    4.8590   -5.8510 P.3   1391  NDP1391     0.2189
     25  O1N       11.1690    3.5470   -5.4000 O.2   1391  NDP1391    -0.5170
     26  O2N       11.1500    6.1660   -5.3660 O.3   1391  NDP1391    -0.4371
     27  O5D       13.3170    4.8310   -5.5030 O.3   1391  NDP1391    -0.3112
     28  C5D       14.1440    5.9880   -5.4400 C.3   1391  NDP1391     0.1813
     29  C4D       15.4040    5.5720   -4.6980 C.3   1391  NDP1391     0.1799
     30  O4D       15.0670    5.3210   -3.3330 O.3   1391  NDP1391    -0.3327
     31  C3D       15.9820    4.2830   -5.2670 C.3   1391  NDP1391     0.2158
     32  O3D       17.3890    4.4340   -5.4250 O.3   1391  NDP1391    -0.2175
     33  C2D       15.6790    3.2240   -4.2190 C.3   1391  NDP1391     0.2309
     34  O2D       16.7000    2.2260   -4.0860 O.3   1391  NDP1391    -0.2158
     35  C1D       15.5120    4.0240   -2.9360 C.3   1391  NDP1391     0.2261
     36  N1N       14.5720    3.3910   -2.0010 N.pl3 1391  NDP1391    -0.2831
     37  C2N       13.2610    3.2580   -2.3120 C.2   1391  NDP1391     0.0633
     38  C3N       12.3650    2.6700   -1.4180 C.2   1391  NDP1391     0.0490
     39  C7N       10.8890    2.6480   -1.6920 C.2   1391  NDP1391     0.2814
     40  O7N       10.1490    2.3650   -0.7620 O.2   1391  NDP1391    -0.2670
     41  N7N       10.4140    2.9260   -2.9150 N.am  1391  NDP1391    -0.0839
     42  C4N       12.8770    2.0310   -0.1380 C.3   1391  NDP1391     0.0341
     43  C5N       14.2110    2.5240    0.1910 C.3   1391  NDP1391     0.0264
     44  C6N       15.0630    2.9570   -0.8260 C.3   1391  NDP1391     0.0934
     45  P2B        9.3400    9.7110  -13.8440 P.3   1391  NDP1391     0.5328
     46  O1X        9.9190   10.0090  -15.1950 O.2   1391  NDP1391    -0.2224
     47  O2X        9.0910    8.2560  -13.5880 O.3   1391  NDP1391    -0.1145
     48  O3X        8.1470   10.5820  -13.5430 O.3   1391  NDP1391    -0.1145
@<TRIPOS>BOND
     1    18    17    1
     2    46    45    2
     3    17    19    2
     4    17    16    1
     5    19    20    1
     6    15    16    2
     7    15    14    1
     8    16    22    1
     9    45    47    1
    10    45    48    1
    11    45    11    1
    12    20    21    1
    13    14    13    1
    14    22    21    2
    15    22    13    1
    16    13    12    1
    17    11    10    1
    18    10    12    1
    19    10     8    1
    20    12     7    1
    21     8     9    1
    22     8     6    1
    23     7     6    1
    24     6     5    1
    25     2     1    2
    26     5     4    1
    27     4     1    1
    28     1     3    1
    29     1    23    1
    30    23    24    1
    31    24    27    1
    32    24    25    2
    33    24    26    1
    34    27    28    1
    35    28    29    1
    36    32    31    1
    37    31    29    1
    38    31    33    1
    39    29    30    1
    40    33    34    1
    41    33    35    1
    42    30    35    1
    43    35    36    1
    44    41    39   am
    45    37    36    1
    46    37    38    2
    47    36    44    1
    48    39    38    1
    49    39    40    2
    50    38    42    1
    51    44    43    1
    52    42    43    1
