@<TRIPOS>MOLECULE
4aid_III_H_1.pdb
 42 45 0 0 0
SMALL
GASTEIGER

@<TRIPOS>ATOM
      1  N         51.3920   67.3080  -74.1380 N.3   893  ARG893     -0.1231
      2  CA        49.9560   67.6800  -73.9760 C.3   893  ARG893      0.1694
      3  C         49.7620   68.6910  -72.8340 C.2   893  ARG893      0.2593
      4  O         48.7660   69.4290  -72.7940 O.2   893  ARG893     -0.2718
      5  CB        49.1080   66.4200  -73.7120 C.3   893  ARG893      0.0304
      6  N         50.7450   68.7410  -71.9340 N.am  894  GLY894     -0.1942
      7  CA        50.5410   69.2390  -70.5720 C.3   894  GLY894      0.2014
      8  C         50.0870   67.9880  -69.8450 C.2   894  GLY894      0.2639
      9  O         48.8910   67.8140  -69.5820 O.2   894  GLY894     -0.2714
     10  N         51.0540   67.1140  -69.5460 N.am  895  TRP895     -0.1959
     11  CA        50.8030   65.6840  -69.2370 C.3   895  TRP895      0.1771
     12  C         49.8650   65.4030  -68.1080 C.2   895  TRP895      0.2620
     13  O         49.1560   64.3980  -68.1440 O.2   895  TRP895     -0.2715
     14  CB        52.1080   64.8860  -69.0670 C.3   895  TRP895      0.0590
     15  CG        52.9350   64.8620  -70.3330 C.2   895  TRP895      0.0003
     16  CD1       54.1280   65.5440  -70.5880 C.2   895  TRP895      0.0946
     17  CD2       52.6240   64.1510  -71.5870 C.2   895  TRP895      0.0113
     18  NE1       54.5630   65.3020  -71.8670 N.2   895  TRP895     -0.2442
     19  CE2       53.7050   64.4760  -72.5210 C.2   895  TRP895      0.0804
     20  CE3       51.5900   63.3190  -72.0130 C.2   895  TRP895     -0.0202
     21  CZ2       53.7350   63.9640  -73.8170 C.2   895  TRP895      0.0148
     22  CZ3       51.6260   62.8120  -73.3180 C.3   895  TRP895      0.0521
     23  CH2       52.6770   63.1200  -74.1960 C.2   895  TRP895     -0.0199
     24  N         49.8370   66.2890  -67.1110 N.am  896  TRP896     -0.1960
     25  CA        48.9510   66.1300  -65.9550 C.3   896  TRP896      0.1771
     26  C         47.4920   66.3840  -66.2640 C.2   896  TRP896      0.2619
     27  O         46.6220   65.6810  -65.7560 O.2   896  TRP896     -0.2715
     28  CB        49.4590   66.9320  -64.7500 C.3   896  TRP896      0.0590
     29  CG        49.4880   68.4490  -64.8880 C.2   896  TRP896      0.0003
     30  CD1       48.6460   69.3670  -64.2620 C.2   896  TRP896      0.0946
     31  CD2       50.4410   69.2820  -65.6620 C.2   896  TRP896      0.0113
     32  NE1       48.9780   70.6550  -64.6050 N.2   896  TRP896     -0.2442
     33  CE2       50.0410   70.6790  -65.4380 C.2   896  TRP896      0.0804
     34  CE3       51.5240   69.0210  -66.5000 C.2   896  TRP896     -0.0202
     35  CZ2       50.7110   71.7460  -66.0310 C.2   896  TRP896      0.0148
     36  CZ3       52.1880   70.1100  -67.0920 C.3   896  TRP896      0.0521
     37  CH2       51.7880   71.4360  -66.8580 C.2   896  TRP896     -0.0199
     38  N         47.2250   67.3540  -67.1330 N.am  897  ARG897     -0.1977
     39  CA        45.8700   67.6970  -67.5620 C.3   897  ARG897      0.1597
     40  C         45.2060   66.5820  -68.4110 C.2   897  ARG897      0.2287
     41  O         45.4170   66.4500  -69.6310 O.2   897  ARG897     -0.2864
     42  CB        45.8670   69.0550  -68.2970 C.3   897  ARG897      0.0319
@<TRIPOS>BOND
     1    23    21    2
     2    23    22    1
     3     1     2    1
     4     2     5    1
     5     2     3    1
     6    21    19    1
     7    22    20    1
     8     3     4    2
     9     3     6   am
    10    19    18    2
    11    19    17    1
    12    20    17    2
    13     6     7    1
    14    18    16    1
    15    17    15    1
    16    16    15    2
    17     7     8    1
    18    15    14    1
    19     8     9    2
    20     8    10   am
    21    41    40    2
    22    10    11    1
    23    11    14    1
    24    11    12    1
    25    40    39    1
    26    42    39    1
    27    13    12    2
    28    12    24   am
    29    39    38    1
    30    38    26   am
    31    24    25    1
    32    36    37    1
    33    36    34    1
    34    37    35    2
    35    34    31    2
    36    26    25    1
    37    26    27    2
    38    35    33    1
    39    25    28    1
    40    31    33    1
    41    31    29    1
    42    33    32    2
    43    29    28    1
    44    29    30    2
    45    32    30    1
