@<TRIPOS>MOLECULE
4aif_III_E_1.pdb
 49 48 0 0 0
SMALL
GASTEIGER

@<TRIPOS>ATOM
      1  N         24.9060   29.7260   24.7800 N.3     1  SER1       -0.1202
      2  CA        25.9310   30.6730   24.3460 C.3     1  SER1        0.2020
      3  C         27.3190   30.3010   24.8800 C.2     1  SER1        0.2619
      4  O         28.3010   30.3030   24.1340 O.2     1  SER1       -0.2717
      5  CB        25.5600   32.1050   24.7540 C.3     1  SER1        0.2103
      6  OG        24.4000   32.5540   24.0690 O.3     1  SER1       -0.2182
      7  N         27.3980   29.9830   26.1700 N.am    2  ARG2       -0.1965
      8  CA        28.6630   29.5680   26.7670 C.3     2  ARG2        0.1728
      9  C         29.1630   28.2770   26.1290 C.2     2  ARG2        0.2616
     10  O         28.4320   27.6020   25.3970 O.2     2  ARG2       -0.2715
     11  CB        28.5220   29.3830   28.2810 C.3     2  ARG2        0.0334
     12  N         30.4120   27.9370   26.4170 N.am    3  MET3       -0.1963
     13  CA        31.0090   26.7170   25.8990 C.3     3  MET3        0.1736
     14  C         30.2910   25.4450   26.3760 C.2     3  MET3        0.2616
     15  O         30.3330   24.4240   25.7020 O.2     3  MET3       -0.2715
     16  CB        32.5020   26.6560   26.2550 C.3     3  MET3        0.0427
     17  CG        33.3740   27.6450   25.4770 C.3     3  MET3        0.0599
     18  SD        33.3360   27.4030   23.6890 S.3     3  MET3       -0.1393
     19  CE        32.0560   28.5650   23.1970 C.3     3  MET3        0.0692
     20  N         29.6320   25.5020   27.5290 N.am    4  GLU4       -0.1963
     21  CA        28.9840   24.3080   28.0640 C.3     4  GLU4        0.1728
     22  C         27.4940   24.2060   27.7030 C.2     4  GLU4        0.2616
     23  O         26.8270   23.2290   28.0490 O.2     4  GLU4       -0.2715
     24  CB        29.1860   24.2130   29.5800 C.3     4  GLU4        0.0334
     25  N         26.9740   25.2110   27.0060 N.am    5  GLU5       -0.1963
     26  CA        25.5770   25.2000   26.6070 C.3     5  GLU5        0.1733
     27  C         25.3900   24.5110   25.2570 C.2     5  GLU5        0.2616
     28  O         26.2520   24.5860   24.3780 O.2     5  GLU5       -0.2715
     29  CB        25.0090   26.6200   26.5570 C.3     5  GLU5        0.0429
     30  CG        24.1930   26.9040   25.2980 C.3     5  GLU5        0.1163
     31  CD        22.8790   27.6360   25.5730 C.2     5  GLU5        0.3649
     32  OE1       22.4340   27.6600   26.7430 O.co2   5  GLU5       -0.2457
     33  OE2       22.2850   28.1770   24.6090 O.co2   5  GLU5       -0.2457
     34  N         24.2560   23.8380   25.0970 N.am    6  VAL6       -0.1963
     35  CA        23.9340   23.1920   23.8310 C.3     6  VAL6        0.1727
     36  C         23.2330   24.1780   22.8940 C.2     6  VAL6        0.2617
     37  O         22.5160   25.0680   23.3440 O.2     6  VAL6       -0.2715
     38  CB        23.0600   21.9540   24.0560 C.3     6  VAL6        0.0290
     39  CG1       23.8650   20.8760   24.7890 C.3     6  VAL6        0.0023
     40  CG2       21.8040   22.3300   24.8450 C.3     6  VAL6        0.0023
     41  N         23.4520   24.0040   21.5930 N.am    7  ASP7       -0.1936
     42  CA        22.9350   24.9080   20.5670 C.3     7  ASP7        0.2090
     43  C         21.7070   24.3570   19.8500 C.2     7  ASP7        0.3848
     44  O         21.3630   23.1800   19.9500 O.co2   7  ASP7       -0.2437
     45  CB        24.0200   25.1940   19.5310 C.3     7  ASP7        0.1472
     46  CG        25.1920   25.9500   20.1160 C.2     7  ASP7        0.3672
     47  OD1       24.9590   26.9820   20.7800 O.co2   7  ASP7       -0.2456
     48  OD2       26.3420   25.5060   19.9220 O.co2   7  ASP7       -0.2456
     49  OXT       21.0360   25.0960   19.1290 O.co2   7  ASP7       -0.2437
@<TRIPOS>BOND
     1    49    43   ar
     2    45    46    1
     3    45    42    1
     4    43    44   ar
     5    43    42    1
     6    48    46   ar
     7    46    47   ar
     8    42    41    1
     9    41    36   am
    10    36    37    2
    11    36    35    1
    12    19    18    1
    13    18    17    1
    14    35    38    1
    15    35    34    1
    16    38    39    1
    17    38    40    1
    18     6     5    1
    19     4     3    2
    20     2     5    1
    21     2     1    1
    22     2     3    1
    23    28    27    2
    24    33    31   ar
    25     3     7   am
    26    34    27   am
    27    27    26    1
    28    30    31    1
    29    30    29    1
    30    10     9    2
    31    17    16    1
    32    31    32   ar
    33    15    14    2
    34    13    16    1
    35    13    14    1
    36    13    12    1
    37     9    12   am
    38     9     8    1
    39     7     8    1
    40    14    20   am
    41    29    26    1
    42    26    25    1
    43     8    11    1
    44    25    22   am
    45    20    21    1
    46    22    23    2
    47    22    21    1
    48    21    24    1
