@<TRIPOS>MOLECULE
4aii_GDP_A_1.pdb
 28 30 0 0 0
SMALL
GASTEIGER

@<TRIPOS>ATOM
      1  PB        -8.5550   -4.7570   10.9390 P.3   1284  GDP1284     0.5373
      2  O1B       -8.3810   -5.2730   12.3370 O.3   1284  GDP1284    -0.1143
      3  O2B       -7.3740   -3.8630   10.6790 O.2   1284  GDP1284    -0.2221
      4  O3B       -9.8920   -4.0900   10.7340 O.3   1284  GDP1284    -0.1143
      5  O3A       -8.4450   -5.9080    9.8110 O.3   1284  GDP1284    -0.2261
      6  PA        -8.4010   -7.4930   10.1110 P.3   1284  GDP1284     0.2231
      7  O1A       -9.6560   -7.7290   10.9350 O.3   1284  GDP1284    -0.4370
      8  O2A       -7.0950   -7.8680   10.7900 O.2   1284  GDP1284    -0.5169
      9  O5'       -8.5640   -8.1000    8.6350 O.3   1284  GDP1284    -0.3111
     10  C5'       -9.8120   -7.8490    7.9760 C.3   1284  GDP1284     0.1813
     11  C4'      -10.1570   -8.8960    6.9080 C.3   1284  GDP1284     0.1799
     12  O4'       -9.2280   -8.8940    5.7920 O.3   1284  GDP1284    -0.3326
     13  C3'      -10.1280  -10.3080    7.4600 C.3   1284  GDP1284     0.2158
     14  O3'      -11.0560  -11.0330    6.6520 O.3   1284  GDP1284    -0.2175
     15  C2'       -8.7350  -10.7910    7.1120 C.3   1284  GDP1284     0.2310
     16  O2'       -8.5710  -12.2110    7.0060 O.3   1284  GDP1284    -0.2158
     17  C1'       -8.5070  -10.1360    5.7560 C.3   1284  GDP1284     0.2293
     18  N9        -7.0640   -9.9170    5.5040 N.pl3 1284  GDP1284    -0.2354
     19  C8        -6.1560   -9.3680    6.3390 C.3   1284  GDP1284     0.2246
     20  N7        -4.9340   -9.3610    5.7560 N.2   1284  GDP1284    -0.2322
     21  C5        -5.0580   -9.9060    4.5360 C.2   1284  GDP1284     0.2182
     22  C6        -4.1640  -10.1860    3.4110 C.1   1284  GDP1284     0.2372
     23  O6        -2.9430   -9.8960    3.4670 O.2   1284  GDP1284    -0.2069
     24  N1        -4.6910  -10.7910    2.3400 N.2   1284  GDP1284    -0.2485
     25  C2        -5.9880  -11.1380    2.2460 C.1   1284  GDP1284     0.2531
     26  N2        -6.4230  -11.7410    1.1170 N.pl3 1284  GDP1284    -0.0226
     27  N3        -6.8750  -10.9050    3.2320 N.2   1284  GDP1284    -0.3074
     28  C4        -6.4570  -10.2980    4.3790 C.2   1284  GDP1284     0.2300
@<TRIPOS>BOND
     1    26    25    1
     2    25    24    2
     3    25    27    2
     4    24    22    2
     5    27    28    2
     6    22    23    2
     7    22    21    1
     8    28    21    1
     9    28    18    1
    10    21    20    2
    11    18    17    1
    12    18    19    1
    13    20    19    1
    14    17    12    1
    15    17    15    1
    16    12    11    1
    17    14    13    1
    18    11    13    1
    19    11    10    1
    20    16    15    1
    21    15    13    1
    22    10     9    1
    23     9     6    1
    24     5     6    1
    25     5     1    1
    26     6     8    2
    27     6     7    1
    28     3     1    2
    29     4     1    1
    30     1     2    1
