@<TRIPOS>MOLECULE
4aip_GLU_A_1.pdb
 10 9 0 0 0
SMALL
GASTEIGER

@<TRIPOS>ATOM
      1  N        -32.3850   25.9110  -32.3530 N.3   1744  GLU1744    -0.1208
      2  CA       -31.9940   26.3640  -33.7050 C.3   1744  GLU1744     0.1949
      3  C        -33.2230   26.1810  -34.6020 C.2   1744  GLU1744     0.3819
      4  O        -34.3840   25.9590  -34.1440 O.co2 1744  GLU1744    -0.2441
      5  CB       -30.7040   25.6870  -34.1770 C.3   1744  GLU1744     0.0424
      6  CG       -29.6880   25.5590  -33.0160 C.3   1744  GLU1744     0.1161
      7  CD       -28.2120   25.6490  -33.4080 C.2   1744  GLU1744     0.3649
      8  OE1      -27.8740   26.2580  -34.3970 O.co2 1744  GLU1744    -0.2457
      9  OE2      -27.3780   25.1000  -32.6780 O.co2 1744  GLU1744    -0.2457
     10  OXT      -33.1090   26.3440  -35.8040 O.co2 1744  GLU1744    -0.2441
@<TRIPOS>BOND
     1    10     3   ar
     2     3     4   ar
     3     3     2    1
     4     8     7   ar
     5     5     2    1
     6     5     6    1
     7     2     1    1
     8     7     6    1
     9     7     9   ar
