@<TRIPOS>MOLECULE
4air_FGA_A_4.pdb
 10 9 0 0 0
SMALL
GASTEIGER

@<TRIPOS>ATOM
      1  N          6.8000   -8.3380    5.1080 N.3   1331  FGA1331    -0.1208
      2  CA         6.8200   -8.1300    3.6570 C.3   1331  FGA1331     0.1949
      3  C          7.2970   -6.7600    3.2460 C.2   1331  FGA1331     0.3819
      4  O          7.0180   -6.2830    2.1030 O.co2 1331  FGA1331    -0.2441
      5  CB         7.7300   -9.1770    3.0240 C.3   1331  FGA1331     0.0424
      6  CG         6.9980  -10.5150    2.8660 C.3   1331  FGA1331     0.1161
      7  CD         6.9940  -10.9060    1.4040 C.2   1331  FGA1331     0.3649
      8  OE1        6.1180  -10.3790    0.6690 O.co2 1331  FGA1331    -0.2457
      9  OE2        7.8710  -11.7240    1.0000 O.co2 1331  FGA1331    -0.2457
     10  OXT        7.9760   -6.1310    4.0940 O.co2 1331  FGA1331    -0.2441
@<TRIPOS>BOND
     1     8     7   ar
     2     9     7   ar
     3     7     6    1
     4     4     3   ar
     5     6     5    1
     6     5     2    1
     7     3     2    1
     8     3    10   ar
     9     2     1    1
