@<TRIPOS>MOLECULE
4aiu_GC3_A_1.pdb
 15 16 0 0 0
SMALL
GASTEIGER

@<TRIPOS>ATOM
      1  C1        -8.1390  -10.4790    8.7490 C.3   1589  GC31589     0.3145
      2  C2        -8.5860  -11.8430    9.3080 C.3   1589  GC31589     0.2086
      3  C3        -9.4460  -11.6550   10.5820 C.3   1589  GC31589     0.2132
      4  C4        -8.8450  -10.6700   11.5910 C.3   1589  GC31589     0.2139
      5  C5        -8.6510   -9.3430   10.8870 C.3   1589  GC31589     0.1845
      6  C6        -8.0370   -8.3120   11.8620 C.3   1589  GC31589     0.2142
      7  C7        -9.9360  -11.1830    7.5630 C.2   1589  GC31589     0.2324
      8  C8       -11.0840  -11.1410    6.5630 C.3   1589  GC31589     0.2657
      9  N2        -9.4590  -12.2700    8.1990 N.2   1589  GC31589    -0.2321
     10  O1        -9.2300   -9.9910    7.9410 O.2   1589  GC31589    -0.4358
     11  O3        -9.6250  -12.8860   11.2620 O.3   1589  GC31589    -0.2180
     12  O4        -9.6560  -10.4750   12.7720 O.3   1589  GC31589    -0.2176
     13  O5        -7.7780   -9.5060    9.7430 O.3   1589  GC31589    -0.3161
     14  O6        -6.6790   -8.6880   12.0950 O.3   1589  GC31589    -0.2176
     15  O10      -11.4600  -12.4480    6.1760 O.3   1589  GC31589    -0.2098
@<TRIPOS>BOND
     1    15     8    1
     2     8     7    1
     3     7    10    1
     4     7     9    2
     5    10     1    1
     6     9     2    1
     7     1     2    1
     8     1    13    1
     9     2     3    1
    10    13     5    1
    11     3    11    1
    12     3     4    1
    13     5     4    1
    14     5     6    1
    15     4    12    1
    16     6    14    1
