@<TRIPOS>MOLECULE
4aiy_IPH_A_1.pdb
 13 13 0 0 0
SMALL
GASTEIGER

@<TRIPOS>ATOM
      1  C1        -8.6840    8.3740    7.6350 C.ar   22  IPH22       0.1169
      2  C2        -7.9910    7.4220    8.4880 C.ar   22  IPH22      -0.0202
      3  C3        -7.3820    6.2370    7.9080 C.ar   22  IPH22      -0.0583
      4  C4        -7.4650    6.0020    6.4750 C.ar   22  IPH22      -0.0615
      5  C5        -8.1570    6.9520    5.6210 C.ar   22  IPH22      -0.0583
      6  C6        -8.7670    8.1400    6.2000 C.ar   22  IPH22      -0.0202
      7  O1        -9.2640    9.4990    8.1860 O.3    22  IPH22      -0.5068
      8  H2        -7.9270    7.5960    9.5510 H      22  IPH22       0.0654
      9  H3        -6.8680    5.5290    8.5420 H      22  IPH22       0.0619
     10  H4        -7.0120    5.1210    6.0460 H      22  IPH22       0.0618
     11  H5        -8.2170    6.7760    4.5600 H      22  IPH22       0.0619
     12  H6        -9.2820    8.8470    5.5660 H      22  IPH22       0.0654
     13  HO1      -10.1950    9.5000    7.9500 H      22  IPH22       0.2921
@<TRIPOS>BOND
     1    11     5    1
     2    12     6    1
     3     5     6   ar
     4     5     4   ar
     5    10     4    1
     6     6     1   ar
     7     4     3   ar
     8     1     7    1
     9     1     2   ar
    10     3     2   ar
    11     3     9    1
    12    13     7    1
    13     2     8    1
