@<TRIPOS>MOLECULE
4aiz_88Q_D_1.pdb
 18 19 0 0 0
SMALL
GASTEIGER

@<TRIPOS>ATOM
      1  O5        21.0150  -12.6070  -31.6040 O.3   1109  88Q1109    -0.2176
      2  C11       20.2090  -11.8790  -30.7050 C.3   1109  88Q1109     0.2147
      3  C10       21.0630  -11.3790  -29.5600 C.3   1109  88Q1109     0.1841
      4  C9        20.1450  -10.7560  -28.5310 C.3   1109  88Q1109     0.0382
      5  C8        20.9490  -10.3680  -27.3330 C.3   1109  88Q1109     0.0348
      6  O4        22.0390  -10.4510  -30.0220 O.3   1109  88Q1109    -0.2204
      7  C12       21.6970  -12.5190  -29.0330 C.3   1109  88Q1109     0.1749
      8  O6        22.6090  -12.2880  -28.0330 O.3   1109  88Q1109    -0.3511
      9  C7        22.3150  -11.0390  -27.3280 C.3   1109  88Q1109     0.1424
     10  C5        22.3160  -11.5330  -25.9690 C.3   1109  88Q1109     0.1424
     11  O3        22.5470  -10.3360  -25.3570 O.3   1109  88Q1109    -0.3511
     12  C6        21.6610   -9.9620  -24.3680 C.3   1109  88Q1109     0.1749
     13  C4        20.9570  -12.2400  -25.9980 C.3   1109  88Q1109     0.0348
     14  C3        20.0950  -11.7870  -24.8660 C.3   1109  88Q1109     0.0382
     15  C2        20.9760  -11.1810  -23.8050 C.3   1109  88Q1109     0.1841
     16  O2        21.9410  -12.1190  -23.3450 O.3   1109  88Q1109    -0.2204
     17  C1        20.0980  -10.7160  -22.6760 C.3   1109  88Q1109     0.2147
     18  O1        20.9030  -10.0200  -21.7560 O.3   1109  88Q1109    -0.2176
@<TRIPOS>BOND
     1     1     2    1
     2     2     3    1
     3     6     3    1
     4     3     7    1
     5     3     4    1
     6     7     8    1
     7     4     5    1
     8     8     9    1
     9     5     9    1
    10     9    10    1
    11    13    10    1
    12    13    14    1
    13    10    11    1
    14    11    12    1
    15    14    15    1
    16    12    15    1
    17    15    16    1
    18    15    17    1
    19    17    18    1
