@<TRIPOS>MOLECULE
4aj1_AJ1_A_1.pdb
 15 16 0 0 0
SMALL
GASTEIGER

@<TRIPOS>ATOM
      1  C1        16.2620   -7.0320    2.8090 C.3   1333  AJ11333     0.0968
      2  C2        17.3180   -7.1970    1.7360 C.2   1333  AJ11333     0.2461
      3  O3        17.4300   -8.2210    1.0580 O.2   1333  AJ11333    -0.2730
      4  N4        18.1550   -6.1210    1.5830 N.am  1333  AJ11333    -0.1795
      5  C5        19.4650   -6.1310    1.0090 C.2   1333  AJ11333     0.0704
      6  C6        20.5500   -5.5310    1.6600 C.2   1333  AJ11333     0.0186
      7  C7        21.8110   -5.5480    1.0890 C.2   1333  AJ11333     0.0302
      8  C8        22.0300   -6.1640   -0.1350 C.2   1333  AJ11333     0.1255
      9  C9        20.9340   -6.7580   -0.7670 C.3   1333  AJ11333     0.1308
     10  C10       19.6630   -6.7430   -0.2070 C.2   1333  AJ11333     0.0084
     11  S11       21.4220   -7.4670   -2.2850 S.3   1333  AJ11333    -0.0548
     12  C12       23.0680   -6.9040   -1.9670 C.2   1333  AJ11333     0.2267
     13  N13       23.2370   -6.2650   -0.8380 N.2   1333  AJ11333    -0.3826
     14  N14       24.0810   -7.1390   -2.8410 N.pl3 1333  AJ11333    -0.2025
     15  C15       23.9560   -7.9510   -4.0550 C.3   1333  AJ11333     0.1387
@<TRIPOS>BOND
     1    15    14    1
     2    14    12    1
     3    11    12    1
     4    11     9    1
     5    12    13    2
     6    13     8    2
     7     9    10    1
     8     9     8    1
     9    10     5    2
    10     8     7    1
    11     5     4    1
    12     5     6    1
    13     3     2    2
    14     7     6    2
    15     4     2   am
    16     2     1    1
