@<TRIPOS>MOLECULE
4aj2_52C_A_1.pdb
 12 13 0 0 0
SMALL
GASTEIGER

@<TRIPOS>ATOM
      1  C1        21.9880   -7.4010   -1.6390 C.ar  1333  52C1333     0.0007
      2  C2        21.2130   -6.8870   -0.6230 C.ar  1333  52C1333     0.0009
      3  C3        21.7390   -5.9360    0.2390 C.ar  1333  52C1333     0.0121
      4  C4        23.0510   -5.5100    0.0680 C.ar  1333  52C1333     0.0671
      5  C5        23.8560   -6.0200   -0.9520 C.ar  1333  52C1333     0.0764
      6  C6        23.3050   -6.9740   -1.8100 C.ar  1333  52C1333     0.0110
      7  C7        25.2520   -5.6040   -1.1760 C.1   1333  52C1333     0.0814
      8  N8        26.1390   -5.2520   -0.2570 N.2   1333  52C1333    -0.0711
      9  N9        27.2870   -4.9630   -0.9280 N.2   1333  52C1333    -0.0129
     10  N10       27.1230   -5.1230   -2.2000 N.2   1333  52C1333    -0.0129
     11  N11       25.8490   -5.5280   -2.3730 N.2   1333  52C1333    -0.0711
     12 CL1        23.6430   -4.3140    1.1810 Cl    1333  52C1333    -0.0815
@<TRIPOS>BOND
     1    11    10    1
     2    11     7    2
     3    10     9    2
     4     6     1   ar
     5     6     5   ar
     6     1     2   ar
     7     7     5    1
     8     7     8    2
     9     5     4   ar
    10     9     8    1
    11     2     3   ar
    12     4     3   ar
    13     4    12    1
