@<TRIPOS>MOLECULE
4aj3_ICT_A_1.pdb
 13 12 0 0 0
SMALL
GASTEIGER

@<TRIPOS>ATOM
      1  C1       -38.5360  -21.4980   -4.6260 C.2   1418  ICT1418     0.3952
      2  O1       -39.2080  -21.0280   -5.5660 O.co2 1418  ICT1418    -0.2428
      3  O2       -37.3910  -21.9730   -4.8080 O.co2 1418  ICT1418    -0.2428
      4  C2       -39.1400  -21.4710   -3.2450 C.3   1418  ICT1418     0.2651
      5  O7       -38.2530  -22.0630   -2.2940 O.3   1418  ICT1418    -0.2103
      6  C3       -40.4140  -22.2840   -3.2280 C.3   1418  ICT1418     0.1561
      7  C4       -41.0420  -22.2180   -1.8330 C.3   1418  ICT1418     0.1285
      8  C5       -42.5460  -22.0350   -1.8510 C.2   1418  ICT1418     0.3655
      9  O3       -43.0880  -21.4760   -0.8800 O.co2 1418  ICT1418    -0.2456
     10  O4       -43.2140  -22.4690   -2.8120 O.co2 1418  ICT1418    -0.2456
     11  C6       -39.8830  -23.6350   -3.6010 C.2   1418  ICT1418     0.3680
     12  O5       -39.6640  -24.4860   -2.7040 O.co2 1418  ICT1418    -0.2455
     13  O6       -39.6270  -23.8320   -4.8130 O.co2 1418  ICT1418    -0.2455
@<TRIPOS>BOND
     1     2     1   ar
     2    13    11   ar
     3     3     1   ar
     4     1     4    1
     5    11     6    1
     6    11    12   ar
     7     4     6    1
     8     4     5    1
     9     6     7    1
    10    10     8   ar
    11     8     7    1
    12     8     9   ar
