@<TRIPOS>MOLECULE
4aj3_NAP_A_1.pdb
 48 52 0 0 0
SMALL
GASTEIGER

@<TRIPOS>ATOM
      1  PA       -37.2190  -15.4100    1.8210 P.3   1417  NAP1417     0.2189
      2  O1A      -36.5630  -15.5210    0.4860 O.2   1417  NAP1417    -0.5170
      3  O2A      -38.6630  -14.7260    1.8030 O.3   1417  NAP1417    -0.4371
      4  O5B      -36.2380  -14.6300    2.8330 O.3   1417  NAP1417    -0.3112
      5  C5B      -34.9910  -15.2270    3.1960 C.3   1417  NAP1417     0.1813
      6  C4B      -33.9270  -14.1430    3.3370 C.3   1417  NAP1417     0.1820
      7  O4B      -33.3780  -13.8800    2.0420 O.3   1417  NAP1417    -0.3136
      8  C3B      -34.4370  -12.7740    3.7720 C.3   1417  NAP1417     0.2157
      9  O3B      -34.6240  -12.6660    5.1890 O.3   1417  NAP1417    -0.2175
     10  C2B      -33.3060  -11.8890    3.2730 C.3   1417  NAP1417     0.2314
     11  O2B      -32.1180  -12.1710    4.0020 O.3   1417  NAP1417    -0.2630
     12  C1B      -33.0180  -12.4970    1.9320 C.3   1417  NAP1417     0.3158
     13  N9A      -33.8800  -11.8900    0.8930 N.pl3 1417  NAP1417    -0.1439
     14  C8A      -35.0270  -12.4150    0.4180 C.3   1417  NAP1417     0.3377
     15  N7A      -35.5690  -11.6050   -0.5260 N.2   1417  NAP1417    -0.2095
     16  C5A      -34.7470  -10.5420   -0.6530 C.2   1417  NAP1417     0.2526
     17  C6A      -34.7130   -9.3130   -1.4720 C.2   1417  NAP1417     0.4393
     18  N6A      -35.6860   -9.0560   -2.3700 N.pl3 1417  NAP1417     0.2180
     19  N1A      -33.6820   -8.4560   -1.2820 N.2   1417  NAP1417     0.0021
     20  C2A      -32.6910   -8.7030   -0.3980 C.3   1417  NAP1417     0.5254
     21  N3A      -32.6530   -9.8040    0.3670 N.2   1417  NAP1417    -0.0055
     22  C4A      -33.6410  -10.7330    0.2870 C.2   1417  NAP1417     0.3518
     23  O3       -37.2830  -16.9000    2.4090 O.3   1417  NAP1417    -0.2703
     24  PN       -37.9330  -17.3520    3.8110 P.3   1417  NAP1417     0.2189
     25  O1N      -37.8800  -16.2850    4.8420 O.3   1417  NAP1417    -0.4371
     26  O2N      -37.1660  -18.6900    4.2340 O.2   1417  NAP1417    -0.5170
     27  O5D      -39.4250  -17.7240    3.3630 O.3   1417  NAP1417    -0.3112
     28  C5D      -40.4860  -16.7870    3.5560 C.3   1417  NAP1417     0.1813
     29  C4D      -41.7000  -17.2480    2.7480 C.3   1417  NAP1417     0.1799
     30  O4D      -41.4630  -17.0800    1.3370 O.3   1417  NAP1417    -0.3327
     31  C3D      -42.0540  -18.7190    2.9620 C.3   1417  NAP1417     0.2158
     32  O3D      -43.4660  -18.8250    3.1530 O.3   1417  NAP1417    -0.2175
     33  C2D      -41.6920  -19.3980    1.6520 C.3   1417  NAP1417     0.2309
     34  O2D      -42.6030  -20.4590    1.3510 O.3   1417  NAP1417    -0.2158
     35  C1D      -41.8240  -18.2710    0.6380 C.3   1417  NAP1417     0.2263
     36  N1N      -40.9730  -18.4020   -0.5430 N.pl3 1417  NAP1417    -0.2787
     37  C2N      -41.5800  -18.2060   -1.7220 C.3   1417  NAP1417     0.1244
     38  C3N      -40.8770  -18.2650   -2.9080 C.2   1417  NAP1417     0.0544
     39  C7N      -41.6220  -18.0380   -4.2020 C.2   1417  NAP1417     0.2818
     40  O7N      -42.6390  -17.3390   -4.2170 O.2   1417  NAP1417    -0.2670
     41  N7N      -41.1460  -18.6000   -5.3030 N.am  1417  NAP1417    -0.0839
     42  C4N      -39.5070  -18.5490   -2.8690 C.2   1417  NAP1417     0.0033
     43  C5N      -38.8880  -18.7530   -1.6320 C.2   1417  NAP1417     0.0157
     44  C6N      -39.6510  -18.6650   -0.4650 C.2   1417  NAP1417     0.0633
     45  P2B      -31.6010  -11.3240    5.2830 P.3   1417  NAP1417     0.5328
     46  O1X      -32.8610  -11.0290    6.2260 O.3   1417  NAP1417    -0.1145
     47  O2X      -30.9160   -9.9630    4.7950 O.2   1417  NAP1417    -0.2224
     48  O3X      -30.5780  -12.1760    5.9320 O.3   1417  NAP1417    -0.1145
@<TRIPOS>BOND
     1    41    39   am
     2    40    39    2
     3    39    38    1
     4    38    42    2
     5    38    37    1
     6    42    43    1
     7    18    17    1
     8    37    36    1
     9    43    44    2
    10    17    19    2
    11    17    16    1
    12    19    20    1
    13    16    15    2
    14    16    22    1
    15    36    44    1
    16    36    35    1
    17    15    14    1
    18    20    21    1
    19    22    21    2
    20    22    13    1
    21    14    13    1
    22     2     1    2
    23    35    30    1
    24    35    33    1
    25    13    12    1
    26    30    29    1
    27    34    33    1
    28    33    31    1
    29     3     1    1
    30     1    23    1
    31     1     4    1
    32    12     7    1
    33    12    10    1
    34     7     6    1
    35    23    24    1
    36    29    31    1
    37    29    28    1
    38     4     5    1
    39    31    32    1
    40     5     6    1
    41    10     8    1
    42    10    11    1
    43     6     8    1
    44    27    28    1
    45    27    24    1
    46     8     9    1
    47    24    26    2
    48    24    25    1
    49    11    45    1
    50    47    45    2
    51    45    48    1
    52    45    46    1
