@<TRIPOS>MOLECULE
4aj4_VAB_A_1.pdb
 21 22 0 0 0
SMALL
GASTEIGER

@<TRIPOS>ATOM
      1  C8        21.7770   -5.4960    1.0500 C.2   1333  VAB1333     0.0301
      2  C9        20.4890   -5.5500    1.5650 C.2   1333  VAB1333     0.0022
      3  C11       19.7700   -6.8820   -0.3270 C.2   1333  VAB1333     0.0086
      4  C7        22.0780   -6.1340   -0.1540 C.2   1333  VAB1333     0.1382
      5  C10       19.4800   -6.2330    0.8880 C.3   1333  VAB1333     0.1399
      6  C12       21.0620   -6.8230   -0.8200 C.2   1333  VAB1333     0.0596
      7  C5        23.2510   -6.8320   -1.8730 C.2   1333  VAB1333     0.1873
      8  C1        24.0660   -6.9220   -6.8160 C.2   1333  VAB1333    -0.0040
      9  C2        23.9170   -6.6530   -5.5830 C.2   1333  VAB1333    -0.0140
     10  C15       17.2360   -7.2470    1.3080 C.2   1333  VAB1333     0.2425
     11  C19       13.7820   -7.9960    2.5650 C.2   1333  VAB1333     0.3654
     12  C3        23.9500   -7.6870   -4.4920 C.3   1333  VAB1333     0.0911
     13  C17       15.8260   -6.8180    1.5640 C.3   1333  VAB1333     0.0986
     14  C18       15.2080   -7.5710    2.7440 C.3   1333  VAB1333     0.1237
     15  N6        23.3210   -6.1620   -0.7800 N.2   1333  VAB1333    -0.3886
     16  N14       18.1690   -6.2600    1.4560 N.am  1333  VAB1333    -0.1981
     17  O16       17.5250   -8.4130    0.9830 O.2   1333  VAB1333    -0.2733
     18  O20       13.0470   -7.5680    1.6790 O.co2 1333  VAB1333    -0.2456
     19  O21       13.3880   -8.8580    3.4650 O.co2 1333  VAB1333    -0.2456
     20  S13       21.6920   -7.5170   -2.2810 S.3   1333  VAB1333    -0.0468
     21  S4        24.6380   -7.0820   -2.9020 S.3   1333  VAB1333    -0.0710
@<TRIPOS>BOND
     1     8     9    2
     2     9    12    1
     3    12    21    1
     4    21     7    1
     5    20     7    1
     6    20     6    1
     7     7    15    2
     8     6     3    2
     9     6     4    1
    10    15     4    2
    11     3     5    1
    12     4     1    1
    13     5    16    1
    14     5     2    1
    15    17    10    2
    16     1     2    2
    17    10    16   am
    18    10    13    1
    19    13    14    1
    20    18    11   ar
    21    11    14    1
    22    11    19   ar
