@<TRIPOS>MOLECULE
4aj9_HEM_A_1.pdb
 43 50 0 0 0
SMALL
GASTEIGER

@<TRIPOS>ATOM
      1  CHA      -17.1330   -8.7090   69.9020 C.2   1715  HEM1715     0.0000
      2  CHB      -19.0800  -10.7710   73.8630 C.2   1715  HEM1715     0.0000
      3  CHC      -16.5250  -14.8320   73.0830 C.2   1715  HEM1715     0.0000
      4  CHD      -13.9820  -12.4700   69.6810 C.2   1715  HEM1715     0.0000
      5  C1A      -17.9170   -8.9270   71.0200 C.2   1715  HEM1715     0.0000
      6  C2A      -18.8880   -8.0110   71.5810 C.2   1715  HEM1715     0.0000
      7  C3A      -19.4260   -8.5910   72.6690 C.2   1715  HEM1715     0.0000
      8  C4A      -18.8000   -9.8850   72.8370 C.2   1715  HEM1715     0.0000
      9  CMA      -20.5170   -8.0020   73.5910 C.3   1715  HEM1715     0.0000
     10  CAA      -19.2770   -6.6430   70.9970 C.3   1715  HEM1715     0.0000
     11  CBA      -18.6270   -5.4670   71.7330 C.3   1715  HEM1715     0.0000
     12  CGA      -19.1250   -4.2380   71.0130 C.2   1715  HEM1715     0.0000
     13  O1A      -18.3670   -3.6360   70.2000 O.co2 1715  HEM1715     0.0000
     14  O2A      -20.3070   -3.8930   71.2330 O.co2 1715  HEM1715     0.0000
     15  C1B      -18.5360  -12.0210   74.0430 C.ar  1715  HEM1715     0.0000
     16  C2B      -18.7520  -12.8850   75.1840 C.ar  1715  HEM1715     0.0000
     17  C3B      -18.0630  -14.0320   74.9560 C.ar  1715  HEM1715     0.0000
     18  C4B      -17.3600  -13.9010   73.6860 C.ar  1715  HEM1715     0.0000
     19  CMB      -19.6640  -12.5050   76.3850 C.3   1715  HEM1715     0.0000
     20  CAB      -17.9180  -15.2800   75.8510 C.2   1715  HEM1715     0.0000
     21  CBB      -18.0780  -15.2340   77.1790 C.2   1715  HEM1715     0.0000
     22  C1C      -15.5640  -14.5340   72.1230 C.2   1715  HEM1715     0.0000
     23  C2C      -14.4440  -15.3580   71.7140 C.2   1715  HEM1715     0.0000
     24  C3C      -13.7650  -14.7000   70.7640 C.2   1715  HEM1715     0.0000
     25  C4C      -14.4020  -13.4270   70.5720 C.2   1715  HEM1715     0.0000
     26  CMC      -14.1360  -16.7710   72.2700 C.3   1715  HEM1715     0.0000
     27  CAC      -12.4840  -15.1100   70.0120 C.2   1715  HEM1715     0.0000
     28  CBC      -11.5200  -15.7740   70.6740 C.2   1715  HEM1715     0.0000
     29  C1D      -14.5990  -11.2700   69.4240 C.ar  1715  HEM1715     0.0000
     30  C2D      -14.1590  -10.3470   68.4030 C.ar  1715  HEM1715     0.0000
     31  C3D      -15.1330   -9.1800   68.4640 C.ar  1715  HEM1715     0.0000
     32  C4D      -16.0660   -9.5020   69.5190 C.ar  1715  HEM1715     0.0000
     33  CMD      -12.9490  -10.5200   67.4650 C.3   1715  HEM1715     0.0000
     34  CAD      -15.1140   -7.9050   67.5990 C.3   1715  HEM1715     0.0000
     35  CBD      -14.5320   -6.8160   68.4870 C.3   1715  HEM1715     0.0000
     36  CGD      -14.3630   -5.5350   67.7090 C.2   1715  HEM1715     0.0000
     37  O1D      -14.2750   -4.4680   68.3650 O.co2 1715  HEM1715     0.0000
     38  O2D      -14.3150   -5.5790   66.4440 O.co2 1715  HEM1715     0.0000
     39  NA       -17.8790  -10.0470   71.8240 N.2   1715  HEM1715     0.0000
     40  NB       -17.6940  -12.6690   73.1650 N.ar  1715  HEM1715     0.0000
     41  NC       -15.4910  -13.3530   71.4160 N.2   1715  HEM1715     0.0000
     42  ND       -15.7260  -10.7440   70.0510 N.ar  1715  HEM1715     0.0000
     43 FE        -16.6840  -11.6590   71.6720 Fe    1715  HEM1715     0.0000
@<TRIPOS>BOND
     1    38    36   ar
     2    33    30    1
     3    34    31    1
     4    34    35    1
     5    36    37   ar
     6    36    35    1
     7    30    31   ar
     8    30    29   ar
     9    31    32   ar
    10    29     4    2
    11    29    42   ar
    12    32     1    2
    13    32    42   ar
    14     4    25    1
    15     1     5    1
    16    27    28    2
    17    27    24    1
    18    42    43    1
    19    13    12   ar
    20    25    24    1
    21    25    41    2
    22    24    23    2
    23    10     6    1
    24    10    11    1
    25    12    14   ar
    26    12    11    1
    27     5     6    1
    28     5    39    2
    29    41    43    1
    30    41    22    1
    31     6     7    2
    32    43    39    1
    33    43    40    1
    34    23    22    1
    35    23    26    1
    36    39     8    1
    37    22     3    2
    38     7     8    1
    39     7     9    1
    40     8     2    2
    41     3    18    1
    42    40    18   ar
    43    40    15   ar
    44    18    17   ar
    45     2    15    1
    46    15    16   ar
    47    17    16   ar
    48    17    20    1
    49    16    19    1
    50    20    21    2
