@<TRIPOS>MOLECULE
4aja_TAP_A_1.pdb
 48 52 0 0 0
SMALL
GASTEIGER

@<TRIPOS>ATOM
      1  PA       -37.8180  -12.0370    5.0580 P.3   501  TAP501      0.2189
      2  O1A      -38.8530  -11.6120    4.1060 O.2   501  TAP501     -0.5170
      3  O2A      -38.2890  -11.8290    6.5740 O.3   501  TAP501     -0.4371
      4  O5B      -36.4360  -11.2560    4.8260 O.3   501  TAP501     -0.3112
      5  C5B      -35.3480  -11.5790    5.6860 C.3   501  TAP501      0.1813
      6  C4B      -34.2430  -10.5430    5.5520 C.3   501  TAP501      0.1820
      7  O4B      -33.7000  -10.5520    4.2300 O.3   501  TAP501     -0.3136
      8  C3B      -34.6980   -9.1030    5.7470 C.3   501  TAP501      0.2157
      9  O3B      -34.8960   -8.8040    7.1290 O.3   501  TAP501     -0.2175
     10  C2B      -33.5310   -8.3570    5.1350 C.3   501  TAP501      0.2314
     11  O2B      -32.3540   -8.5320    5.9320 O.3   501  TAP501     -0.2630
     12  C1B      -33.2610   -9.2220    3.9240 C.3   501  TAP501      0.3158
     13  N9A      -33.9790   -8.7680    2.7090 N.pl3 501  TAP501     -0.1439
     14  C8A      -35.0520   -9.3510    2.1350 C.3   501  TAP501      0.3377
     15  N7A      -35.4260   -8.6790    1.0120 N.2   501  TAP501     -0.2095
     16  C5A      -34.5650   -7.6540    0.8570 C.2   501  TAP501      0.2526
     17  C6A      -34.3850   -6.5440   -0.0950 C.2   501  TAP501      0.4393
     18  N6A      -35.2160   -6.4230   -1.1580 N.pl3 501  TAP501      0.2180
     19  N1A      -33.3650   -5.6780    0.1330 N.2   501  TAP501      0.0021
     20  C2A      -32.5240   -5.8050    1.1730 C.3   501  TAP501      0.5254
     21  N3A      -32.6330   -6.7850    2.0880 N.2   501  TAP501     -0.0055
     22  C4A      -33.6170   -7.7120    1.9830 C.2   501  TAP501      0.3518
     23  O3       -37.3550  -13.5470    4.7350 O.3   501  TAP501     -0.2703
     24  PN       -38.3670  -14.8000    4.7550 P.3   501  TAP501      0.2189
     25  O1N      -39.7240  -14.3660    5.1780 O.2   501  TAP501     -0.5170
     26  O2N      -37.7920  -15.9830    5.6920 O.3   501  TAP501     -0.4371
     27  O5D      -38.3880  -15.2390    3.2110 O.3   501  TAP501     -0.3112
     28  C5D      -37.2860  -15.8900    2.5820 C.3   501  TAP501      0.1813
     29  C4D      -37.8450  -16.7860    1.4850 C.3   501  TAP501      0.1799
     30  O4D      -38.5410  -17.8730    2.1060 O.3   501  TAP501     -0.3327
     31  C3D      -38.8690  -16.0640    0.6160 C.3   501  TAP501      0.2158
     32  O3D      -38.8240  -16.5600   -0.7280 O.3   501  TAP501     -0.2175
     33  C2D      -40.2080  -16.4120    1.2340 C.3   501  TAP501      0.2309
     34  O2D      -41.2490  -16.4730    0.2680 O.3   501  TAP501     -0.2158
     35  C1D      -39.9600  -17.7650    1.8940 C.3   501  TAP501      0.2263
     36  N1N      -40.7120  -17.8740    3.1540 N.pl3 501  TAP501     -0.2788
     37  C2N      -41.9850  -17.4500    3.1910 C.3   501  TAP501      0.1216
     38  C3N      -42.7380  -17.5450    4.3590 C.2   501  TAP501      0.0211
     39  C7N      -44.1610  -17.0520    4.3780 C.2   501  TAP501      0.1221
     40  S7N      -44.5240  -15.7230    3.6240 S.2   501  TAP501     -0.0315
     41  N7N      -45.0980  -17.7360    5.0460 N.am  501  TAP501     -0.1207
     42  C4N      -42.1600  -18.0940    5.5020 C.2   501  TAP501      0.0006
     43  C5N      -40.8420  -18.5350    5.4370 C.2   501  TAP501      0.0156
     44  C6N      -40.1360  -18.4180    4.2420 C.2   501  TAP501      0.0633
     45  P2B      -31.8530   -7.4880    7.0520 P.3   501  TAP501      0.5328
     46  O1X      -32.9880   -7.3390    8.1790 O.3   501  TAP501     -0.1145
     47  O2X      -31.5830   -6.0510    6.3940 O.2   501  TAP501     -0.2224
     48  O3X      -30.6080   -8.0050    7.6580 O.3   501  TAP501     -0.1145
@<TRIPOS>BOND
     1    18    17    1
     2    32    31    1
     3    17    19    2
     4    17    16    1
     5    19    20    1
     6    34    33    1
     7    31    33    1
     8    31    29    1
     9    16    15    2
    10    16    22    1
    11    15    14    1
    12    20    21    1
    13    33    35    1
    14    29    30    1
    15    29    28    1
    16    35    30    1
    17    35    36    1
    18    22    21    2
    19    22    13    1
    20    14    13    1
    21    28    27    1
    22    13    12    1
    23    36    37    1
    24    36    44    1
    25    37    38    1
    26    27    24    1
    27    40    39    2
    28    12     7    1
    29    12    10    1
    30     2     1    2
    31     7     6    1
    32    44    43    2
    33    38    39    1
    34    38    42    2
    35    39    41    1
    36    23    24    1
    37    23     1    1
    38    24    25    2
    39    24    26    1
    40     4     1    1
    41     4     5    1
    42     1     3    1
    43    10     8    1
    44    10    11    1
    45    43    42    1
    46     6     5    1
    47     6     8    1
    48     8     9    1
    49    11    45    1
    50    47    45    2
    51    45    48    1
    52    45    46    1
