@<TRIPOS>MOLECULE
4aja_ICT_A_1.pdb
 13 12 0 0 0
SMALL
GASTEIGER

@<TRIPOS>ATOM
      1  C1       -37.4980  -19.4520   -3.6420 C.2   502  ICT502      0.3952
      2  O1       -38.1880  -18.9370   -4.5630 O.co2 502  ICT502     -0.2428
      3  O2       -36.3650  -19.9290   -3.8540 O.co2 502  ICT502     -0.2428
      4  C2       -38.0340  -19.4980   -2.2400 C.3   502  ICT502      0.2651
      5  O7       -36.9820  -19.8290   -1.3160 O.3   502  ICT502     -0.2103
      6  C3       -39.1410  -20.5430   -2.1180 C.3   502  ICT502      0.1561
      7  C4       -39.5990  -20.5690   -0.6620 C.3   502  ICT502      0.1285
      8  C5       -41.1020  -20.5240   -0.4990 C.2   502  ICT502      0.3655
      9  O3       -41.8570  -20.4990   -1.4920 O.co2 502  ICT502     -0.2456
     10  O4       -41.5470  -20.5300    0.6600 O.co2 502  ICT502     -0.2456
     11  C6       -38.6680  -21.9190   -2.5370 C.2   502  ICT502      0.3680
     12  O5       -38.5350  -22.1580   -3.7600 O.co2 502  ICT502     -0.2455
     13  O6       -38.4250  -22.7990   -1.6640 O.co2 502  ICT502     -0.2455
@<TRIPOS>BOND
     1     2     1   ar
     2     3     1   ar
     3    12    11   ar
     4     1     4    1
     5    11     6    1
     6    11    13   ar
     7     4     6    1
     8     4     5    1
     9     6     7    1
    10     9     8   ar
    11     7     8    1
    12     8    10   ar
