@<TRIPOS>MOLECULE
4ajb_ICT_A_1.pdb
 13 12 0 0 0
SMALL
GASTEIGER

@<TRIPOS>ATOM
      1  C1       -37.5550  -19.4510   -2.9660 C.2   502  ICT502      0.3952
      2  O1       -38.3010  -18.8390   -3.7620 O.co2 502  ICT502     -0.2428
      3  O2       -36.3980  -19.7900   -3.3050 O.co2 502  ICT502     -0.2428
      4  C2       -38.0810  -19.7820   -1.5960 C.3   502  ICT502      0.2651
      5  O7       -37.0310  -20.3240   -0.7810 O.3   502  ICT502     -0.2103
      6  C3       -39.1840  -20.8340   -1.7120 C.3   502  ICT502      0.1561
      7  C4       -39.8110  -21.1580   -0.3550 C.3   502  ICT502      0.1285
      8  C5       -40.4880  -19.9380    0.2170 C.2   502  ICT502      0.3655
      9  O3       -41.4260  -19.4170   -0.4170 O.co2 502  ICT502     -0.2456
     10  O4       -40.0810  -19.4980    1.3160 O.co2 502  ICT502     -0.2456
     11  C6       -38.5810  -22.0960   -2.2370 C.2   502  ICT502      0.3680
     12  O5       -38.4690  -22.2180   -3.4840 O.co2 502  ICT502     -0.2455
     13  O6       -38.2020  -22.9810   -1.4130 O.co2 502  ICT502     -0.2455
@<TRIPOS>BOND
     1     2     1   ar
     2    12    11   ar
     3     3     1   ar
     4     1     4    1
     5    11     6    1
     6    11    13   ar
     7     6     4    1
     8     6     7    1
     9     4     5    1
    10     9     8   ar
    11     7     8    1
    12     8    10   ar
