@<TRIPOS>MOLECULE
4ajb_TAP_A_1.pdb
 48 52 0 0 0
SMALL
GASTEIGER

@<TRIPOS>ATOM
      1  PA       -37.1680  -11.5570    5.3040 P.3   501  TAP501      0.2189
      2  O1A      -38.3700  -10.9860    4.6660 O.2   501  TAP501     -0.5170
      3  O2A      -37.4590  -11.8410    6.8630 O.3   501  TAP501     -0.4371
      4  O5B      -35.8630  -10.6280    5.1270 O.3   501  TAP501     -0.3112
      5  C5B      -34.7560  -10.9110    5.9820 C.3   501  TAP501      0.1813
      6  C4B      -33.6540   -9.8770    5.8160 C.3   501  TAP501      0.1820
      7  O4B      -33.1390   -9.8860    4.4860 O.3   501  TAP501     -0.3136
      8  C3B      -34.1090   -8.4470    6.0350 C.3   501  TAP501      0.2157
      9  O3B      -34.2510   -8.1510    7.4300 O.3   501  TAP501     -0.2175
     10  C2B      -32.9860   -7.6890    5.3630 C.3   501  TAP501      0.2314
     11  O2B      -31.7840   -7.7860    6.1320 O.3   501  TAP501     -0.2630
     12  C1B      -32.7120   -8.5600    4.1580 C.3   501  TAP501      0.3158
     13  N9A      -33.4310   -8.1010    2.9390 N.pl3 501  TAP501     -0.1439
     14  C8A      -34.4810   -8.7100    2.3470 C.3   501  TAP501      0.3377
     15  N7A      -34.8820   -8.0270    1.2350 N.2   501  TAP501     -0.2095
     16  C5A      -34.0640   -6.9630    1.1090 C.2   501  TAP501      0.2526
     17  C6A      -33.9260   -5.8290    0.1730 C.2   501  TAP501      0.4393
     18  N6A      -34.7610   -5.7220   -0.8940 N.pl3 501  TAP501      0.2180
     19  N1A      -32.9400   -4.9280    0.4230 N.2   501  TAP501      0.0021
     20  C2A      -32.1010   -5.0460    1.4620 C.3   501  TAP501      0.5254
     21  N3A      -32.1770   -6.0490    2.3600 N.2   501  TAP501     -0.0055
     22  C4A      -33.1180   -7.0120    2.2380 C.2   501  TAP501      0.3518
     23  O3       -36.6430  -12.8540    4.5090 O.3   501  TAP501     -0.2703
     24  PN       -37.3850  -14.2720    4.6290 P.3   501  TAP501      0.2189
     25  O1N      -38.7460  -14.0720    5.1670 O.2   501  TAP501     -0.5170
     26  O2N      -36.5320  -15.3050    5.5250 O.3   501  TAP501     -0.4371
     27  O5D      -37.4690  -14.7300    3.0820 O.3   501  TAP501     -0.3112
     28  C5D      -36.3760  -15.3410    2.3980 C.3   501  TAP501      0.1813
     29  C4D      -36.9290  -16.1690    1.2450 C.3   501  TAP501      0.1799
     30  O4D      -37.6710  -17.2730    1.7710 O.3   501  TAP501     -0.3327
     31  C3D      -37.9190  -15.3890    0.4020 C.3   501  TAP501      0.2158
     32  O3D      -37.9090  -15.9470   -0.9170 O.3   501  TAP501     -0.2175
     33  C2D      -39.2570  -15.6410    1.0760 C.3   501  TAP501      0.2309
     34  O2D      -40.3460  -15.6060    0.1550 O.3   501  TAP501     -0.2158
     35  C1D      -39.0840  -17.0230    1.6840 C.3   501  TAP501      0.2263
     36  N1N      -39.7560  -17.1700    2.9910 N.pl3 501  TAP501     -0.2788
     37  C2N      -41.0240  -16.7600    3.1440 C.3   501  TAP501      0.1216
     38  C3N      -41.6900  -16.9000    4.3620 C.2   501  TAP501      0.0211
     39  C7N      -43.1120  -16.4290    4.5110 C.2   501  TAP501      0.1221
     40  S7N      -43.6090  -15.1720    3.7110 S.2   501  TAP501     -0.0315
     41  N7N      -43.9530  -17.0770    5.3270 N.am  501  TAP501     -0.1207
     42  C4N      -41.0280  -17.4970    5.4330 C.2   501  TAP501      0.0006
     43  C5N      -39.7180  -17.9220    5.2500 C.2   501  TAP501      0.0156
     44  C6N      -39.1030  -17.7520    4.0110 C.2   501  TAP501      0.0633
     45  P2B      -31.3670   -6.7390    7.2830 P.3   501  TAP501      0.5328
     46  O1X      -32.5530   -6.6180    8.3550 O.3   501  TAP501     -0.1145
     47  O2X      -31.1030   -5.2900    6.6460 O.2   501  TAP501     -0.2224
     48  O3X      -30.1170   -7.2150    7.9160 O.3   501  TAP501     -0.1145
@<TRIPOS>BOND
     1    32    31    1
     2    18    17    1
     3    34    33    1
     4    17    19    2
     5    17    16    1
     6    31    33    1
     7    31    29    1
     8    19    20    1
     9    33    35    1
    10    16    15    2
    11    16    22    1
    12    15    14    1
    13    29    30    1
    14    29    28    1
    15    20    21    1
    16    35    30    1
    17    35    36    1
    18    22    21    2
    19    22    13    1
    20    14    13    1
    21    28    27    1
    22    13    12    1
    23    36    37    1
    24    36    44    1
    25    27    24    1
    26    37    38    1
    27    40    39    2
    28    44    43    2
    29    12     7    1
    30    12    10    1
    31    38    39    1
    32    38    42    2
    33     7     6    1
    34    23    24    1
    35    23     1    1
    36    39    41    1
    37    24    25    2
    38    24    26    1
    39     2     1    2
    40     4     1    1
    41     4     5    1
    42    43    42    1
    43     1     3    1
    44    10     8    1
    45    10    11    1
    46     6     5    1
    47     6     8    1
    48     8     9    1
    49    11    45    1
    50    47    45    2
    51    45    48    1
    52    45    46    1
