@<TRIPOS>MOLECULE
4ajc_A2P_A_1.pdb
 27 29 0 0 0
SMALL
GASTEIGER

@<TRIPOS>ATOM
      1  P1       -32.0050   -7.2870    7.3510 P.3   501  A2P501      0.5328
      2  O1P      -32.6970   -7.2330    8.8130 O.3   501  A2P501     -0.1145
      3  O2P      -31.8760   -5.7970    6.7530 O.2   501  A2P501     -0.2224
      4  O3P      -30.6360   -7.8430    7.4810 O.3   501  A2P501     -0.1145
      5  P2       -37.6460  -12.1840    5.2360 P.3   501  A2P501      0.5327
      6  O4P      -36.5510  -13.3270    4.9050 O.3   501  A2P501     -0.1145
      7  O5P      -38.8890  -12.3910    4.4700 O.2   501  A2P501     -0.2224
      8  O6P      -37.9720  -12.1380    6.8180 O.3   501  A2P501     -0.1145
      9  O5'      -36.9210  -10.8200    4.7870 O.3   501  A2P501     -0.2675
     10  C5'      -35.6650  -10.8580    4.1220 C.3   501  A2P501      0.1860
     11  C4'      -34.6150  -10.1990    5.0140 C.3   501  A2P501      0.1822
     12  O4'      -33.4660   -9.9560    4.2080 O.3   501  A2P501     -0.3136
     13  C3'      -35.0190   -8.8570    5.6190 C.3   501  A2P501      0.2157
     14  O3'      -35.2720   -9.0030    7.0220 O.3   501  A2P501     -0.2175
     15  C2'      -33.8250   -7.9550    5.3870 C.3   501  A2P501      0.2314
     16  O2'      -32.8390   -8.2790    6.3720 O.3   501  A2P501     -0.2630
     17  C1'      -33.2070   -8.5490    4.1390 C.3   501  A2P501      0.3158
     18  N9       -33.6690   -8.1330    2.7790 N.pl3 501  A2P501     -0.1439
     19  C8       -34.4970   -8.8770    2.0120 C.3   501  A2P501      0.3377
     20  N7       -34.7110   -8.3040    0.8040 N.2   501  A2P501     -0.2095
     21  C5       -33.9980   -7.1720    0.7740 C.2   501  A2P501      0.2526
     22  C6       -33.7850   -6.1000   -0.2180 C.2   501  A2P501      0.4393
     23  N6       -34.4000   -6.1710   -1.4220 N.pl3 501  A2P501      0.2180
     24  N1       -32.9680   -5.0740    0.1260 N.2   501  A2P501      0.0021
     25  C2       -32.3600   -5.0340    1.3240 C.3   501  A2P501      0.5254
     26  N3       -32.5090   -5.9790    2.2780 N.2   501  A2P501     -0.0055
     27  C4       -33.3030   -7.0570    2.0690 C.2   501  A2P501      0.3518
@<TRIPOS>BOND
     1    23    22    1
     2    22    24    2
     3    22    21    1
     4    24    25    1
     5    21    20    2
     6    21    27    1
     7    20    19    1
     8    25    26    1
     9    19    18    1
    10    27    26    2
    11    27    18    1
    12    18    17    1
    13    10     9    1
    14    10    11    1
    15    17    12    1
    16    17    15    1
    17    12    11    1
    18     7     5    2
    19     9     5    1
    20     6     5    1
    21    11    13    1
    22     5     8    1
    23    15    13    1
    24    15    16    1
    25    13    14    1
    26    16     1    1
    27     3     1    2
    28     1     4    1
    29     1     2    1
