@<TRIPOS>MOLECULE
4ajc_AKG_A_1.pdb
 10 9 0 0 0
SMALL
GASTEIGER

@<TRIPOS>ATOM
      1  C1       -37.9590  -20.8370   -3.4710 C.2   502  AKG502      0.4219
      2  O1       -38.4930  -21.8740   -3.9020 O.co2 502  AKG502     -0.2373
      3  O2       -37.3490  -19.9770   -4.1560 O.co2 502  AKG502     -0.2373
      4  C2       -38.0950  -20.6830   -2.0610 C.2   502  AKG502      0.2526
      5  O5       -37.6610  -19.6950   -1.4940 O.2   502  AKG502     -0.2843
      6  C3       -38.8070  -21.8020   -1.3420 C.3   502  AKG502      0.0881
      7  C4       -39.7730  -21.2240   -0.3070 C.3   502  AKG502      0.1224
      8  C5       -40.9220  -20.5430   -1.0310 C.2   502  AKG502      0.3653
      9  O3       -40.8220  -20.4040   -2.2740 O.co2 502  AKG502     -0.2456
     10  O4       -41.9170  -20.1390   -0.3700 O.co2 502  AKG502     -0.2456
@<TRIPOS>BOND
     1     3     1   ar
     2     2     1   ar
     3     1     4    1
     4     9     8   ar
     5     4     5    2
     6     4     6    1
     7     6     7    1
     8     8    10   ar
     9     8     7    1
