@<TRIPOS>MOLECULE
4ajd_F04_A_1.pdb
 14 15 0 0 0
SMALL
GASTEIGER

@<TRIPOS>ATOM
      1  C1        21.1740  -16.6010  -33.7310 C.3   1773  F041773     0.0285
      2  C2        22.0590  -15.3530  -33.4960 C.3   1773  F041773     0.1308
      3  N3        21.5840  -14.3570  -34.5850 N.ar  1773  F041773    -0.2170
      4  C4        21.0100  -13.1250  -34.3310 C.ar  1773  F041773     0.2763
      5  O5        20.8490  -12.7730  -33.2200 O.2   1773  F041773    -0.2655
      6  C6        20.5980  -12.1980  -35.4940 C.ar  1773  F041773     0.0587
      7  C7        20.0000  -10.8560  -35.2700 C.ar  1773  F041773     0.0048
      8  C8        19.6340  -10.0050  -36.3820 C.ar  1773  F041773     0.0002
      9  C9        19.8890  -10.5120  -37.7400 C.ar  1773  F041773     0.0000
     10  C10       20.4430  -11.8110  -37.9660 C.ar  1773  F041773     0.0014
     11  C11       20.7990  -12.6360  -36.8380 C.ar  1773  F041773     0.0199
     12  C12       21.4200  -14.0130  -36.9840 C.ar  1773  F041773     0.0792
     13  N13       21.7560  -14.7520  -35.9570 N.ar  1773  F041773    -0.1712
     14  C14       21.6970  -14.6410  -38.2840 C.3   1773  F041773     0.0539
@<TRIPOS>BOND
     1    14    12    1
     2    10     9   ar
     3    10    11   ar
     4     9     8   ar
     5    12    11   ar
     6    12    13   ar
     7    11     6   ar
     8     8     7   ar
     9    13     3   ar
    10     6     7   ar
    11     6     4   ar
    12     3     4   ar
    13     3     2    1
    14     4     5    2
    15     1     2    1
