@<TRIPOS>MOLECULE
4aje_2B4_A_1.pdb
 15 15 0 0 0
SMALL
GASTEIGER

@<TRIPOS>ATOM
      1  C1        14.9060  -15.3250    9.9550 C.ar  1332  2B41332     0.0374
      2  C5        12.9110  -14.3790    8.9990 C.ar  1332  2B41332     0.0374
      3  C2        15.6810  -14.5750    9.0850 C.ar  1332  2B41332     0.0098
      4  C4        13.6820  -13.6340    8.1280 C.ar  1332  2B41332     0.0098
      5  C6        13.5280  -15.2260    9.9090 C.ar  1332  2B41332     0.1399
      6  C3        15.0650  -13.7460    8.1910 C.ar  1332  2B41332     0.0348
      7  C9        12.9480  -18.0520    9.7010 C.2   1332  2B41332     0.4156
      8  C12       11.8740  -17.8390   11.9670 C.2   1332  2B41332     0.4156
      9  C8        12.9700  -17.3300   11.0390 C.3   1332  2B41332     0.3707
     10  O10       12.1170  -17.7870    8.8100 O.co2 1332  2B41332    -0.2410
     11  O13       11.9350  -18.9170   12.5440 O.co2 1332  2B41332    -0.2410
     12  O11       13.9000  -18.9200    9.6030 O.co2 1332  2B41332    -0.2410
     13  O14       10.8800  -17.0160   12.0710 O.co2 1332  2B41332    -0.2410
     14  O7        12.7120  -15.9270   10.7650 O.3   1332  2B41332    -0.4582
     15 BR1        16.1290  -12.7180    7.0080 Br    1332  2B41332    -0.0490
@<TRIPOS>BOND
     1    15     6    1
     2     4     6   ar
     3     4     2   ar
     4     6     3   ar
     5    10     7   ar
     6     2     5   ar
     7     3     1   ar
     8    12     7   ar
     9     7     9    1
    10     5     1   ar
    11     5    14    1
    12    14     9    1
    13     9     8    1
    14     8    13   ar
    15     8    11   ar
