@<TRIPOS>MOLECULE
4ajf_F03_A_1.pdb
 15 16 0 0 0
SMALL
GASTEIGER

@<TRIPOS>ATOM
      1  C1        22.0770  -15.1700  -39.2520 C.3   1777  F031777     0.0976
      2  C2        21.6240  -14.1490  -38.2540 C.2   1777  F031777     0.2566
      3  O3        21.4100  -12.9840  -38.5500 O.2   1777  F031777    -0.2722
      4  N4        21.4890  -14.7010  -37.0360 N.am  1777  F031777    -0.0884
      5  C5        21.1080  -14.0700  -35.8990 C.1   1777  F031777     0.2372
      6  N6        20.5680  -12.8320  -36.0240 N.2   1777  F031777    -0.2510
      7  C7        20.1880  -12.0780  -34.9410 C.1   1777  F031777     0.2179
      8  O8        19.7020  -10.9760  -35.0430 O.2   1777  F031777    -0.2085
      9  C9        20.4160  -12.6840  -33.6040 C.2   1777  F031777     0.1220
     10  C10       20.0680  -11.9830  -32.4110 C.2   1777  F031777     0.0147
     11  C11       20.3000  -12.5550  -31.1490 C.2   1777  F031777    -0.0033
     12  C12       20.8910  -13.8280  -31.1030 C.2   1777  F031777    -0.0186
     13  C13       21.2230  -14.5430  -32.3110 C.3   1777  F031777     0.0867
     14  C14       20.9880  -13.9560  -33.5750 C.2   1777  F031777     0.1388
     15  N15       21.3200  -14.6480  -34.7440 N.2   1777  F031777    -0.3295
@<TRIPOS>BOND
     1     1     2    1
     2     3     2    2
     3     2     4   am
     4     4     5    1
     5     6     5    2
     6     6     7    2
     7     5    15    2
     8     8     7    2
     9     7     9    1
    10    15    14    2
    11     9    14    1
    12     9    10    2
    13    14    13    1
    14    10    11    1
    15    13    12    1
    16    11    12    2
