@<TRIPOS>MOLECULE
4ajg_F07_A_1.pdb
 13 15 0 0 0
SMALL
GASTEIGER

@<TRIPOS>ATOM
      1  C1        21.5170  -15.0040  -32.6600 C.2   1771  F071771     0.0356
      2  C2        21.1890  -14.1630  -31.6180 C.2   1771  F071771     0.0997
      3  N3        20.5960  -12.9680  -31.6930 N.2   1771  F071771    -0.2462
      4  C4        20.3150  -12.5960  -32.9430 C.2   1771  F071771     0.0830
      5  C5        20.6200  -13.3810  -34.0350 C.3   1771  F071771     0.1091
      6  C6        21.2300  -14.6100  -33.9460 C.2   1771  F071771     0.0655
      7  N7        21.5150  -15.3670  -35.0050 N.2   1771  F071771    -0.2691
      8  C8        21.1960  -14.9080  -36.2180 C.3   1771  F071771     0.1517
      9  C9        20.5820  -13.6810  -36.3930 C.ar  1771  F071771     0.0053
     10  C10       20.2940  -12.9160  -35.2790 C.ar  1771  F071771     0.0161
     11  S11       19.5370  -11.4280  -35.6960 S.2   1771  F071771    -0.0903
     12  C12       19.5860  -11.7940  -37.3640 C.ar  1771  F071771     0.0349
     13  C13       20.1690  -13.0220  -37.5780 C.ar  1771  F071771     0.0048
@<TRIPOS>BOND
     1    13    12   ar
     2    13     9   ar
     3    12    11   ar
     4     9     8    1
     5     9    10   ar
     6     8     7    1
     7    11    10   ar
     8    10     5    1
     9     7     6    2
    10     5     6    1
    11     5     4    1
    12     6     1    1
    13     4     3    2
    14     1     2    2
    15     3     2    1
