@<TRIPOS>MOLECULE
4ajh_88S_A_1.pdb
 19 20 0 0 0
SMALL
GASTEIGER

@<TRIPOS>ATOM
      1  C5        22.0150   -5.3420    1.0000 C.2   1334  88S1334     0.0301
      2  C6        20.7400   -5.2920    1.5450 C.2   1334  88S1334     0.0186
      3  C8        19.8860   -6.7070   -0.2250 C.2   1334  88S1334     0.0084
      4  C4        22.2350   -6.0600   -0.1810 C.2   1334  88S1334     0.1234
      5  C7        19.6780   -5.9860    0.9500 C.2   1334  88S1334     0.0704
      6  C9        21.1570   -6.7270   -0.7760 C.3   1334  88S1334     0.1292
      7  C2        23.2840   -6.8830   -1.9620 C.2   1334  88S1334     0.1350
      8  C12       17.4990   -6.9720    1.6350 C.2   1334  88S1334     0.2474
      9  C17       15.0650   -9.4880    3.7250 C.2   1334  88S1334     0.3589
     10  C1        24.4070   -7.1670   -2.8920 C.3   1334  88S1334     0.0736
     11  C14       16.3090   -6.6510    2.5230 C.3   1334  88S1334     0.1106
     12  C15       15.0950   -7.5090    2.2440 C.3   1334  88S1334     0.1265
     13  N3        23.4390   -6.1640   -0.8720 N.2   1334  88S1334    -0.4032
     14  N19       15.4570  -10.7660    3.8830 N.am  1334  88S1334    -0.0679
     15  N11       18.3900   -5.9610    1.5380 N.am  1334  88S1334    -0.1795
     16  N16       15.3510   -8.9230    2.5470 N.am  1334  88S1334    -0.1853
     17  O13       17.6390   -8.0700    1.0660 O.2   1334  88S1334    -0.2729
     18  O18       14.4800   -8.8560    4.6270 O.2   1334  88S1334    -0.2474
     19  S10       21.6760   -7.5090   -2.2300 S.3   1334  88S1334    -0.0759
@<TRIPOS>BOND
     1    10     7    1
     2    19     7    1
     3    19     6    1
     4     7    13    2
     5    13     4    2
     6     6     3    1
     7     6     4    1
     8     3     5    2
     9     4     1    1
    10     5    15    1
    11     5     2    1
    12     1     2    2
    13    17     8    2
    14    15     8   am
    15     8    11    1
    16    12    11    1
    17    12    16    1
    18    16     9   am
    19     9    14   am
    20     9    18    2
