@<TRIPOS>MOLECULE
4ajh_2B4_B_1.pdb
 15 15 0 0 0
SMALL
GASTEIGER

@<TRIPOS>ATOM
      1  C1         0.0630    7.0260    9.6550 C.ar  1334  2B41334     0.0374
      2  C5        -0.7320    8.2920   11.5520 C.ar  1334  2B41334     0.0374
      3  C2        -1.0810    6.2350    9.7140 C.ar  1334  2B41334     0.0098
      4  C4        -1.8720    7.4980   11.6160 C.ar  1334  2B41334     0.0098
      5  C6         0.2470    8.0390   10.5790 C.ar  1334  2B41334     0.1399
      6  C3        -2.0190    6.4740   10.7080 C.ar  1334  2B41334     0.0348
      7  C9         2.6970   10.8670   10.4160 C.2   1334  2B41334     0.4156
      8  C12        0.3460   10.7550    9.5720 C.2   1334  2B41334     0.4156
      9  C8         1.3240   10.2390   10.6160 C.3   1334  2B41334     0.3707
     10  O10        3.6960   10.2150   10.1700 O.co2 1334  2B41334    -0.2410
     11  O13        0.2650   10.2560    8.4680 O.co2 1334  2B41334    -0.2410
     12  O11        2.6800   12.1650   10.5340 O.co2 1334  2B41334    -0.2410
     13  O14       -0.4030   11.6980   10.0180 O.co2 1334  2B41334    -0.2410
     14  O7         1.4030    8.7880   10.4940 O.3   1334  2B41334    -0.4582
     15 BR1        -3.5630    5.3730   10.8120 Br    1334  2B41334    -0.0490
@<TRIPOS>BOND
     1    11     8   ar
     2     8    13   ar
     3     8     9    1
     4     1     3   ar
     5     1     5   ar
     6     3     6   ar
     7    10     7   ar
     8     7    12   ar
     9     7     9    1
    10    14     5    1
    11    14     9    1
    12     5     2   ar
    13     6    15    1
    14     6     4   ar
    15     2     4   ar
