@<TRIPOS>MOLECULE
4aji_88R_A_1.pdb
 18 18 0 0 0
SMALL
GASTEIGER

@<TRIPOS>ATOM
      1  C1        16.3310  -12.2350    6.6250 C.3   1332  88R1332     0.2526
      2  O2        15.3780  -13.2870    6.5400 O.3   1332  88R1332    -0.4684
      3  C3        14.8900  -13.8030    7.7110 C.ar  1332  88R1332     0.1724
      4  C4        15.6690  -14.3640    8.7120 C.ar  1332  88R1332     0.0397
      5  C5        15.0680  -14.8800    9.8700 C.ar  1332  88R1332    -0.0009
      6  C6        13.6880  -14.8220   10.0300 C.ar  1332  88R1332    -0.0179
      7  C7        12.9170  -14.2750    9.0140 C.ar  1332  88R1332     0.0358
      8  C8        13.4940  -13.7570    7.8720 C.ar  1332  88R1332     0.1721
      9  O9        12.7930  -13.1900    6.8520 O.3   1332  88R1332    -0.4684
     10  C10       11.4660  -12.6830    7.1470 C.3   1332  88R1332     0.2526
     11  C11       13.0080  -15.4020   11.2260 C.3   1332  88R1332     0.0492
     12  C12       12.3200  -16.7450   10.9320 C.3   1332  88R1332     0.2103
     13  C13       13.3410  -17.8070   10.6100 C.2   1332  88R1332     0.3755
     14  O14       14.3990  -17.8520   11.1690 O.co2 1332  88R1332    -0.2450
     15  O15       12.9610  -18.6800    9.6960 O.co2 1332  88R1332    -0.2450
     16  C16       11.4810  -17.2020   12.0950 C.2   1332  88R1332     0.3755
     17  O17       11.8120  -18.1680   12.7680 O.co2 1332  88R1332    -0.2450
     18  O18       10.3970  -16.4440   12.3270 O.co2 1332  88R1332    -0.2450
@<TRIPOS>BOND
     1     2     1    1
     2     2     3    1
     3     9    10    1
     4     9     8    1
     5     3     8   ar
     6     3     4   ar
     7     8     7   ar
     8     4     5   ar
     9     7     6   ar
    10    15    13   ar
    11     5     6   ar
    12     6    11    1
    13    13    12    1
    14    13    14   ar
    15    12    11    1
    16    12    16    1
    17    16    18   ar
    18    16    17   ar
