@<TRIPOS>MOLECULE
4ajj_88R_B_1.pdb
 18 18 0 0 0
SMALL
GASTEIGER

@<TRIPOS>ATOM
      1  C1        -3.9520    5.2590   10.9100 C.3   1333  88R1333     0.2526
      2  O2        -2.8920    5.4800    9.9760 O.3   1333  88R1333    -0.4684
      3  C3        -1.9310    6.4100   10.2940 C.ar  1333  88R1333     0.1724
      4  C4        -2.0560    7.3740   11.3070 C.ar  1333  88R1333     0.0397
      5  C5        -1.0170    8.2840   11.5250 C.ar  1333  88R1333    -0.0009
      6  C6         0.1710    8.2060   10.7950 C.ar  1333  88R1333    -0.0179
      7  C7         0.2810    7.2640    9.7790 C.ar  1333  88R1333     0.0358
      8  C8        -0.7600    6.3640    9.5150 C.ar  1333  88R1333     0.1721
      9  O9        -0.7140    5.3690    8.5690 O.3   1333  88R1333    -0.4684
     10  C10        0.5600    5.0260    7.9970 C.3   1333  88R1333     0.2526
     11  C11        1.2830    9.1910   11.0440 C.3   1333  88R1333     0.0492
     12  C12        1.6520   10.0200    9.7980 C.3   1333  88R1333     0.2103
     13  C13        0.4840   10.8000    9.2570 C.2   1333  88R1333     0.3755
     14  O14       -0.1850   11.5050    9.9670 O.co2 1333  88R1333    -0.2450
     15  O15        0.2780   10.6410    7.9510 O.co2 1333  88R1333    -0.2450
     16  C16        2.8230   10.9370   10.0660 C.2   1333  88R1333     0.3755
     17  O17        2.6750   12.1280   10.3070 O.co2 1333  88R1333    -0.2450
     18  O18        4.0080   10.3320    9.9780 O.co2 1333  88R1333    -0.2450
@<TRIPOS>BOND
     1    15    13   ar
     2    10     9    1
     3     9     8    1
     4    13    12    1
     5    13    14   ar
     6     8     7   ar
     7     8     3   ar
     8     7     6   ar
     9    12    16    1
    10    12    11    1
    11     2     3    1
    12     2     1    1
    13    18    16   ar
    14    16    17   ar
    15     3     4   ar
    16     6    11    1
    17     6     5   ar
    18     4     5   ar
