@<TRIPOS>MOLECULE
4ajj_88S_A_1.pdb
 19 20 0 0 0
SMALL
GASTEIGER

@<TRIPOS>ATOM
      1  C5        22.0170   -5.4680    0.9930 C.2   1332  88S1332     0.0300
      2  C6        20.7410   -5.4200    1.5410 C.2   1332  88S1332     0.0022
      3  C8        19.8870   -6.8150   -0.2510 C.2   1332  88S1332     0.0086
      4  C4        22.2430   -6.1950   -0.1840 C.2   1332  88S1332     0.1371
      5  C7        19.6780   -6.1010    0.9350 C.3   1332  88S1332     0.1399
      6  C9        21.1640   -6.8450   -0.7920 C.2   1332  88S1332     0.0588
      7  C2        23.3090   -7.0590   -1.9450 C.2   1332  88S1332     0.1389
      8  C12       17.5060   -7.0900    1.6560 C.2   1332  88S1332     0.2437
      9  C17       15.0750   -9.5260    3.7760 C.2   1332  88S1332     0.3589
     10  C1        24.4330   -7.3630   -2.8740 C.3   1332  88S1332     0.0739
     11  C14       16.3370   -6.7630    2.5730 C.3   1332  88S1332     0.1103
     12  C15       15.0940   -7.5700    2.2640 C.3   1332  88S1332     0.1265
     13  N3        23.4560   -6.3270   -0.8520 N.2   1332  88S1332    -0.3993
     14  N19       15.4490  -10.8020    3.9370 N.am  1332  88S1332    -0.0679
     15  N11       18.3840   -6.0660    1.5090 N.am  1332  88S1332    -0.1981
     16  N16       15.2890   -8.9950    2.5650 N.am  1332  88S1332    -0.1853
     17  O13       17.6350   -8.2040    1.1010 O.2   1332  88S1332    -0.2733
     18  O18       14.5490   -8.8660    4.6960 O.2   1332  88S1332    -0.2474
     19  S10       21.7000   -7.6500   -2.2380 S.3   1332  88S1332    -0.0575
@<TRIPOS>BOND
     1    10     7    1
     2    19     7    1
     3    19     6    1
     4     7    13    2
     5    13     4    2
     6     6     3    2
     7     6     4    1
     8     3     5    1
     9     4     1    1
    10     5    15    1
    11     5     2    1
    12     1     2    2
    13    17     8    2
    14    15     8   am
    15     8    11    1
    16    12    16    1
    17    12    11    1
    18    16     9   am
    19     9    14   am
    20     9    18    2
