@<TRIPOS>MOLECULE
4ajk_88S_A_1.pdb
 19 20 0 0 0
SMALL
GASTEIGER

@<TRIPOS>ATOM
      1  C5        21.9800   -5.3940    0.9900 C.2   1332  88S1332     0.0300
      2  C6        20.7020   -5.3430    1.5300 C.2   1332  88S1332     0.0022
      3  C8        19.8480   -6.7140   -0.2870 C.2   1332  88S1332     0.0086
      4  C4        22.2060   -6.1070   -0.1950 C.2   1332  88S1332     0.1371
      5  C7        19.6340   -6.0060    0.9050 C.3   1332  88S1332     0.1399
      6  C9        21.1290   -6.7460   -0.8180 C.2   1332  88S1332     0.0588
      7  C2        23.2760   -6.9210   -1.9670 C.2   1332  88S1332     0.1389
      8  C12       17.4330   -6.9550    1.5790 C.2   1332  88S1332     0.2437
      9  C17       14.9630   -9.5250    3.7530 C.2   1332  88S1332     0.3589
     10  C1        24.4100   -7.2100   -2.8850 C.3   1332  88S1332     0.0739
     11  C14       16.2480   -6.6180    2.4630 C.3   1332  88S1332     0.1103
     12  C15       15.0840   -7.5580    2.2680 C.3   1332  88S1332     0.1265
     13  N3        23.4200   -6.2250   -0.8640 N.2   1332  88S1332    -0.3993
     14  N19       15.1390  -10.8540    3.8190 N.am  1332  88S1332    -0.0679
     15  N11       18.3380   -5.9540    1.4820 N.am  1332  88S1332    -0.1981
     16  N16       15.4410   -8.9210    2.6590 N.am  1332  88S1332    -0.1853
     17  O13       17.5550   -8.0590    1.0050 O.2   1332  88S1332    -0.2733
     18  O18       14.3910   -8.8850    4.6580 O.2   1332  88S1332    -0.2474
     19  S10       21.6700   -7.5160   -2.2740 S.3   1332  88S1332    -0.0575
@<TRIPOS>BOND
     1    10     7    1
     2    19     7    1
     3    19     6    1
     4     7    13    2
     5    13     4    2
     6     6     3    2
     7     6     4    1
     8     3     5    1
     9     4     1    1
    10     5    15    1
    11     5     2    1
    12     1     2    2
    13    17     8    2
    14    15     8   am
    15     8    11    1
    16    12    11    1
    17    12    16    1
    18    16     9   am
    19     9    14   am
    20     9    18    2
