@<TRIPOS>MOLECULE
4ajl_88W_A_1.pdb
 21 22 0 0 0
SMALL
GASTEIGER

@<TRIPOS>ATOM
      1  C1        16.2370  -11.8330    6.4570 C.3   1333  88W1333     0.0253
      2  C14       21.9710   -5.4350    1.0480 C.2   1333  88W1333     0.0300
      3  C13       20.6940   -5.3690    1.5830 C.2   1333  88W1333     0.0022
      4  C2        15.1130  -11.5940    5.4940 C.3   1333  88W1333     0.1169
      5  C17       19.8240   -6.7590   -0.2020 C.2   1333  88W1333     0.0086
      6  C15       22.1870   -6.1640   -0.1250 C.2   1333  88W1333     0.1371
      7  C12       19.6270   -6.0440    0.9790 C.3   1333  88W1333     0.1399
      8  C16       21.1030   -6.8040   -0.7380 C.2   1333  88W1333     0.0588
      9  C19       23.2580   -6.9810   -1.9050 C.2   1333  88W1333     0.1389
     10  C9        17.4640   -7.0730    1.6740 C.2   1333  88W1333     0.2437
     11  C4        15.0770   -9.6280    4.0110 C.2   1333  88W1333     0.3393
     12  C21       24.3400   -7.2370   -2.9020 C.3   1333  88W1333     0.0739
     13  C8        16.2750   -6.7850    2.5720 C.3   1333  88W1333     0.1103
     14  C7        15.1410   -7.7760    2.3850 C.3   1333  88W1333     0.1265
     15  N20       23.4010   -6.2910   -0.7980 N.2   1333  88W1333    -0.3993
     16  N3        15.5460  -10.8590    4.3030 N.am  1333  88W1333    -0.1872
     17  N11       18.3620   -6.0610    1.6190 N.am  1333  88W1333    -0.1981
     18  N6        15.5120   -9.1100    2.8430 N.am  1333  88W1333    -0.1867
     19  O10       17.5890   -8.1430    1.0620 O.2   1333  88W1333    -0.2733
     20  O5        14.3000   -9.0200    4.7580 O.2   1333  88W1333    -0.2492
     21  S18       21.6290   -7.5680   -2.2090 S.3   1333  88W1333    -0.0575
@<TRIPOS>BOND
     1    12     9    1
     2    21     9    1
     3    21     8    1
     4     9    15    2
     5    15     6    2
     6     8     5    2
     7     8     6    1
     8     5     7    1
     9     6     2    1
    10     7     3    1
    11     7    17    1
    12     2     3    2
    13    19    10    2
    14    17    10   am
    15    10    13    1
    16    14    13    1
    17    14    18    1
    18    18    11   am
    19    11    16   am
    20    11    20    2
    21    16     4    1
    22     4     1    1
