@<TRIPOS>MOLECULE
4ajm_3A6_D_1.pdb
 32 35 0 0 0
SMALL
GASTEIGER

@<TRIPOS>ATOM
      1  C1        17.2690   39.5270   17.8170 C.3   1769  3A61769     0.0521
      2  C2        18.1990   38.3730   17.5460 C.ar  1769  3A61769     0.0594
      3  C3        19.0340   37.9810   18.5660 C.ar  1769  3A61769     0.0147
      4  C4        19.9790   36.9670   18.3320 C.ar  1769  3A61769     0.0027
      5  C5        19.9890   36.3280   17.0740 C.ar  1769  3A61769     0.0207
      6  C6        19.0610   36.7380   16.1310 C.ar  1769  3A61769     0.0984
      7  N7        18.2050   37.7300   16.3780 N.ar  1769  3A61769    -0.2481
      8  C8        20.9190   36.5890   19.4210 C.ar  1769  3A61769     0.0001
      9  C9        21.2190   35.2500   19.6610 C.ar  1769  3A61769     0.0001
     10  C10       22.0730   34.8930   20.6830 C.ar  1769  3A61769     0.0026
     11  C11       22.6560   35.8790   21.4870 C.ar  1769  3A61769     0.0309
     12  C12       22.3500   37.2260   21.2510 C.ar  1769  3A61769     0.0026
     13  C13       21.4780   37.5790   20.2340 C.ar  1769  3A61769     0.0001
     14  C14       23.6240   35.5090   22.5500 C.2   1769  3A61769     0.1474
     15  C15       23.2390   34.7710   23.7110 C.2   1769  3A61769     0.1197
     16  C16       24.2690   34.4220   24.6340 C.2   1769  3A61769     0.0641
     17  C17       25.6590   34.8900   24.3640 C.3   1769  3A61769     0.1046
     18  C18       26.7550   34.6440   25.2320 C.2   1769  3A61769     0.0148
     19  C19       28.0350   35.0820   24.9110 C.2   1769  3A61769     0.1367
     20  C20       28.2610   35.8160   23.7210 C.2   1769  3A61769     0.0316
     21  C21       27.2230   36.0710   22.8550 C.2   1769  3A61769     0.0305
     22  C22       25.8990   35.6280   23.1620 C.2   1769  3A61769     0.1171
     23  N23       24.8770   35.8660   22.3290 N.2   1769  3A61769    -0.4042
     24  F24       29.0840   34.8080   25.7530 F     1769  3A61769    -0.2045
     25  C25       23.9480   33.8890   25.9670 C.2   1769  3A61769     0.2835
     26  O26       23.8950   34.7060   26.8790 O.2   1769  3A61769    -0.2670
     27  N27       23.7340   32.5970   26.2330 N.am  1769  3A61769    -0.0592
     28  S28       23.4040   32.1530   27.8060 S.O2  1769  3A61769     0.0778
     29  O29       24.6070   32.3320   28.5550 O.2   1769  3A61769    -0.1527
     30  O30       22.2260   32.8650   28.1800 O.2   1769  3A61769    -0.1527
     31  C31       23.0410   30.3910   27.5910 C.3   1769  3A61769     0.2018
     32  N32       21.8950   34.4210   23.9380 N.pl3 1769  3A61769    -0.1255
@<TRIPOS>BOND
     1     6     7   ar
     2     6     5   ar
     3     7     2   ar
     4     5     4   ar
     5     2     1    1
     6     2     3   ar
     7     4     3   ar
     8     4     8    1
     9     8     9   ar
    10     8    13   ar
    11     9    10   ar
    12    13    12   ar
    13    10    11   ar
    14    12    11   ar
    15    11    14    1
    16    23    14    2
    17    23    22    2
    18    14    15    1
    19    21    22    1
    20    21    20    2
    21    22    17    1
    22    15    32    1
    23    15    16    2
    24    20    19    1
    25    17    16    1
    26    17    18    1
    27    16    25    1
    28    19    18    2
    29    19    24    1
    30    25    27   am
    31    25    26    2
    32    27    28    1
    33    31    28    1
    34    28    30    2
    35    28    29    2
