@<TRIPOS>MOLECULE
4ajn_88V_A_1.pdb
 35 37 0 0 0
SMALL
GASTEIGER

@<TRIPOS>ATOM
      1  C23       15.3590  -14.1690    8.4600 C.ar  1332  88V1332    -0.0045
      2  C27       13.1920  -13.8880    7.5330 C.ar  1332  88V1332    -0.0045
      3  C24       14.8040  -14.7640    9.5770 C.ar  1332  88V1332    -0.0046
      4  C26       12.6360  -14.4760    8.6550 C.ar  1332  88V1332    -0.0046
      5  C5        21.6850   -5.7460    1.1870 C.2   1332  88V1332     0.0301
      6  C6        20.4150   -5.7470    1.7350 C.2   1332  88V1332     0.0186
      7  C8        19.6120   -7.1540   -0.0470 C.2   1332  88V1332     0.0084
      8  C22       14.5620  -13.7190    7.4220 C.ar  1332  88V1332    -0.0204
      9  C25       13.4340  -14.9270    9.6920 C.ar  1332  88V1332    -0.0211
     10  C4        21.9360   -6.4560    0.0130 C.2   1332  88V1332     0.1234
     11  C7        19.3790   -6.4410    1.1240 C.2   1332  88V1332     0.0704
     12  C9        20.8890   -7.1550   -0.5850 C.3   1332  88V1332     0.1292
     13  C2        23.0460   -7.2960   -1.7200 C.2   1332  88V1332     0.1350
     14  C12       17.2990   -7.5250    1.9040 C.2   1332  88V1332     0.2474
     15  C30       11.2270  -17.3010   11.8450 C.2   1332  88V1332     0.3755
     16  C33       12.5010  -17.8210    9.7680 C.2   1332  88V1332     0.3755
     17  C17       14.8860   -9.9040    4.3100 C.2   1332  88V1332     0.3393
     18  C1        24.2130   -7.5670   -2.6070 C.3   1332  88V1332     0.0736
     19  C21       15.1840  -13.0990    6.1900 C.3   1332  88V1332     0.0498
     20  C28       12.8380  -15.5820   10.9180 C.3   1332  88V1332     0.0491
     21  C14       16.0770   -7.2790    2.7630 C.3   1332  88V1332     0.1106
     22  C20       14.8340  -11.6450    6.0080 C.3   1332  88V1332     0.1215
     23  C15       14.9550   -8.2560    2.4840 C.3   1332  88V1332     0.1265
     24  C29       11.8470  -16.7170   10.5850 C.3   1332  88V1332     0.2103
     25  N3        23.1580   -6.5480   -0.6490 N.2   1332  88V1332    -0.4032
     26  N11       18.0850   -6.4400    1.6990 N.am  1332  88V1332    -0.1795
     27  N19       15.0140  -11.2000    4.6320 N.am  1332  88V1332    -0.1869
     28  N16       15.2060   -9.5780    3.0480 N.am  1332  88V1332    -0.1867
     29  O13       17.5310   -8.6290    1.4160 O.2   1332  88V1332    -0.2729
     30  O31       11.6780  -18.2910   12.3960 O.co2 1332  88V1332    -0.2450
     31  O34       13.5150  -18.3700   10.1620 O.co2 1332  88V1332    -0.2450
     32  O18       14.4540   -9.0810    5.1110 O.2   1332  88V1332    -0.2492
     33  O32       10.1610  -16.6690   12.2470 O.co2 1332  88V1332    -0.2450
     34  O35       11.9060  -18.1110    8.6410 O.co2 1332  88V1332    -0.2450
     35  S10       21.4670   -7.9410   -2.0260 S.3   1332  88V1332    -0.0759
@<TRIPOS>BOND
     1    18    13    1
     2    35    13    1
     3    35    12    1
     4    13    25    2
     5    25    10    2
     6    12     7    1
     7    12    10    1
     8     7    11    2
     9    10     5    1
    10    11    26    1
    11    11     6    1
    12     5     6    2
    13    29    14    2
    14    26    14   am
    15    14    21    1
    16    23    21    1
    17    23    28    1
    18    28    17   am
    19    17    27   am
    20    17    32    2
    21    27    22    1
    22    22    19    1
    23    19     8    1
    24     8     2   ar
    25     8     1   ar
    26     2     4   ar
    27     1     3   ar
    28    34    16   ar
    29     4     9   ar
    30     3     9   ar
    31     9    20    1
    32    16    31   ar
    33    16    24    1
    34    24    20    1
    35    24    15    1
    36    15    33   ar
    37    15    30   ar
