@<TRIPOS>MOLECULE
4ajo_88N_A_1.pdb
 35 37 0 0 0
SMALL
GASTEIGER

@<TRIPOS>ATOM
      1  C23       15.3580  -14.2740    8.4560 C.ar  1332  88N1332    -0.0046
      2  C27       13.2060  -13.9100    7.5280 C.ar  1332  88N1332    -0.0046
      3  C24       14.7790  -14.8430    9.5740 C.ar  1332  88N1332    -0.0046
      4  C26       12.6260  -14.4780    8.6470 C.ar  1332  88N1332    -0.0046
      5  C5        21.7010   -5.7230    1.1620 C.2   1332  88N1332     0.0300
      6  C6        20.4310   -5.7000    1.7080 C.2   1332  88N1332     0.0022
      7  C8        19.6040   -7.0820   -0.0800 C.2   1332  88N1332     0.0086
      8  C22       14.5800  -13.8050    7.4140 C.ar  1332  88N1332    -0.0222
      9  C25       13.4050  -14.9540    9.6860 C.ar  1332  88N1332    -0.0211
     10  C4        21.9390   -6.4250   -0.0200 C.2   1332  88N1332     0.1371
     11  C7        19.3810   -6.3650    1.0900 C.3   1332  88N1332     0.1399
     12  C9        20.8770   -7.0970   -0.6250 C.2   1332  88N1332     0.0588
     13  C2        23.0280   -7.2700   -1.7670 C.2   1332  88N1332     0.1389
     14  C12       17.2660   -7.4210    1.8220 C.2   1332  88N1332     0.2437
     15  C17       14.9260   -9.8850    4.2060 C.2   1332  88N1332     0.2414
     16  C30       12.4210  -17.7980    9.6530 C.2   1332  88N1332     0.3755
     17  C33       11.1010  -17.2890   11.7480 C.2   1332  88N1332     0.3755
     18  C1        24.1820   -7.5520   -2.6740 C.3   1332  88N1332     0.0739
     19  C21       15.2250  -13.1910    6.1940 C.3   1332  88N1332     0.0269
     20  C28       12.7810  -15.6040   10.8930 C.3   1332  88N1332     0.0491
     21  C14       16.0660   -7.1840    2.7080 C.3   1332  88N1332     0.1102
     22  C19       15.1300  -11.3500    4.4860 C.3   1332  88N1332     0.0872
     23  C20       14.7670  -11.7820    5.8920 C.3   1332  88N1332     0.0143
     24  C15       14.9640   -8.1790    2.4470 C.3   1332  88N1332     0.1248
     25  C29       11.7870  -16.7230   10.5220 C.3   1332  88N1332     0.2103
     26  N3        23.1580   -6.5350   -0.6870 N.2   1332  88N1332    -0.3993
     27  N11       18.0790   -6.3490    1.6570 N.am  1332  88N1332    -0.1981
     28  N16       15.2960   -9.4880    2.9920 N.am  1332  88N1332    -0.2049
     29  O13       17.4630   -8.5130    1.2930 O.2   1332  88N1332    -0.2733
     30  O18       14.4220   -9.1320    5.0380 O.2   1332  88N1332    -0.2733
     31  O31       11.9530  -18.0930    8.5640 O.co2 1332  88N1332    -0.2450
     32  O34       10.1770  -16.6750   12.2530 O.co2 1332  88N1332    -0.2450
     33  O32       13.4880  -18.3420   10.1480 O.co2 1332  88N1332    -0.2450
     34  O35       11.5570  -18.4210   12.2040 O.co2 1332  88N1332    -0.2450
     35  S10       21.4350   -7.8790   -2.0760 S.3   1332  88N1332    -0.0575
@<TRIPOS>BOND
     1    18    13    1
     2    35    13    1
     3    35    12    1
     4    13    26    2
     5    26    10    2
     6    12     7    2
     7    12    10    1
     8     7    11    1
     9    10     5    1
    10    11    27    1
    11    11     6    1
    12     5     6    2
    13    29    14    2
    14    27    14   am
    15    14    21    1
    16    24    21    1
    17    24    28    1
    18    28    15   am
    19    15    22    1
    20    15    30    2
    21    22    23    1
    22    23    19    1
    23    19     8    1
    24     8     2   ar
    25     8     1   ar
    26     2     4   ar
    27     1     3   ar
    28    31    16   ar
    29     4     9   ar
    30     3     9   ar
    31    16    33   ar
    32    16    25    1
    33     9    20    1
    34    25    20    1
    35    25    17    1
    36    17    34   ar
    37    17    32   ar
