@<TRIPOS>MOLECULE
4ajp_0SN_A_1.pdb
 35 37 0 0 0
SMALL
GASTEIGER

@<TRIPOS>ATOM
      1  C23        3.3750    7.3710   13.5590 C.ar  1332  0SN1332    -0.0046
      2  C27        1.5560    8.7780   14.1430 C.ar  1332  0SN1332    -0.0046
      3  C24        2.5870    6.7480   12.6090 C.ar  1332  0SN1332    -0.0046
      4  C26        0.7660    8.1510   13.1990 C.ar  1332  0SN1332    -0.0046
      5  C5        10.3130    9.3190   24.3030 C.2   1332  0SN1332     0.0301
      6  C6         8.9530    9.2110   24.0780 C.2   1332  0SN1332     0.0186
      7  C8         8.8710   11.4770   23.2700 C.2   1332  0SN1332     0.0084
      8  C22        2.8710    8.3960   14.3400 C.ar  1332  0SN1332    -0.0222
      9  C25        1.2730    7.1320   12.4120 C.ar  1332  0SN1332    -0.0211
     10  C4        10.9720   10.5100   24.0040 C.2   1332  0SN1332     0.1234
     11  C7         8.2300   10.2810   23.5670 C.2   1332  0SN1332     0.0704
     12  C9        10.2340   11.5720   23.4880 C.3   1332  0SN1332     0.1292
     13  C2        12.6220   11.9890   23.7910 C.2   1332  0SN1332     0.1350
     14  C12        6.1320   10.7210   22.3410 C.2   1332  0SN1332     0.2474
     15  C17        3.5380   10.1020   19.1200 C.2   1332  0SN1332     0.2414
     16  C30        0.8230    8.2070    9.6100 C.2   1332  0SN1332     0.3755
     17  C33       -1.1520    6.7240    9.4070 C.2   1332  0SN1332     0.3755
     18  C1        14.0070   12.5530   23.8560 C.3   1332  0SN1332     0.0736
     19  C21        3.7370    9.0910   15.3690 C.3   1332  0SN1332     0.0269
     20  C28        0.4130    6.4530   11.3790 C.3   1332  0SN1332     0.0491
     21  C14        4.6710   10.3290   22.2920 C.3   1332  0SN1332     0.1105
     22  C19        3.9830   10.0920   17.6810 C.3   1332  0SN1332     0.0872
     23  C20        3.2300    9.1080   16.7990 C.3   1332  0SN1332     0.0143
     24  C15        3.8680   11.1750   21.3300 C.3   1332  0SN1332     0.1248
     25  C29       -0.2220    7.4310   10.3720 C.3   1332  0SN1332     0.2103
     26  N3        12.3330   10.7660   24.1640 N.2   1332  0SN1332    -0.4032
     27  N11        6.8360   10.1660   23.3490 N.am  1332  0SN1332    -0.1795
     28  N16        4.2220   10.9140   19.9360 N.am  1332  0SN1332    -0.2049
     29  O13        6.6380   11.4500   21.4930 O.2   1332  0SN1332    -0.2729
     30  O18        2.6110    9.3890   19.4950 O.2   1332  0SN1332    -0.2733
     31  O31        0.7540    9.4190    9.5040 O.co2 1332  0SN1332    -0.2450
     32  O34       -2.2750    6.4010    9.7540 O.co2 1332  0SN1332    -0.2450
     33  O32        1.7680    7.4790    9.1050 O.co2 1332  0SN1332    -0.2450
     34  O35       -0.6670    6.5110    8.2170 O.co2 1332  0SN1332    -0.2450
     35  S10       11.2830   12.9330   23.2250 S.3   1332  0SN1332    -0.0759
@<TRIPOS>BOND
     1    34    17   ar
     2    33    16   ar
     3    17    32   ar
     4    17    25    1
     5    31    16   ar
     6    16    25    1
     7    25    20    1
     8    20     9    1
     9     9     3   ar
    10     9     4   ar
    11     3     1   ar
    12     4     2   ar
    13     1     8   ar
    14     2     8   ar
    15     8    19    1
    16    19    23    1
    17    23    22    1
    18    22    15    1
    19    15    30    2
    20    15    28   am
    21    28    24    1
    22    24    21    1
    23    29    14    2
    24    21    14    1
    25    14    27   am
    26    35    12    1
    27    35    13    1
    28     7    12    1
    29     7    11    2
    30    27    11    1
    31    12    10    1
    32    11     6    1
    33    13    18    1
    34    13    26    2
    35    10    26    2
    36    10     5    1
    37     6     5    2
