@<TRIPOS>MOLECULE
4ajr_NAP_A_1.pdb
 48 52 0 0 0
SMALL
GASTEIGER

@<TRIPOS>ATOM
      1  PA       -37.0560  -15.4180    1.9390 P.3   1417  NAP1417     0.2189
      2  O1A      -36.4220  -15.5530    0.6110 O.2   1417  NAP1417    -0.5170
      3  O2A      -38.4880  -14.7020    1.9430 O.3   1417  NAP1417    -0.4371
      4  O5B      -36.0860  -14.6110    2.9430 O.3   1417  NAP1417    -0.3112
      5  C5B      -34.8910  -15.2010    3.4380 C.3   1417  NAP1417     0.1813
      6  C4B      -33.8330  -14.1180    3.5010 C.3   1417  NAP1417     0.1820
      7  O4B      -33.3190  -13.8840    2.1890 O.3   1417  NAP1417    -0.3136
      8  C3B      -34.3640  -12.7500    3.9010 C.3   1417  NAP1417     0.2157
      9  O3B      -34.5840  -12.6190    5.3010 O.3   1417  NAP1417    -0.2175
     10  C2B      -33.2440  -11.8710    3.3920 C.3   1417  NAP1417     0.2314
     11  O2B      -32.0300  -12.1550    4.0690 O.3   1417  NAP1417    -0.2630
     12  C1B      -32.9770  -12.5010    2.0520 C.3   1417  NAP1417     0.3158
     13  N9A      -33.8250  -11.8600    1.0220 N.pl3 1417  NAP1417    -0.1439
     14  C8A      -34.9580  -12.3690    0.5160 C.3   1417  NAP1417     0.3377
     15  N7A      -35.4910  -11.5300   -0.4100 N.2   1417  NAP1417    -0.2095
     16  C5A      -34.6870  -10.4560   -0.5020 C.2   1417  NAP1417     0.2526
     17  C6A      -34.6640   -9.1990   -1.2900 C.2   1417  NAP1417     0.4393
     18  N6A      -35.6400   -8.9220   -2.1840 N.pl3 1417  NAP1417     0.2180
     19  N1A      -33.6390   -8.3390   -1.0710 N.2   1417  NAP1417     0.0021
     20  C2A      -32.6640   -8.6030   -0.1790 C.3   1417  NAP1417     0.5254
     21  N3A      -32.6210   -9.7250    0.5630 N.2   1417  NAP1417    -0.0055
     22  C4A      -33.5890  -10.6750    0.4510 C.2   1417  NAP1417     0.3518
     23  O3       -37.1390  -16.9010    2.5450 O.3   1417  NAP1417    -0.2703
     24  PN       -37.8970  -17.3340    3.8980 P.3   1417  NAP1417     0.2189
     25  O1N      -37.9000  -16.3150    4.9800 O.3   1417  NAP1417    -0.4371
     26  O2N      -37.1620  -18.6780    4.3550 O.2   1417  NAP1417    -0.5170
     27  O5D      -39.3790  -17.6010    3.3490 O.3   1417  NAP1417    -0.3112
     28  C5D      -40.4700  -16.7860    3.7630 C.3   1417  NAP1417     0.1813
     29  C4D      -41.6650  -17.1730    2.9040 C.3   1417  NAP1417     0.1799
     30  O4D      -41.3460  -17.0230    1.5150 O.3   1417  NAP1417    -0.3327
     31  C3D      -42.0800  -18.6230    3.1060 C.3   1417  NAP1417     0.2158
     32  O3D      -43.4900  -18.6760    3.3420 O.3   1417  NAP1417    -0.2175
     33  C2D      -41.7730  -19.3040    1.7900 C.3   1417  NAP1417     0.2309
     34  O2D      -42.7730  -20.2730    1.4680 O.3   1417  NAP1417    -0.2158
     35  C1D      -41.7820  -18.1660    0.7850 C.3   1417  NAP1417     0.2263
     36  N1N      -40.8930  -18.4020   -0.3580 N.pl3 1417  NAP1417    -0.2787
     37  C2N      -41.4100  -18.1930   -1.5850 C.3   1417  NAP1417     0.1244
     38  C3N      -40.6380  -18.3670   -2.7320 C.2   1417  NAP1417     0.0544
     39  C7N      -41.2650  -18.0970   -4.0740 C.2   1417  NAP1417     0.2818
     40  O7N      -42.3340  -17.4960   -4.0990 O.2   1417  NAP1417    -0.2670
     41  N7N      -40.6350  -18.4940   -5.1860 N.am  1417  NAP1417    -0.0839
     42  C4N      -39.3120  -18.7900   -2.6020 C.2   1417  NAP1417     0.0033
     43  C5N      -38.8030  -19.0050   -1.3160 C.2   1417  NAP1417     0.0157
     44  C6N      -39.6160  -18.8030   -0.1990 C.2   1417  NAP1417     0.0633
     45  P2B      -31.4520  -11.3020    5.3060 P.3   1417  NAP1417     0.5328
     46  O1X      -32.6680  -10.9740    6.3010 O.3   1417  NAP1417    -0.1145
     47  O2X      -30.7530   -9.9440    4.7880 O.2   1417  NAP1417    -0.2224
     48  O3X      -30.3950  -12.1240    5.9370 O.3   1417  NAP1417    -0.1145
@<TRIPOS>BOND
     1    41    39   am
     2    40    39    2
     3    39    38    1
     4    38    42    2
     5    38    37    1
     6    42    43    1
     7    18    17    1
     8    37    36    1
     9    43    44    2
    10    17    19    2
    11    17    16    1
    12    19    20    1
    13    16    15    2
    14    16    22    1
    15    15    14    1
    16    36    44    1
    17    36    35    1
    18    20    21    1
    19    22    21    2
    20    22    13    1
    21    14    13    1
    22     2     1    2
    23    35    30    1
    24    35    33    1
    25    13    12    1
    26    34    33    1
    27    30    29    1
    28    33    31    1
    29     1     3    1
    30     1    23    1
    31     1     4    1
    32    12     7    1
    33    12    10    1
    34     7     6    1
    35    23    24    1
    36    29    31    1
    37    29    28    1
    38     4     5    1
    39    31    32    1
    40    27    28    1
    41    27    24    1
    42    10     8    1
    43    10    11    1
    44     5     6    1
    45     6     8    1
    46    24    26    2
    47    24    25    1
    48     8     9    1
    49    11    45    1
    50    47    45    2
    51    45    48    1
    52    45    46    1
