@<TRIPOS>MOLECULE
4ajr_AKG_A_1.pdb
 10 9 0 0 0
SMALL
GASTEIGER

@<TRIPOS>ATOM
      1  C1       -38.6320  -22.0780   -4.5300 C.2   1418  AKG1418     0.4219
      2  O1       -38.8930  -22.9690   -5.3760 O.co2 1418  AKG1418    -0.2373
      3  O2       -37.8710  -21.1020   -4.7700 O.co2 1418  AKG1418    -0.2373
      4  C2       -39.2310  -22.2090   -3.2020 C.2   1418  AKG1418     0.2526
      5  O5       -38.5180  -22.2500   -2.2030 O.2   1418  AKG1418    -0.2843
      6  C3       -40.7330  -22.3230   -3.0820 C.3   1418  AKG1418     0.0881
      7  C4       -41.1410  -21.9060   -1.6740 C.3   1418  AKG1418     0.1224
      8  C5       -42.6430  -21.8840   -1.6200 C.2   1418  AKG1418     0.3653
      9  O3       -43.2720  -22.4950   -2.5150 O.co2 1418  AKG1418    -0.2456
     10  O4       -43.1960  -21.2570   -0.6910 O.co2 1418  AKG1418    -0.2456
@<TRIPOS>BOND
     1     2     1   ar
     2     3     1   ar
     3     1     4    1
     4     4     6    1
     5     4     5    2
     6     6     7    1
     7     9     8   ar
     8     7     8    1
     9     8    10   ar
