@<TRIPOS>MOLECULE
4ajs_ICT_A_1.pdb
 13 12 0 0 0
SMALL
GASTEIGER

@<TRIPOS>ATOM
      1  C1       -37.4450  -19.4300   -3.0710 C.2   502  ICT502      0.3952
      2  O1       -38.1870  -18.9490   -3.9500 O.co2 502  ICT502     -0.2428
      3  O2       -36.2500  -19.6880   -3.3260 O.co2 502  ICT502     -0.2428
      4  C2       -38.0070  -19.6850   -1.6960 C.3   502  ICT502      0.2651
      5  O7       -37.0030  -20.2330   -0.8340 O.3   502  ICT502     -0.2103
      6  C3       -39.1560  -20.6820   -1.7680 C.3   502  ICT502      0.1561
      7  C4       -39.8270  -20.8810   -0.4090 C.3   502  ICT502      0.1285
      8  C5       -40.5160  -19.6230    0.0690 C.2   502  ICT502      0.3655
      9  O3       -41.6510  -19.3530   -0.3800 O.co2 502  ICT502     -0.2456
     10  O4       -39.9310  -18.9100    0.9150 O.co2 502  ICT502     -0.2456
     11  C6       -38.6180  -22.0050   -2.2230 C.2   502  ICT502      0.3680
     12  O5       -38.4730  -22.1810   -3.4570 O.co2 502  ICT502     -0.2455
     13  O6       -38.3150  -22.8720   -1.3580 O.co2 502  ICT502     -0.2455
@<TRIPOS>BOND
     1     2     1   ar
     2    12    11   ar
     3     3     1   ar
     4     1     4    1
     5    11     6    1
     6    11    13   ar
     7     6     4    1
     8     6     7    1
     9     4     5    1
    10     7     8    1
    11     9     8   ar
    12     8    10   ar
