@<TRIPOS>MOLECULE
4ajs_A2P_A_1.pdb
 27 29 0 0 0
SMALL
GASTEIGER

@<TRIPOS>ATOM
      1  P1       -31.3450   -6.9140    7.3610 P.3   501  A2P501      0.5328
      2  O1P      -30.0450   -7.5320    8.0810 O.3   501  A2P501     -0.1145
      3  O2P      -32.5670   -6.8660    8.4070 O.3   501  A2P501     -0.1145
      4  O3P      -31.0290   -5.5400    6.9190 O.2   501  A2P501     -0.2224
      5  P2       -37.2490  -12.1040    5.2300 P.3   501  A2P501      0.5327
      6  O4P      -36.6640  -13.3710    4.4150 O.3   501  A2P501     -0.1145
      7  O5P      -38.1290  -11.2560    4.4050 O.2   501  A2P501     -0.2224
      8  O6P      -38.0250  -12.5970    6.5530 O.3   501  A2P501     -0.1145
      9  O5'      -35.8800  -11.3480    5.5870 O.3   501  A2P501     -0.2675
     10  C5'      -35.7660   -9.9340    5.4510 C.3   501  A2P501      0.1860
     11  C4'      -34.3060   -9.5980    5.7200 C.3   501  A2P501      0.1822
     12  O4'      -33.5220   -9.8810    4.5600 O.3   501  A2P501     -0.3136
     13  C3'      -34.1220   -8.1370    6.0780 C.3   501  A2P501      0.2157
     14  O3'      -33.9410   -8.0400    7.4920 O.3   501  A2P501     -0.2175
     15  C2'      -32.8940   -7.7050    5.3040 C.3   501  A2P501      0.2314
     16  O2'      -31.6970   -7.8330    6.0810 O.3   501  A2P501     -0.2630
     17  C1'      -32.7870   -8.7190    4.1780 C.3   501  A2P501      0.3158
     18  N9       -33.3440   -8.2530    2.8750 N.pl3 501  A2P501     -0.1439
     19  C8       -34.2810   -8.9080    2.1550 C.3   501  A2P501      0.3377
     20  N7       -34.5720   -8.2520    0.9980 N.2   501  A2P501     -0.2095
     21  C5       -33.8040   -7.1530    0.9620 C.2   501  A2P501      0.2526
     22  C6       -33.6160   -6.0230    0.0280 C.2   501  A2P501      0.4393
     23  N6       -34.3170   -5.9590   -1.1390 N.pl3 501  A2P501      0.2180
     24  N1       -32.7110   -5.0810    0.3840 N.2   501  A2P501      0.0021
     25  C2       -31.9990   -5.1450    1.5200 C.3   501  A2P501      0.5254
     26  N3       -32.1230   -6.1410    2.4180 N.2   501  A2P501     -0.0055
     27  C4       -32.9930   -7.1550    2.2000 C.2   501  A2P501      0.3518
@<TRIPOS>BOND
     1    23    22    1
     2    22    24    2
     3    22    21    1
     4    24    25    1
     5    21    20    2
     6    21    27    1
     7    20    19    1
     8    25    26    1
     9    19    18    1
    10    27    26    2
    11    27    18    1
    12    18    17    1
    13    17    12    1
    14    17    15    1
    15     7     5    2
    16     6     5    1
    17    12    11    1
    18     5     9    1
    19     5     8    1
    20    15    13    1
    21    15    16    1
    22    10     9    1
    23    10    11    1
    24    11    13    1
    25    13    14    1
    26    16     1    1
    27     4     1    2
    28     1     2    1
    29     1     3    1
