@<TRIPOS>MOLECULE
4ajw_VWN_A_1.pdb
 24 27 0 0 0
SMALL
GASTEIGER

@<TRIPOS>ATOM
      1  C1        10.0720   -4.2050    8.7630 C.2   2027  VWN2027     0.1904
      2  N2         9.5460   -3.3900    7.7280 N.pl3 2027  VWN2027    -0.2802
      3  C3         8.6860   -2.2470    8.0620 C.3   2027  VWN2027     0.1250
      4  C4         7.8220   -1.8920    6.8790 C.3   2027  VWN2027     0.1636
      5  O5         8.6020   -1.6330    5.7170 O.3   2027  VWN2027    -0.3501
      6  C6         9.3590   -2.7900    5.3750 C.3   2027  VWN2027     0.1636
      7  C7        10.3000   -3.1830    6.4840 C.3   2027  VWN2027     0.1250
      8  N8        11.1580   -4.9550    8.4310 N.2   2027  VWN2027    -0.3307
      9  C9        11.6940   -5.7390    9.3690 C.1   2027  VWN2027     0.1353
     10  N10       11.1950   -5.8280   10.6730 N.2   2027  VWN2027    -0.2739
     11  C11       10.0940   -5.0920   11.0700 C.1   2027  VWN2027     0.1989
     12  C12        9.5290   -4.2560   10.0560 C.3   2027  VWN2027     0.2107
     13  O13        9.6800   -5.1950   12.2330 O.2   2027  VWN2027    -0.2129
     14  C14       12.5470   -7.6900    8.0860 C.2   2027  VWN2027     0.1808
     15  C15       12.9060   -6.5740    9.0080 C.3   2027  VWN2027     0.2003
     16  N16       13.2910   -8.0030    6.9430 N.pl3 2027  VWN2027    -0.2616
     17  N17       11.5160   -8.4820    8.2700 N.2   2027  VWN2027    -0.3927
     18  C18       11.5640   -9.3780    7.2030 C.2   2027  VWN2027     0.1281
     19  C19       12.6490   -9.1000    6.3760 C.2   2027  VWN2027     0.0793
     20  C20       12.9270   -9.8550    5.2450 C.2   2027  VWN2027     0.0168
     21  C21       12.0810  -10.9190    4.9510 C.2   2027  VWN2027    -0.0028
     22  C22       10.9910  -11.2100    5.7670 C.2   2027  VWN2027    -0.0186
     23  C23       10.7210  -10.4450    6.8970 C.3   2027  VWN2027     0.0863
     24  C24       14.4910   -7.3780    6.3890 C.3   2027  VWN2027     0.1195
@<TRIPOS>BOND
     1    21    20    1
     2    21    22    2
     3    20    19    2
     4     6     5    1
     5     6     7    1
     6     5     4    1
     7    22    23    1
     8    19    16    1
     9    19    18    1
    10    24    16    1
    11     7     2    1
    12     4     3    1
    13    23    18    1
    14    16    14    1
    15    18    17    2
    16     2     3    1
    17     2     1    1
    18    14    17    2
    19    14    15    1
    20     8     1    2
    21     8     9    2
    22     1    12    1
    23    15     9    1
    24     9    10    2
    25    12    11    1
    26    10    11    2
    27    11    13    2
