@<TRIPOS>MOLECULE
4ak2_IDS_A_1.pdb
 16 16 0 0 0
SMALL
GASTEIGER

@<TRIPOS>ATOM
      1  C1        -8.7180   -9.6480  -25.1350 C.3   1710  IDS1710     0.1774
      2  C2        -8.9980   -9.7570  -26.6430 C.3   1710  IDS1710     0.2054
      3  C3       -10.1930  -10.6620  -26.9780 C.3   1710  IDS1710     0.2169
      4  C4       -11.4120  -10.4070  -26.0860 C.3   1710  IDS1710     0.2227
      5  C5       -10.9620  -10.4160  -24.6170 C.3   1710  IDS1710     0.2512
      6  C6       -12.0480  -10.1570  -23.6060 C.2   1710  IDS1710     0.3940
      7  O2        -9.2570   -8.4420  -27.1560 O.3   1710  IDS1710    -0.2384
      8  O3        -9.8240  -12.0390  -26.8870 O.3   1710  IDS1710    -0.2175
      9  O4       -12.0020   -9.1360  -26.3860 O.3   1710  IDS1710    -0.2171
     10  O5        -9.9410   -9.4150  -24.4380 O.3   1710  IDS1710    -0.3403
     11  O61      -12.9880  -10.9730  -23.4830 O.co2 1710  IDS1710    -0.2429
     12  O62      -11.9540   -9.0940  -22.9410 O.co2 1710  IDS1710    -0.2429
     13  S         -8.1010   -7.5010  -27.6530 S.3   1710  IDS1710    -0.0001
     14  O1S       -8.6540   -6.1760  -27.9480 O.2   1710  IDS1710    -0.3452
     15  O2S       -7.0970   -7.4590  -26.5700 O.3   1710  IDS1710    -0.2682
     16  O3S       -7.5970   -8.2030  -28.8370 O.2   1710  IDS1710    -0.3452
@<TRIPOS>BOND
     1    16    13    2
     2    14    13    2
     3    13     7    1
     4    13    15    1
     5     7     2    1
     6     3     8    1
     7     3     2    1
     8     3     4    1
     9     2     1    1
    10     9     4    1
    11     4     5    1
    12     1    10    1
    13     5    10    1
    14     5     6    1
    15     6    11   ar
    16     6    12   ar
