@<TRIPOS>MOLECULE
4ak2_SGN_A_1.pdb
 20 20 0 0 0
SMALL
GASTEIGER

@<TRIPOS>ATOM
      1  C1        -5.9780  -12.3970  -21.5380 C.3   1709  SGN1709     0.2895
      2  C2        -7.4080  -11.9820  -21.1800 C.3   1709  SGN1709     0.1858
      3  C3        -8.2020  -11.7930  -22.4780 C.3   1709  SGN1709     0.2073
      4  C4        -7.4830  -10.8420  -23.4180 C.3   1709  SGN1709     0.2133
      5  C5        -6.0530  -11.3090  -23.7070 C.3   1709  SGN1709     0.1826
      6  C6        -5.2900  -10.2210  -24.4710 C.3   1709  SGN1709     0.2046
      7  N         -7.9980  -12.9790  -20.2950 N.3   1709  SGN1709    -0.1129
      8  O1        -5.9570  -13.7150  -22.0780 O.3   1709  SGN1709    -0.1882
      9  O3        -9.4730  -11.2520  -22.1150 O.3   1709  SGN1709    -0.2186
     10  O4        -8.1220  -10.8840  -24.7050 O.3   1709  SGN1709    -0.2176
     11  O5        -5.4040  -11.4550  -22.4430 O.3   1709  SGN1709    -0.3245
     12  O6        -3.9830  -10.6700  -24.7780 O.3   1709  SGN1709    -0.2384
     13  S1        -7.7160  -13.0350  -18.7270 S.3   1709  SGN1709    -0.1288
     14  O1S       -8.8120  -13.7520  -18.1140 O.3   1709  SGN1709    -0.2918
     15  O2S       -6.4460  -13.6320  -18.4050 O.3   1709  SGN1709    -0.2918
     16  O3S       -7.6980  -11.5470  -18.2450 O.3   1709  SGN1709    -0.2918
     17  S2        -2.9660   -9.6920  -25.3950 S.3   1709  SGN1709    -0.0001
     18  O4S       -3.4010   -9.3420  -26.7460 O.2   1709  SGN1709    -0.3452
     19  O5S       -1.5540  -10.5270  -25.4620 O.2   1709  SGN1709    -0.3452
     20  O6S       -2.8010   -8.5660  -24.4650 O.3   1709  SGN1709    -0.2682
@<TRIPOS>BOND
     1    18    17    2
     2    19    17    2
     3    17    12    1
     4    17    20    1
     5    12     6    1
     6    10     4    1
     7     6     5    1
     8     5     4    1
     9     5    11    1
    10     4     3    1
    11     3     9    1
    12     3     2    1
    13    11     1    1
    14     8     1    1
    15     1     2    1
    16     2     7    1
    17     7    13    1
    18    13    15    1
    19    13    16    1
    20    13    14    1
