@<TRIPOS>MOLECULE
4akb_GAL_C_1.pdb
 12 12 0 0 0
SMALL
GASTEIGER

@<TRIPOS>ATOM
      1  C1       -13.2500   39.9210  -17.3390 C.3   1134  GAL1134     0.3024
      2  C2       -11.9830   39.1350  -17.0050 C.3   1134  GAL1134     0.2434
      3  C3       -12.3580   37.8110  -16.3480 C.3   1134  GAL1134     0.2199
      4  C4       -13.2460   38.0440  -15.1260 C.3   1134  GAL1134     0.2144
      5  C5       -14.4610   38.8780  -15.5320 C.3   1134  GAL1134     0.1836
      6  C6       -15.4070   39.2220  -14.4010 C.3   1134  GAL1134     0.2142
      7  O1       -12.9030   41.1390  -17.8840 O.3   1134  GAL1134    -0.1869
      8  O2       -11.2010   38.9130  -18.1750 O.3   1134  GAL1134    -0.2148
      9  O3       -11.1890   37.0780  -16.0010 O.3   1134  GAL1134    -0.2174
     10  O4       -12.5060   38.6940  -14.0960 O.3   1134  GAL1134    -0.2176
     11  O5       -14.0400   40.1060  -16.1530 O.3   1134  GAL1134    -0.3236
     12  O6       -14.8930   40.2230  -13.5300 O.3   1134  GAL1134    -0.2176
@<TRIPOS>BOND
     1     8     2    1
     2     7     1    1
     3     1     2    1
     4     1    11    1
     5     2     3    1
     6     3     9    1
     7     3     4    1
     8    11     5    1
     9     5     4    1
    10     5     6    1
    11     4    10    1
    12     6    12    1
