@<TRIPOS>MOLECULE
4akc_A2G_A_1.pdb
 15 15 0 0 0
SMALL
GASTEIGER

@<TRIPOS>ATOM
      1  O        -21.3740   -3.8750   26.7140 O.3   1135  A2G1135    -0.3242
      2  C1       -20.1680   -4.2830   26.0430 C.3   1135  A2G1135     0.2917
      3  O1       -20.3090   -5.5030   25.3070 O.3   1135  A2G1135    -0.1879
      4  C2       -18.8810   -4.2120   26.8860 C.3   1135  A2G1135     0.1871
      5  N2       -18.1800   -5.4820   27.0550 N.am  1135  A2G1135    -0.1991
      6  C3       -18.9750   -3.3420   28.1530 C.3   1135  A2G1135     0.2095
      7  O3       -17.6800   -2.8180   28.4820 O.3   1135  A2G1135    -0.2183
      8  C4       -19.9590   -2.1770   27.9650 C.3   1135  A2G1135     0.2136
      9  O4       -19.3910   -1.1770   27.0940 O.3   1135  A2G1135    -0.2176
     10  C5       -21.3460   -2.6780   27.5220 C.3   1135  A2G1135     0.1835
     11  C6       -22.3560   -1.6360   27.0510 C.3   1135  A2G1135     0.2142
     12  O6       -21.7640   -0.4600   26.4830 O.3   1135  A2G1135    -0.2176
     13  C7       -17.1050   -5.7760   26.3040 C.2   1135  A2G1135     0.2421
     14  O7       -17.1660   -5.9580   25.0870 O.2   1135  A2G1135    -0.2733
     15  C8       -15.8000   -5.8570   27.0510 C.3   1135  A2G1135     0.0964
@<TRIPOS>BOND
     1    14    13    2
     2     3     2    1
     3     2     1    1
     4     2     4    1
     5    13    15    1
     6    13     5   am
     7    12    11    1
     8     1    10    1
     9     4     5    1
    10     4     6    1
    11    11    10    1
    12     9     8    1
    13    10     8    1
    14     8     6    1
    15     6     7    1
