@<TRIPOS>MOLECULE
4akg_ATP_A_1.pdb
 31 33 0 0 0
SMALL
GASTEIGER

@<TRIPOS>ATOM
      1  PG        69.1230   -8.0570   14.0220 P.3   5093  ATP5093     0.5373
      2  O1G       70.3390   -8.9490   13.9570 O.2   5093  ATP5093    -0.2221
      3  O2G       69.2250   -6.9360   15.0290 O.3   5093  ATP5093    -0.1143
      4  O3G       67.8070   -8.7970   14.0440 O.3   5093  ATP5093    -0.1143
      5  PB        68.9750   -8.1370   11.2310 P.3   5093  ATP5093     0.2277
      6  O1B       68.0620   -9.3120   11.4880 O.3   5093  ATP5093    -0.4368
      7  O2B       70.3580   -8.3670   10.6700 O.2   5093  ATP5093    -0.5168
      8  O3B       69.1190   -7.3020   12.6000 O.3   5093  ATP5093    -0.2258
      9  PA        66.6950   -7.3960    9.7930 P.3   5093  ATP5093     0.2189
     10  O1A       66.7280   -8.5030    8.7670 O.2   5093  ATP5093    -0.5170
     11  O2A       65.8330   -7.5350   11.0250 O.3   5093  ATP5093    -0.4371
     12  O3A       68.2060   -7.1030   10.2670 O.3   5093  ATP5093    -0.2700
     13  O5'       66.2890   -6.0290    9.0460 O.3   5093  ATP5093    -0.3112
     14  C5'       66.4200   -5.9100    7.6310 C.3   5093  ATP5093     0.1813
     15  C4'       66.6450   -4.4490    7.2630 C.3   5093  ATP5093     0.1821
     16  O4'       67.5310   -4.3640    6.1430 O.3   5093  ATP5093    -0.3135
     17  C3'       65.3410   -3.7710    6.8770 C.3   5093  ATP5093     0.2184
     18  O3'       65.0830   -2.6700    7.7530 O.3   5093  ATP5093    -0.2174
     19  C2'       65.5240   -3.2730    5.4580 C.3   5093  ATP5093     0.2570
     20  O2'       65.3840   -1.8500    5.4150 O.3   5093  ATP5093    -0.2130
     21  C1'       66.9330   -3.6700    5.0450 C.3   5093  ATP5093     0.3186
     22  N9        66.8740   -4.5630    3.8600 N.pl3 5093  ATP5093    -0.1439
     23  C8        67.0870   -5.8920    3.8650 C.3   5093  ATP5093     0.3377
     24  N7        66.9590   -6.4130    2.6180 N.2   5093  ATP5093    -0.2095
     25  C5        66.6560   -5.4000    1.7860 C.2   5093  ATP5093     0.2526
     26  C6        66.3880   -5.2520    0.3360 C.2   5093  ATP5093     0.4393
     27  N6        66.4170   -6.3220   -0.4950 N.pl3 5093  ATP5093     0.2180
     28  N1        66.1120   -4.0140   -0.1300 N.2   5093  ATP5093     0.0021
     29  C2        66.0790   -2.9430    0.6850 C.3   5093  ATP5093     0.5254
     30  N3        66.3130   -3.0030    2.0080 N.2   5093  ATP5093    -0.0055
     31  C4        66.6020   -4.1820    2.6090 C.2   5093  ATP5093     0.3518
@<TRIPOS>BOND
     1    27    26    1
     2    28    26    2
     3    28    29    1
     4    26    25    1
     5    29    30    1
     6    25    31    1
     7    25    24    2
     8    30    31    2
     9    31    22    1
    10    24    23    1
    11    22    23    1
    12    22    21    1
    13    21    19    1
    14    21    16    1
    15    20    19    1
    16    19    17    1
    17    16    15    1
    18    17    15    1
    19    17    18    1
    20    15    14    1
    21    14    13    1
    22    10     9    2
    23    13     9    1
    24     9    12    1
    25     9    11    1
    26    12     5    1
    27     7     5    2
    28     5     6    1
    29     5     8    1
    30     8     1    1
    31     2     1    2
    32     1     4    1
    33     1     3    1
