@<TRIPOS>MOLECULE
4akg_ADP_A_1.pdb
 27 29 0 0 0
SMALL
GASTEIGER

@<TRIPOS>ATOM
      1  PB        71.5870   14.6380   32.6990 P.3   5094  ADP5094     0.5373
      2  O1B       70.5710   13.8250   33.4470 O.3   5094  ADP5094    -0.1143
      3  O2B       72.9270   14.6000   33.3600 O.3   5094  ADP5094    -0.1143
      4  O3B       71.5860   14.3100   31.2540 O.2   5094  ADP5094    -0.2221
      5  PA        70.7880   16.8380   34.2450 P.3   5094  ADP5094     0.2231
      6  O1A       69.4550   17.5480   34.1520 O.2   5094  ADP5094    -0.5169
      7  O2A       71.0460   15.8240   35.3450 O.3   5094  ADP5094    -0.4370
      8  O3A       71.0450   16.1390   32.8260 O.3   5094  ADP5094    -0.2261
      9  O5'       71.9760   17.9210   34.2220 O.3   5094  ADP5094    -0.3111
     10  C5'       71.7860   19.2730   33.8270 C.3   5094  ADP5094     0.1813
     11  C4'       72.2830   20.2100   34.9340 C.3   5094  ADP5094     0.1821
     12  O4'       72.9720   21.3090   34.3510 O.3   5094  ADP5094    -0.3135
     13  C3'       71.1000   20.7650   35.6900 C.3   5094  ADP5094     0.2184
     14  O3'       71.2990   20.5240   37.0700 O.3   5094  ADP5094    -0.2174
     15  C2'       71.0280   22.2390   35.4070 C.3   5094  ADP5094     0.2570
     16  O2'       71.0800   22.9350   36.6450 O.3   5094  ADP5094    -0.2130
     17  C1'       72.2860   22.5320   34.6020 C.3   5094  ADP5094     0.3186
     18  N9        71.9850   23.2360   33.3290 N.pl3 5094  ADP5094    -0.1439
     19  C8        72.5280   23.0160   32.1190 C.3   5094  ADP5094     0.3377
     20  N7        72.0640   23.8720   31.1490 N.2   5094  ADP5094    -0.2095
     21  C5        71.2040   24.6570   31.7750 C.2   5094  ADP5094     0.2526
     22  C6        70.3310   25.7680   31.3950 C.2   5094  ADP5094     0.4393
     23  N6        70.2970   26.1920   30.1310 N.pl3 5094  ADP5094     0.2180
     24  N1        69.5600   26.3340   32.3630 N.2   5094  ADP5094     0.0021
     25  C2        69.5590   25.9350   33.6590 C.3   5094  ADP5094     0.5254
     26  N3        70.3040   24.9010   34.0650 N.2   5094  ADP5094    -0.0055
     27  C4        71.1420   24.2520   33.2000 C.2   5094  ADP5094     0.3518
@<TRIPOS>BOND
     1    23    22    1
     2    20    21    2
     3    20    19    1
     4     4     1    2
     5    22    21    1
     6    22    24    2
     7    21    27    1
     8    19    18    1
     9    24    25    1
    10     1     8    1
    11     1     3    1
    12     1     2    1
    13     8     5    1
    14    27    18    1
    15    27    26    2
    16    18    17    1
    17    25    26    1
    18    10     9    1
    19    10    11    1
    20     6     5    2
    21     9     5    1
    22     5     7    1
    23    12    17    1
    24    12    11    1
    25    17    15    1
    26    11    13    1
    27    15    13    1
    28    15    16    1
    29    13    14    1
