@<TRIPOS>MOLECULE
4akh_ATP_A_1.pdb
 31 33 0 0 0
SMALL
GASTEIGER

@<TRIPOS>ATOM
      1  PG        68.9650   -9.0490   14.0030 P.3   5093  ATP5093     0.5373
      2  O1G       70.2310   -9.8980   13.9560 O.3   5093  ATP5093    -0.1143
      3  O2G       68.9430   -8.0490   15.1180 O.3   5093  ATP5093    -0.1143
      4  O3G       67.6830   -9.8300   13.8400 O.2   5093  ATP5093    -0.2221
      5  PB        68.8230   -8.8330   11.2160 P.3   5093  ATP5093     0.2277
      6  O1B       67.8490   -9.9700   11.3750 O.3   5093  ATP5093    -0.4368
      7  O2B       70.1810   -9.0840   10.5940 O.2   5093  ATP5093    -0.5168
      8  O3B       69.0500   -8.1590   12.6750 O.3   5093  ATP5093    -0.2258
      9  PA        66.6400   -7.8860    9.7620 P.3   5093  ATP5093     0.2189
     10  O1A       66.7200   -8.9500    8.7420 O.2   5093  ATP5093    -0.5170
     11  O2A       65.6500   -7.9920   10.9220 O.3   5093  ATP5093    -0.4371
     12  O3A       68.1100   -7.6750   10.3840 O.3   5093  ATP5093    -0.2700
     13  O5'       66.3040   -6.5250    8.9980 O.3   5093  ATP5093    -0.3112
     14  C5'       66.5840   -6.3590    7.6270 C.3   5093  ATP5093     0.1813
     15  C4'       66.8670   -4.8920    7.3050 C.3   5093  ATP5093     0.1821
     16  O4'       67.8510   -4.8230    6.2640 O.3   5093  ATP5093    -0.3135
     17  C3'       65.6130   -4.1710    6.8300 C.3   5093  ATP5093     0.2184
     18  O3'       65.3330   -3.0840    7.7120 O.3   5093  ATP5093    -0.2174
     19  C2'       65.9390   -3.6580    5.4430 C.3   5093  ATP5093     0.2570
     20  O2'       65.8660   -2.2180    5.4210 O.3   5093  ATP5093    -0.2130
     21  C1'       67.3610   -4.0860    5.1360 C.3   5093  ATP5093     0.3186
     22  N9        67.3490   -4.9690    3.9360 N.pl3 5093  ATP5093    -0.1439
     23  C8        67.5110   -6.3100    3.9300 C.3   5093  ATP5093     0.3377
     24  N7        67.4820   -6.8000    2.6700 N.2   5093  ATP5093    -0.2095
     25  C5        67.2910   -5.7660    1.8360 C.2   5093  ATP5093     0.2526
     26  C6        67.1690   -5.5800    0.3750 C.2   5093  ATP5093     0.4393
     27  N6        67.2340   -6.6370   -0.4640 N.pl3 5093  ATP5093     0.2180
     28  N1        66.9760   -4.3180   -0.0890 N.2   5093  ATP5093     0.0021
     29  C2        66.9170   -3.2610    0.7390 C.3   5093  ATP5093     0.5254
     30  N3        67.0340   -3.3510    2.0760 N.2   5093  ATP5093    -0.0055
     31  C4        67.2090   -4.5540    2.6760 C.2   5093  ATP5093     0.3518
@<TRIPOS>BOND
     1    27    26    1
     2    28    26    2
     3    28    29    1
     4    26    25    1
     5    29    30    1
     6    25    24    2
     7    25    31    1
     8    30    31    2
     9    24    23    1
    10    31    22    1
    11    23    22    1
    12    22    21    1
    13    21    19    1
    14    21    16    1
    15    20    19    1
    16    19    17    1
    17    16    15    1
    18    17    15    1
    19    17    18    1
    20    15    14    1
    21    14    13    1
    22    10     9    2
    23    13     9    1
    24     9    12    1
    25     9    11    1
    26    12     5    1
    27     7     5    2
    28     5     6    1
    29     5     8    1
    30     8     1    1
    31     4     1    2
    32     2     1    1
    33     1     3    1
