@<TRIPOS>MOLECULE
4akh_ANP_A_1.pdb
 31 33 0 0 0
SMALL
GASTEIGER

@<TRIPOS>ATOM
      1  PG        71.8350   11.4700   32.7400 P.3   5094  ANP5094     0.4884
      2  O1G       71.6910   10.6430   31.3690 O.2   5094  ANP5094    -0.2331
      3  O2G       72.5200   10.5350   33.8590 O.3   5094  ANP5094    -0.1240
      4  O3G       70.4810   11.8820   33.1770 O.3   5094  ANP5094    -0.1240
      5  PB        72.0970   14.4750   32.4810 P.3   5094  ANP5094     0.4669
      6  O1B       73.0600   15.4570   31.9590 O.3   5094  ANP5094    -0.1253
      7  O2B       70.8060   14.4620   31.5570 O.2   5094  ANP5094    -0.2351
      8  N3B       72.8250   12.8920   32.4890 N.3   5094  ANP5094    -0.0163
      9  PA        70.6310   16.1060   34.2360 P.3   5094  ANP5094     0.2220
     10  O1A       69.7140   15.6690   35.3560 O.3   5094  ANP5094    -0.4370
     11  O2A       70.1110   16.5760   32.8910 O.2   5094  ANP5094    -0.5170
     12  O3A       71.6730   14.8940   33.9740 O.3   5094  ANP5094    -0.2360
     13  O5'       71.5850   17.2500   34.8140 O.3   5094  ANP5094    -0.3111
     14  C5'       71.9100   18.4070   34.0620 C.3   5094  ANP5094     0.1813
     15  C4'       72.4270   19.5010   35.0120 C.3   5094  ANP5094     0.1821
     16  O4'       73.1550   20.4930   34.2860 O.3   5094  ANP5094    -0.3135
     17  C3'       71.2890   20.2180   35.7370 C.3   5094  ANP5094     0.2184
     18  O3'       71.4710   20.0490   37.1680 O.3   5094  ANP5094    -0.2174
     19  C2'       71.2950   21.6530   35.2990 C.3   5094  ANP5094     0.2570
     20  O2'       71.4120   22.4420   36.4610 O.3   5094  ANP5094    -0.2130
     21  C1'       72.5370   21.7800   34.4130 C.3   5094  ANP5094     0.3186
     22  N9        72.1380   22.2760   33.0720 N.pl3 5094  ANP5094    -0.1439
     23  C8        72.2800   21.6100   31.9130 C.3   5094  ANP5094     0.3377
     24  N7        71.8150   22.3400   30.8650 N.2   5094  ANP5094    -0.2095
     25  C5        71.3680   23.5090   31.3570 C.2   5094  ANP5094     0.2526
     26  C6        70.7430   24.7300   30.8010 C.2   5094  ANP5094     0.4393
     27  N6        70.5060   24.8620   29.4760 N.pl3 5094  ANP5094     0.2180
     28  N1        70.3980   25.7090   31.6630 N.2   5094  ANP5094     0.0021
     29  C2        70.6070   25.5930   32.9940 C.3   5094  ANP5094     0.5254
     30  N3        71.1740   24.5140   33.5640 N.2   5094  ANP5094    -0.0055
     31  C4        71.5700   23.4530   32.8110 C.2   5094  ANP5094     0.3518
@<TRIPOS>BOND
     1    27    26    1
     2    26    25    1
     3    26    28    2
     4    24    25    2
     5    24    23    1
     6    25    31    1
     7     2     1    2
     8     7     5    2
     9    28    29    1
    10    23    22    1
    11     6     5    1
    12     5     8    1
    13     5    12    1
    14     8     1    1
    15     1     4    1
    16     1     3    1
    17    31    22    1
    18    31    30    2
    19    11     9    2
    20    29    30    1
    21    22    21    1
    22    12     9    1
    23    14    13    1
    24    14    15    1
    25     9    13    1
    26     9    10    1
    27    16    21    1
    28    16    15    1
    29    21    19    1
    30    15    17    1
    31    19    17    1
    32    19    20    1
    33    17    18    1
