@<TRIPOS>MOLECULE
4aki_ATP_A_1.pdb
 31 33 0 0 0
SMALL
GASTEIGER

@<TRIPOS>ATOM
      1  PG       105.4630   -4.6530  114.7250 P.3   5093  ATP5093     0.5373
      2  O1G      104.2720   -3.6700  114.7220 O.2   5093  ATP5093    -0.2221
      3  O2G      105.2700   -5.6510  115.7840 O.3   5093  ATP5093    -0.1143
      4  O3G      106.8260   -4.0160  114.7760 O.3   5093  ATP5093    -0.1143
      5  PB       105.3720   -4.4830  111.9880 P.3   5093  ATP5093     0.2277
      6  O1B      106.2870   -3.2740  112.1970 O.3   5093  ATP5093    -0.4368
      7  O2B      103.9520   -4.1320  111.5040 O.2   5093  ATP5093    -0.5168
      8  O3B      105.3420   -5.3800  113.3440 O.3   5093  ATP5093    -0.2258
      9  PA       107.4910   -5.1570  110.3420 P.3   5093  ATP5093     0.2189
     10  O1A      107.3850   -4.0420  109.3910 O.2   5093  ATP5093    -0.5170
     11  O2A      108.4230   -5.0410  111.5480 O.3   5093  ATP5093    -0.4371
     12  O3A      105.9790   -5.4520  110.8550 O.3   5093  ATP5093    -0.2700
     13  O5'      108.1540   -6.3380  109.5170 O.3   5093  ATP5093    -0.3112
     14  C5'      107.5580   -6.6530  108.2950 C.3   5093  ATP5093     0.1813
     15  C4'      107.4410   -8.1610  108.0180 C.3   5093  ATP5093     0.1821
     16  O4'      106.4210   -8.3570  107.0220 O.3   5093  ATP5093    -0.3135
     17  C3'      108.7510   -8.6800  107.4250 C.3   5093  ATP5093     0.2184
     18  O3'      109.4020   -9.6440  108.1890 O.3   5093  ATP5093    -0.2174
     19  C2'      108.3850   -9.3090  106.1160 C.3   5093  ATP5093     0.2570
     20  O2'      108.3880  -10.7370  106.1390 O.3   5093  ATP5093    -0.2130
     21  C1'      106.9710   -8.9090  105.8210 C.3   5093  ATP5093     0.3186
     22  N9       106.9690   -7.9770  104.6360 N.pl3 5093  ATP5093    -0.1439
     23  C8       106.7930   -6.6480  104.6540 C.3   5093  ATP5093     0.3377
     24  N7       106.8490   -6.1320  103.4200 N.2   5093  ATP5093    -0.2095
     25  C5       107.0430   -7.1340  102.5800 C.2   5093  ATP5093     0.2526
     26  C6       107.1500   -7.2720  101.1270 C.2   5093  ATP5093     0.4393
     27  N6       107.0580   -6.1970  100.3180 N.pl3 5093  ATP5093     0.2180
     28  N1       107.3610   -8.5140  100.6260 N.2   5093  ATP5093     0.0021
     29  C2       107.4410   -9.5990  101.4130 C.3   5093  ATP5093     0.5254
     30  N3       107.3140   -9.5270  102.7460 N.2   5093  ATP5093    -0.0055
     31  C4       107.1350   -8.3430  103.3800 C.2   5093  ATP5093     0.3518
@<TRIPOS>BOND
     1    27    26    1
     2    28    26    2
     3    28    29    1
     4    26    25    1
     5    29    30    1
     6    25    31    1
     7    25    24    2
     8    30    31    2
     9    31    22    1
    10    24    23    1
    11    22    23    1
    12    22    21    1
    13    21    19    1
    14    21    16    1
    15    19    20    1
    16    19    17    1
    17    16    15    1
    18    17    15    1
    19    17    18    1
    20    15    14    1
    21    14    13    1
    22    10     9    2
    23    13     9    1
    24     9    12    1
    25     9    11    1
    26    12     5    1
    27     7     5    2
    28     5     6    1
    29     5     8    1
    30     8     1    1
    31     2     1    2
    32     1     4    1
    33     1     3    1
