@<TRIPOS>MOLECULE
4akn_S5B_A_1.pdb
 31 34 0 0 0
SMALL
GASTEIGER

@<TRIPOS>ATOM
      1  C01       18.8960    9.4190   -6.5500 C.3   1188  S5B1188     0.0556
      2  C02       19.8440    8.9080   -7.5830 C.ar  1188  S5B1188     0.1006
      3  N01       20.8020    8.0960   -7.2310 N.ar  1188  S5B1188    -0.0817
      4  O01       21.5210    7.7910   -8.4190 O.2   1188  S5B1188    -0.3581
      5  C03       20.9470    8.4460   -9.4300 C.ar  1188  S5B1188     0.1544
      6  C04       21.5550    8.2550  -10.7680 C.3   1188  S5B1188     0.0754
      7  C05       19.8920    9.1590   -8.9690 C.ar  1188  S5B1188     0.0497
      8  C06       19.0120   10.0240   -9.7890 C.ar  1188  S5B1188     0.0054
      9  C07       19.5580   11.0850  -10.5020 C.ar  1188  S5B1188     0.0003
     10  C08       18.7770   11.8840  -11.2770 C.ar  1188  S5B1188     0.0028
     11  C09       17.3810   11.6650  -11.3830 C.ar  1188  S5B1188     0.0331
     12  C10       16.4990   12.4770  -12.1780 C.ar  1188  S5B1188     0.0797
     13  N02       16.9790   13.5580  -12.8890 N.pl3 1188  S5B1188    -0.2125
     14  C11       17.8750   14.5090  -12.2780 C.ar  1188  S5B1188     0.0665
     15  C12       17.7640   14.8130  -10.9200 C.ar  1188  S5B1188     0.0162
     16  C13       18.6440   15.7040  -10.3310 C.ar  1188  S5B1188     0.0013
     17  C14       19.6380   16.2940  -11.0770 C.ar  1188  S5B1188    -0.0002
     18  C15       19.7700   16.0050  -12.4240 C.ar  1188  S5B1188    -0.0030
     19  C16       18.9080   15.1100  -13.0530 C.ar  1188  S5B1188    -0.0076
     20  C17       19.1110   14.8270  -14.5600 C.3   1188  S5B1188     0.0202
     21  C18       19.1730   13.3220  -14.8290 C.3   1188  S5B1188     0.0044
     22  C19       17.9580   15.4140  -15.3740 C.3   1188  S5B1188     0.0044
     23  C20       20.4140   15.4410  -15.0840 C.3   1188  S5B1188     0.0044
     24  C21       15.1240   12.1300  -12.1880 C.ar  1188  S5B1188     0.1140
     25  C22       14.7160   11.0310  -11.4310 C.ar  1188  S5B1188     0.1067
     26  N1        15.4830   10.2770  -10.6840 N.ar  1188  S5B1188    -0.2435
     27  C23       16.8180   10.5810  -10.6560 C.ar  1188  S5B1188     0.0826
     28  C24       17.6620    9.7700   -9.8630 C.ar  1188  S5B1188     0.0193
     29  C1        14.0850   12.8400  -12.9910 C.2   1188  S5B1188     0.3905
     30  O02       14.5200   13.8350  -13.7050 O.co2 1188  S5B1188    -0.2404
     31  O1        12.9260   12.4520  -13.0260 O.co2 1188  S5B1188    -0.2404
@<TRIPOS>BOND
     1    22    20    1
     2    23    20    1
     3    21    20    1
     4    20    19    1
     5    30    29   ar
     6    19    18   ar
     7    19    14   ar
     8    31    29   ar
     9    29    24    1
    10    13    14    1
    11    13    12    1
    12    18    17   ar
    13    14    15   ar
    14    24    12   ar
    15    24    25   ar
    16    12    11   ar
    17    25    26   ar
    18    11    10   ar
    19    11    27   ar
    20    10     9   ar
    21    17    16   ar
    22    15    16   ar
    23     6     5    1
    24    26    27   ar
    25    27    28   ar
    26     9     8   ar
    27    28     8   ar
    28     8     7    1
    29     5     7   ar
    30     5     4   ar
    31     7     2   ar
    32     4     3   ar
    33     2     3   ar
    34     2     1    1
