@<TRIPOS>MOLECULE
4aky_4LL_A_1.pdb
 16 17 0 0 0
SMALL
GASTEIGER

@<TRIPOS>ATOM
      1  C01       19.8320  -29.5460   29.3580 C.3   1235  4LL1235     0.0001
      2  C02       18.9340  -30.7680   29.1070 C.3   1235  4LL1235     0.0018
      3  C03       19.2270  -31.3290   27.7040 C.3   1235  4LL1235     0.0234
      4  C04       18.7400  -32.7870   27.6270 C.3   1235  4LL1235     0.1145
      5  N05       19.8590  -33.6760   27.3240 N.pl3 1235  4LL1235    -0.2132
      6  C06       20.3390  -34.6130   28.3310 C.2   1235  4LL1235     0.1803
      7  N07       20.6230  -34.1360   29.7240 N.2   1235  4LL1235    -0.3865
      8  C08       21.0990  -35.1100   30.7800 C.ar  1235  4LL1235     0.1710
      9  C09       21.2930  -36.5900   30.4190 C.ar  1235  4LL1235     0.0290
     10  C10       21.7840  -37.5830   31.4980 C.ar  1235  4LL1235     0.0024
     11  C11       22.0710  -37.0940   32.9280 C.ar  1235  4LL1235     0.0034
     12  C12       21.8750  -35.6110   33.2860 C.ar  1235  4LL1235     0.0447
     13  C13       21.3880  -34.6180   32.2100 C.ar  1235  4LL1235     0.2250
     14  O14       21.2080  -33.2640   32.5270 O.3   1235  4LL1235    -0.2838
     15  C15       21.0070  -37.0700   29.0140 C.2   1235  4LL1235    -0.0146
     16  C16       20.5320  -36.1050   27.9650 C.3   1235  4LL1235     0.1024
@<TRIPOS>BOND
     1     5     4    1
     2     5     6    1
     3     4     3    1
     4     3     2    1
     5    16     6    1
     6    16    15    1
     7     6     7    2
     8    15     9    2
     9     2     1    1
    10     7     8    2
    11     9     8   ar
    12     9    10   ar
    13     8    13   ar
    14    10    11   ar
    15    13    14    1
    16    13    12   ar
    17    11    12   ar
