@<TRIPOS>MOLECULE
4al0_GSH_A_1.pdb
 20 19 0 0 0
SMALL
GASTEIGER

@<TRIPOS>ATOM
      1  N1         4.3370   -8.1210   -8.1230 N.3   1153  GSH1153    -0.1208
      2  CA1        5.5570   -8.9630   -8.2300 C.3   1153  GSH1153     0.1948
      3  C1         5.9490   -9.1780   -9.6640 C.2   1153  GSH1153     0.3819
      4  O11        7.0790   -9.7040   -9.8930 O.co2 1153  GSH1153    -0.2441
      5  O12        5.1610   -8.8040  -10.5840 O.co2 1153  GSH1153    -0.2441
      6  CB1        5.3420  -10.2630   -7.4240 C.3   1153  GSH1153     0.0402
      7  CG1        6.5780  -11.1630   -7.2600 C.3   1153  GSH1153     0.0889
      8  CD1        7.7930  -10.3700   -6.8100 C.2   1153  GSH1153     0.2418
      9  OE1        7.7000   -9.4900   -5.9510 O.2   1153  GSH1153    -0.2733
     10  N2         8.9420  -10.6500   -7.4220 N.am  1153  GSH1153    -0.1968
     11  CA2       10.1800   -9.9480   -7.0890 C.3   1153  GSH1153     0.1843
     12  C2        10.3730   -8.6490   -7.8400 C.2   1153  GSH1153     0.2627
     13  O2        11.3850   -7.9860   -7.5930 O.2   1153  GSH1153    -0.2714
     14  CB2       11.3730  -10.8700   -7.3400 C.3   1153  GSH1153     0.0997
     15  SG2       11.5280  -11.3270   -9.0950 S.3   1153  GSH1153    -0.0797
     16  N3         9.4440   -8.3030   -8.7280 N.am  1153  GSH1153    -0.1917
     17  CA3        9.5420   -7.1040   -9.5400 C.3   1153  GSH1153     0.2285
     18  C3         8.3350   -6.2210   -9.5080 C.2   1153  GSH1153     0.3865
     19  O31        7.4570   -6.4010   -8.6290 O.co2 1153  GSH1153    -0.2437
     20  O32        8.3080   -5.3210  -10.3570 O.co2 1153  GSH1153    -0.2437
@<TRIPOS>BOND
     1     5     3   ar
     2    20    18   ar
     3     4     3   ar
     4     3     2    1
     5    17    18    1
     6    17    16    1
     7    18    19   ar
     8    15    14    1
     9    16    12   am
    10     2     1    1
    11     2     6    1
    12    12    13    2
    13    12    11    1
    14     6     7    1
    15    10    11    1
    16    10     8   am
    17    14    11    1
    18     7     8    1
    19     8     9    2
