@<TRIPOS>MOLECULE
4al1_48T_A_1.pdb
 35 36 0 0 0
SMALL
GASTEIGER

@<TRIPOS>ATOM
      1  N1         4.2420   -7.8260   -8.2640 N.3   1153  48T1153    -0.1208
      2  CA1        5.4820   -8.6220   -8.3400 C.3   1153  48T1153     0.1948
      3  C1         5.8540   -8.8660   -9.7930 C.2   1153  48T1153     0.3819
      4  O11        7.1270   -9.1380  -10.1130 O.co2 1153  48T1153    -0.2441
      5  CB1        5.3070   -9.9090   -7.5180 C.3   1153  48T1153     0.0402
      6  CG1        6.5180  -10.8600   -7.5560 C.3   1153  48T1153     0.0889
      7  CD1        7.8030  -10.1870   -7.1380 C.2   1153  48T1153     0.2418
      8  OE1        7.7680   -9.2620   -6.3420 O.2   1153  48T1153    -0.2733
      9  O12        5.0210   -8.7920  -10.6740 O.co2 1153  48T1153    -0.2441
     10  N2         8.9790  -10.6260   -7.6620 N.am  1153  48T1153    -0.1969
     11  CA2       10.2750  -10.0250   -7.3070 C.3   1153  48T1153     0.1834
     12  C2        10.4690   -8.6890   -7.9890 C.2   1153  48T1153     0.2626
     13  O2        11.4280   -7.9890   -7.6930 O.2   1153  48T1153    -0.2714
     14  CB2       11.4080  -10.9520   -7.7690 C.3   1153  48T1153     0.0890
     15  SG2       11.5210  -12.3620   -6.6360 S.3   1153  48T1153    -0.1297
     16  CZ4        8.3990  -15.8340   -0.7860 C.ar  1153  48T1153     0.0000
     17  CE4        7.9900  -15.9330    0.5360 C.ar  1153  48T1153     0.0000
     18  CD4        7.0580  -15.0470    1.0530 C.ar  1153  48T1153     0.0000
     19  CG4        6.5250  -14.0480    0.2530 C.ar  1153  48T1153     0.0000
     20  CB4        6.9210  -13.9370   -1.0680 C.ar  1153  48T1153     0.0000
     21  CH4        7.8560  -14.8380   -1.6030 C.ar  1153  48T1153     0.0000
     22  CH5        8.2770  -14.6700   -3.0140 C.ar  1153  48T1153     0.0000
     23  CB5        9.6130  -14.8750   -3.3880 C.ar  1153  48T1153     0.0001
     24  CG5       10.0000  -14.6870   -4.6950 C.ar  1153  48T1153     0.0029
     25  CD5        9.0580  -14.2860   -5.6650 C.ar  1153  48T1153     0.0356
     26  CE5        7.7250  -14.0700   -5.2800 C.ar  1153  48T1153     0.0029
     27  CZ5        7.3420  -14.2580   -3.9750 C.ar  1153  48T1153     0.0001
     28  O5         8.5840  -13.9410   -7.9280 O.2   1153  48T1153    -0.2904
     29  N3         9.5930   -8.2830   -8.9350 N.am  1153  48T1153    -0.1917
     30  CA3        9.7920   -7.0020   -9.6170 C.3   1153  48T1153     0.2285
     31  C3         8.6260   -6.0620   -9.4130 C.2   1153  48T1153     0.3865
     32  C13       10.8820  -13.8410   -7.4710 C.3   1153  48T1153     0.1265
     33  O31        7.8450   -6.1850   -8.4990 O.co2 1153  48T1153    -0.2437
     34  C14        9.4400  -14.0480   -7.0710 C.2   1153  48T1153     0.1839
     35  O32        8.4550   -5.0580  -10.2640 O.co2 1153  48T1153    -0.2437
@<TRIPOS>BOND
     1     9     3   ar
     2    35    31   ar
     3     4     3   ar
     4     3     2    1
     5    30    31    1
     6    30    29    1
     7    31    33   ar
     8    29    12   am
     9     2     1    1
    10     2     5    1
    11    12    13    2
    12    12    11    1
    13    28    34    2
    14    14    11    1
    15    14    15    1
    16    10    11    1
    17    10     7   am
    18     6     5    1
    19     6     7    1
    20    32    34    1
    21    32    15    1
    22     7     8    2
    23    34    25    1
    24    25    26   ar
    25    25    24   ar
    26    26    27   ar
    27    24    23   ar
    28    27    22   ar
    29    23    22   ar
    30    22    21    1
    31    21    20   ar
    32    21    16   ar
    33    20    19   ar
    34    16    17   ar
    35    19    18   ar
    36    17    18   ar
