@<TRIPOS>MOLECULE
4al4_W7E_A_1.pdb
 36 38 0 0 0
SMALL
GASTEIGER

@<TRIPOS>ATOM
      1  C28       13.2890  -13.9930    8.0910 C.ar  1333  W7E1333     0.0366
      2  C24       15.3080  -14.6270    9.2130 C.ar  1333  W7E1333     0.0366
      3  C27       12.5500  -14.5410    9.1230 C.ar  1333  W7E1333    -0.0011
      4  C25       14.5550  -15.2040   10.2190 C.ar  1333  W7E1333    -0.0011
      5  C5        21.5940   -5.8440    1.2450 C.2   1333  W7E1333     0.0301
      6  C6        20.3280   -5.8080    1.8020 C.2   1333  W7E1333     0.0186
      7  C8        19.4780   -7.2060    0.0350 C.2   1333  W7E1333     0.0084
      8  C26       13.1740  -15.1450   10.2030 C.ar  1333  W7E1333    -0.0209
      9  C4        21.8220   -6.5650    0.0720 C.2   1333  W7E1333     0.1234
     10  C23       14.6700  -14.0120    8.1550 C.ar  1333  W7E1333     0.1386
     11  C7        19.2730   -6.4960    1.2130 C.2   1333  W7E1333     0.0704
     12  C9        20.7490   -7.2360   -0.5160 C.3   1333  W7E1333     0.1292
     13  C2        22.8890   -7.4550   -1.6700 C.2   1333  W7E1333     0.1350
     14  C12       17.1260   -7.4910    1.9730 C.2   1333  W7E1333     0.2474
     15  C31       12.0150  -17.8170    9.7670 C.2   1333  W7E1333     0.3755
     16  C34       10.6980  -17.6120   11.8710 C.2   1333  W7E1333     0.3755
     17  C17       14.8770   -9.9600    4.0980 C.2   1333  W7E1333     0.3394
     18  C1        24.0140   -7.8010   -2.5850 C.3   1333  W7E1333     0.0736
     19  C21       14.7510  -12.8410    6.0490 C.3   1333  W7E1333     0.2288
     20  C29       12.3710  -15.8170   11.2870 C.3   1333  W7E1333     0.0491
     21  C14       15.9420   -7.1680    2.8490 C.3   1333  W7E1333     0.1106
     22  C20       15.6850  -11.8200    5.4780 C.3   1333  W7E1333     0.1640
     23  C15       14.7550   -8.0540    2.5580 C.3   1333  W7E1333     0.1265
     24  C30       11.3670  -16.8560   10.7470 C.3   1333  W7E1333     0.2103
     25  N3        23.0330   -6.6950   -0.6090 N.2   1333  W7E1333    -0.4032
     26  N11       17.9810   -6.4600    1.7880 N.am  1333  W7E1333    -0.1795
     27  N19       15.1920  -11.2600    4.2260 N.am  1333  W7E1333    -0.1832
     28  N16       15.0320   -9.4510    2.8650 N.am  1333  W7E1333    -0.1867
     29  O13       17.2760   -8.6020    1.4720 O.2   1333  W7E1333    -0.2729
     30  O32       11.4980  -18.0690    8.6900 O.co2 1333  W7E1333    -0.2450
     31  O35       11.1170  -18.6760   12.2980 O.co2 1333  W7E1333    -0.2450
     32  O18       14.4290   -9.2970    5.0330 O.2   1333  W7E1333    -0.2492
     33  O33       13.1370  -18.3330   10.1620 O.co2 1333  W7E1333    -0.2450
     34  O36        9.6620  -16.9890   12.3430 O.co2 1333  W7E1333    -0.2450
     35  O22       15.4260  -13.4670    7.1460 O.3   1333  W7E1333    -0.4735
     36  S10       21.2820   -8.0300   -1.9680 S.3   1333  W7E1333    -0.0759
@<TRIPOS>BOND
     1    18    13    1
     2    36    13    1
     3    36    12    1
     4    13    25    2
     5    25     9    2
     6    12     7    1
     7    12     9    1
     8     7    11    2
     9     9     5    1
    10    11    26    1
    11    11     6    1
    12     5     6    2
    13    29    14    2
    14    26    14   am
    15    14    21    1
    16    23    21    1
    17    23    28    1
    18    28    17   am
    19    17    27   am
    20    17    32    2
    21    27    22    1
    22    22    19    1
    23    19    35    1
    24    35    10    1
    25     1    10   ar
    26     1     3   ar
    27    10     2   ar
    28    30    15   ar
    29     3     8   ar
    30     2     4   ar
    31    15    33   ar
    32    15    24    1
    33     8     4   ar
    34     8    20    1
    35    24    20    1
    36    24    16    1
    37    16    31   ar
    38    16    34   ar
