@<TRIPOS>MOLECULE
4alb_HC4_A_1.pdb
 12 12 0 0 0
SMALL
GASTEIGER

@<TRIPOS>ATOM
      1  C1        35.1180  -16.2630  -24.0650 C.2   1161  HC41161     0.3880
      2  O1        34.0790  -16.4380  -24.7480 O.co2 1161  HC41161    -0.2405
      3  O2        35.2360  -15.2070  -23.4500 O.co2 1161  HC41161    -0.2405
      4  C2        36.1610  -17.4020  -24.0610 C.2   1161  HC41161     0.0861
      5  C3        35.9140  -18.6240  -24.8500 C.2   1161  HC41161     0.0068
      6  C1'       36.8910  -19.7100  -24.8570 C.ar  1161  HC41161     0.0004
      7  C2'       36.6430  -20.8610  -25.5910 C.ar  1161  HC41161     0.0033
      8  C3'       37.5690  -21.8880  -25.6010 C.ar  1161  HC41161     0.0420
      9  C4'       38.6700  -21.7800  -24.9090 C.ar  1161  HC41161     0.1957
     10  C5'       38.9200  -20.6200  -24.1700 C.ar  1161  HC41161     0.0420
     11  C6'       38.0020  -19.6010  -24.1610 C.ar  1161  HC41161     0.0033
     12  O4'       39.5720  -22.8390  -24.9560 O.3   1161  HC41161    -0.2866
@<TRIPOS>BOND
     1     8     7   ar
     2     8     9   ar
     3     7     6   ar
     4    12     9    1
     5     9    10   ar
     6     6     5    1
     7     6    11   ar
     8     5     4    2
     9     2     1   ar
    10    10    11   ar
    11     1     4    1
    12     1     3   ar
