@<TRIPOS>MOLECULE
4ald_2FP_A_1.pdb
 20 19 0 0 0
SMALL
GASTEIGER

@<TRIPOS>ATOM
      1  P6        -0.2560   25.1060   43.1950 P.3   364  2FP364      0.5327
      2  O6        -1.4050   26.3340   43.4370 O.3   364  2FP364     -0.2674
      3  C6        -0.9330   27.5570   42.7360 C.3   364  2FP364      0.1892
      4  C5         0.2410   28.2310   43.6250 C.3   364  2FP364      0.2147
      5  O5         1.8390   28.0440   43.1430 O.3   364  2FP364     -0.2176
      6  C4        -0.1130   29.7400   44.0800 C.3   364  2FP364      0.2174
      7  O4        -1.2660   29.7490   43.1250 O.3   364  2FP364     -0.2175
      8  C3         0.5230   31.1240   43.7220 C.3   364  2FP364      0.2174
      9  O3        -0.3590   32.4170   43.9840 O.3   364  2FP364     -0.2175
     10  C2         1.8790   31.8210   44.0310 C.3   364  2FP364      0.2147
     11  O2         2.3390   31.7620   45.5080 O.3   364  2FP364     -0.2176
     12  C1         2.4600   32.7410   43.0960 C.3   364  2FP364      0.1892
     13  O1         2.6950   32.8850   41.7960 O.3   364  2FP364     -0.2674
     14  O61        1.0380   24.6010   44.0360 O.3   364  2FP364     -0.1145
     15  O62        0.4900   25.3780   41.6530 O.2   364  2FP364     -0.2224
     16  O63       -1.2040   23.6840   43.2090 O.3   364  2FP364     -0.1145
     17  P1         3.1280   34.1890   40.7970 P.3   364  2FP364      0.5327
     18  O11        3.6780   35.5500   41.6470 O.3   364  2FP364     -0.1145
     19  O12        1.7780   34.7750   39.9500 O.3   364  2FP364     -0.1145
     20  O13        4.4030   33.9070   39.7570 O.2   364  2FP364     -0.2224
@<TRIPOS>BOND
     1    20    17    2
     2    19    17    1
     3    17    18    1
     4    17    13    1
     5    15     1    2
     6    13    12    1
     7     3     2    1
     8     3     4    1
     9    12    10    1
    10     7     6    1
    11     5     4    1
    12     1    16    1
    13     1     2    1
    14     1    14    1
    15     4     6    1
    16     8     9    1
    17     8    10    1
    18     8     6    1
    19    10    11    1
