@<TRIPOS>MOLECULE
4alg_1GH_A_1.pdb
 31 35 0 0 0
SMALL
GASTEIGER

@<TRIPOS>ATOM
      1  O2         7.8980   -7.8790   17.0070 O.2   1146  1GH1146    -0.1926
      2  C13        8.7570   -7.0500   17.2640 C.1   1146  1GH1146     0.2725
      3  N1         9.5310   -7.0130   18.4160 N.am  1146  1GH1146    -0.1997
      4  C6         9.4610   -8.0180   19.5040 C.3   1146  1GH1146     0.1296
      5  C8        10.7960   -8.7350   19.6440 C.ar  1146  1GH1146     0.0781
      6  N2        11.1040   -9.2440   20.8470 N.ar  1146  1GH1146    -0.2465
      7  C12       12.2880   -9.8800   20.9690 C.ar  1146  1GH1146     0.0985
      8  C11       13.1900  -10.0160   19.9410 C.ar  1146  1GH1146     0.0207
      9  C10       12.8600   -9.4860   18.7160 C.ar  1146  1GH1146     0.0029
     10  C9        11.6500   -8.8370   18.5550 C.ar  1146  1GH1146     0.0164
     11  C7         8.9190   -7.4290   20.8030 C.3   1146  1GH1146     0.0292
     12  N3         9.1380   -5.9870   16.5010 N.2   1146  1GH1146    -0.3221
     13  C14       10.1510   -5.2830   17.1310 C.2   1146  1GH1146     0.1618
     14  C5        10.4290   -5.9030   18.3540 C.2   1146  1GH1146     0.0929
     15  C15       10.8330   -4.1410   16.7250 C.3   1146  1GH1146     0.1863
     16  N4        11.7840   -3.5730   17.4270 N.2   1146  1GH1146    -0.2626
     17  C16       12.0940   -4.1360   18.6410 C.ar  1146  1GH1146     0.0780
     18  C4        11.4530   -5.2920   19.1450 C.ar  1146  1GH1146     0.0369
     19  C3        11.8600   -5.7950   20.4050 C.ar  1146  1GH1146     0.0397
     20  C17       13.1080   -3.5250   19.4080 C.ar  1146  1GH1146     0.0219
     21  C18       13.4730   -4.0170   20.6360 C.ar  1146  1GH1146     0.0394
     22  C2        12.8450   -5.1770   21.1220 C.ar  1146  1GH1146     0.1389
     23  O1        13.2900   -5.6010   22.3490 O.3   1146  1GH1146    -0.4714
     24  C1        12.4260   -6.4350   23.1120 C.3   1146  1GH1146     0.2525
     25  C19       14.5580   -3.3570   21.3910 C.ar  1146  1GH1146     0.0526
     26  C22       14.5280   -2.9050   22.6620 C.ar  1146  1GH1146     0.1545
     27  C23       13.4810   -2.8460   23.7090 C.3   1146  1GH1146     0.0754
     28  O3        15.7230   -2.3890   22.9840 O.2   1146  1GH1146    -0.3581
     29  N5        16.5820   -2.5330   21.8600 N.ar  1146  1GH1146    -0.0817
     30  C20       15.8700   -3.1100   20.9340 C.ar  1146  1GH1146     0.1007
     31  C21       16.4930   -3.4040   19.6110 C.3   1146  1GH1146     0.0557
@<TRIPOS>BOND
     1    12    13    2
     2    12     2    2
     3    15    13    1
     4    15    16    1
     5     1     2    2
     6    13    14    1
     7     2     3   am
     8    16    17    2
     9    14     3    1
    10    14    18    2
    11     3     4    1
    12    10     9   ar
    13    10     5   ar
    14    17    18   ar
    15    17    20   ar
    16     9     8   ar
    17    18    19   ar
    18    20    21   ar
    19     4     5    1
    20     4    11    1
    21    31    30    1
    22     5     6   ar
    23     8     7   ar
    24    19    22   ar
    25    21    22   ar
    26    21    25    1
    27     6     7   ar
    28    30    25   ar
    29    30    29   ar
    30    22    23    1
    31    25    26   ar
    32    29    28   ar
    33    23    24    1
    34    26    28   ar
    35    26    27    1
