@<TRIPOS>MOLECULE
4alh_A9P_A_1.pdb
 13 14 0 0 0
SMALL
GASTEIGER

@<TRIPOS>ATOM
      1  C5        18.8630    9.3630   -6.7140 C.3   1185  A9P1185     0.0556
      2  C4        19.8060    8.9930   -7.8110 C.ar  1185  A9P1185     0.1006
      3  N         20.8810    8.3200   -7.5200 N.ar  1185  A9P1185    -0.0817
      4  O         21.5670    8.1190   -8.7470 O.2   1185  A9P1185    -0.3581
      5  C6        19.7330    9.2730   -9.1890 C.ar  1185  A9P1185     0.0496
      6  C3        20.8490    8.7000   -9.7200 C.ar  1185  A9P1185     0.1544
      7  C2        21.3980    8.6130  -11.0950 C.3   1185  A9P1185     0.0754
      8  C7        18.6760   10.0120   -9.9250 C.ar  1185  A9P1185     0.0039
      9  C12       17.3410    9.6120   -9.8570 C.ar  1185  A9P1185     0.0001
     10  C11       16.3510   10.3510  -10.5100 C.ar  1185  A9P1185     0.0000
     11  C10       16.6970   11.4890  -11.2280 C.ar  1185  A9P1185     0.0000
     12  C9        18.0130   11.8860  -11.2910 C.ar  1185  A9P1185     0.0000
     13  C8        19.0010   11.1540  -10.6410 C.ar  1185  A9P1185     0.0001
@<TRIPOS>BOND
     1    12    11   ar
     2    12    13   ar
     3    11    10   ar
     4     7     6    1
     5    13     8   ar
     6    10     9   ar
     7     8     9   ar
     8     8     5    1
     9     6     5   ar
    10     6     4   ar
    11     5     2   ar
    12     4     3   ar
    13     2     3   ar
    14     2     1    1
