@<TRIPOS>MOLECULE
4ali_TCL_A_1.pdb
 17 18 0 0 0
SMALL
GASTEIGER

@<TRIPOS>ATOM
      1  C1        -0.1990   30.9190    5.9520 C.ar  1258  TCL1258     0.0566
      2  C2         0.0410   29.5710    5.6180 C.ar  1258  TCL1258     0.0611
      3  C6        -0.5940   31.2490    7.2110 C.ar  1258  TCL1258     0.2307
      4  C5        -0.7640   30.2120    8.2100 C.ar  1258  TCL1258     0.1840
      5  C4        -0.4680   28.8980    7.8950 C.ar  1258  TCL1258     0.0417
      6  C3        -0.1180   28.5600    6.5910 C.ar  1258  TCL1258     0.0147
      7  C11       -5.1290   30.5330   10.5220 C.ar  1258  TCL1258     0.0587
      8  C10       -4.1810   30.9060   11.4630 C.ar  1258  TCL1258     0.0259
      9  C9        -2.8640   30.9010   11.1380 C.ar  1258  TCL1258     0.0929
     10  C8        -2.4560   30.6000    9.7800 C.ar  1258  TCL1258     0.1559
     11  C12       -4.7360   30.2470    9.1870 C.ar  1258  TCL1258     0.0146
     12  C13       -3.4050   30.2860    8.8350 C.ar  1258  TCL1258     0.0392
     13  O7        -1.1460   30.5410    9.4670 O.3   1258  TCL1258    -0.4494
     14 CL14        0.5580   29.1480    3.9800 Cl    1258  TCL1258    -0.0821
     15 CL15       -6.8310   30.4860   10.9650 Cl    1258  TCL1258    -0.0822
     16 CL16       -1.6480   31.1930   12.3780 Cl    1258  TCL1258    -0.0790
     17  O17       -0.8510   32.5300    7.5220 O.3   1258  TCL1258    -0.2833
@<TRIPOS>BOND
     1    14     2    1
     2     2     1   ar
     3     2     6   ar
     4     1     3   ar
     5     6     5   ar
     6     3    17    1
     7     3     4   ar
     8     5     4   ar
     9     4    13    1
    10    12    11   ar
    11    12    10   ar
    12    11     7   ar
    13    13    10    1
    14    10     9   ar
    15     7    15    1
    16     7     8   ar
    17     9     8   ar
    18     9    16    1
