@<TRIPOS>MOLECULE
4ali_GLU_A_1.pdb
 10 9 0 0 0
SMALL
GASTEIGER

@<TRIPOS>ATOM
      1  N         -7.0890   18.7060    3.1340 N.3   1259  GLU1259    -0.1208
      2  CA        -7.5830   20.0640    3.3340 C.3   1259  GLU1259     0.1949
      3  C         -8.4720   20.4180    2.1540 C.2   1259  GLU1259     0.3819
      4  O         -9.7110   20.4360    2.3490 O.co2 1259  GLU1259    -0.2441
      5  CB        -6.3750   20.9680    3.2080 C.3   1259  GLU1259     0.0424
      6  CG        -5.7820   21.3810    4.5630 C.3   1259  GLU1259     0.1161
      7  CD        -4.2620   21.0930    4.5880 C.2   1259  GLU1259     0.3649
      8  OE1       -3.7540   20.4310    3.6120 O.co2 1259  GLU1259    -0.2457
      9  OE2       -3.6700   21.5090    5.6300 O.co2 1259  GLU1259    -0.2457
     10  OXT       -7.8840   20.6240    1.0640 O.co2 1259  GLU1259    -0.2441
@<TRIPOS>BOND
     1    10     3   ar
     2     3     4   ar
     3     3     2    1
     4     1     2    1
     5     5     2    1
     6     5     6    1
     7     8     7   ar
     8     6     7    1
     9     7     9   ar
