@<TRIPOS>MOLECULE
4ali_NAP_A_1.pdb
 48 52 0 0 0
SMALL
GASTEIGER

@<TRIPOS>ATOM
      1  PA         0.9140   28.2270   15.1000 P.3   1257  NAP1257     0.2189
      2  O1A        2.0580   27.4320   15.6150 O.3   1257  NAP1257    -0.4371
      3  O2A       -0.4050   27.5810   15.0750 O.2   1257  NAP1257    -0.5170
      4  O5B        0.7820   29.6290   15.8460 O.3   1257  NAP1257    -0.3112
      5  C5B       -0.3790   30.4220   15.8090 C.3   1257  NAP1257     0.1813
      6  C4B       -0.3230   31.1120   17.1570 C.3   1257  NAP1257     0.1820
      7  O4B       -1.2950   32.1430   17.1780 O.3   1257  NAP1257    -0.3136
      8  C3B       -0.6120   30.1620   18.3300 C.3   1257  NAP1257     0.2157
      9  O3B        0.4300   30.2410   19.2540 O.3   1257  NAP1257    -0.2175
     10  C2B       -1.8460   30.8000   18.9320 C.3   1257  NAP1257     0.2314
     11  O2B       -1.8870   30.6480   20.3310 O.3   1257  NAP1257    -0.2630
     12  C1B       -1.7020   32.2590   18.4920 C.3   1257  NAP1257     0.3158
     13  N9A       -2.9650   32.9700   18.5670 N.pl3 1257  NAP1257    -0.1439
     14  C8A       -4.0800   32.8280   17.8030 C.3   1257  NAP1257     0.3377
     15  N7A       -5.0350   33.6560   18.3150 N.2   1257  NAP1257    -0.2095
     16  C5A       -4.5150   34.3020   19.4010 C.2   1257  NAP1257     0.2526
     17  C6A       -5.0350   35.1970   20.3250 C.2   1257  NAP1257     0.4393
     18  N6A       -6.3020   35.6280   20.2330 N.pl3 1257  NAP1257     0.2180
     19  N1A       -4.2090   35.6830   21.3130 N.2   1257  NAP1257     0.0021
     20  C2A       -2.9070   35.2540   21.4550 C.3   1257  NAP1257     0.5254
     21  N3A       -2.4290   34.2930   20.5890 N.2   1257  NAP1257    -0.0055
     22  C4A       -3.2100   33.8590   19.5740 C.2   1257  NAP1257     0.3518
     23  O3         1.1240   28.5620   13.5470 O.3   1257  NAP1257    -0.2703
     24  PN         2.2200   29.3940   12.8060 P.3   1257  NAP1257     0.2189
     25  O1N        2.1080   28.9000   11.4530 O.2   1257  NAP1257    -0.5170
     26  O2N        3.5280   29.2680   13.5540 O.3   1257  NAP1257    -0.4371
     27  O5D        1.6530   30.8790   12.9150 O.3   1257  NAP1257    -0.3112
     28  C5D        2.4040   32.0060   13.3140 C.3   1257  NAP1257     0.1813
     29  C4D        2.2550   33.1460   12.3020 C.3   1257  NAP1257     0.1799
     30  O4D        2.8710   32.8160   11.0830 O.3   1257  NAP1257    -0.3327
     31  C3D        0.8360   33.5130   11.9050 C.3   1257  NAP1257     0.2158
     32  O3D        0.6990   34.9070   11.8070 O.3   1257  NAP1257    -0.2175
     33  C2D        0.6920   32.9410   10.5180 C.3   1257  NAP1257     0.2309
     34  O2D       -0.3150   33.5670    9.7650 O.3   1257  NAP1257    -0.2158
     35  C1D        2.0680   33.1820    9.9810 C.3   1257  NAP1257     0.2263
     36  N1N        2.4470   32.3950    8.7830 N.pl3 1257  NAP1257    -0.2787
     37  C2N        2.4320   31.0240    8.7860 C.3   1257  NAP1257     0.1244
     38  C3N        2.8680   30.3230    7.6640 C.2   1257  NAP1257     0.0544
     39  C7N        2.9630   28.8200    7.6620 C.2   1257  NAP1257     0.2818
     40  O7N        3.1120   28.2260    6.4170 O.2   1257  NAP1257    -0.2670
     41  N7N        2.8810   28.0640    8.7520 N.am  1257  NAP1257    -0.0839
     42  C4N        3.3580   31.0060    6.5620 C.2   1257  NAP1257     0.0033
     43  C5N        3.3960   32.3890    6.6020 C.2   1257  NAP1257     0.0157
     44  C6N        2.9170   33.0740    7.6970 C.2   1257  NAP1257     0.0633
     45  P2B       -2.8120   29.5460   21.0680 P.3   1257  NAP1257     0.5328
     46  O1X       -2.6150   28.2060   20.3740 O.2   1257  NAP1257    -0.2224
     47  O2X       -2.3690   29.6530   22.4850 O.3   1257  NAP1257    -0.1145
     48  O3X       -4.2780   29.8770   20.8840 O.3   1257  NAP1257    -0.1145
@<TRIPOS>BOND
     1    40    39    2
     2    42    43    1
     3    42    38    2
     4    43    44    2
     5    39    38    1
     6    39    41   am
     7    38    37    1
     8    44    36    1
     9    36    37    1
    10    36    35    1
    11    34    33    1
    12    35    33    1
    13    35    30    1
    14    33    31    1
    15    30    29    1
    16    25    24    2
    17    32    31    1
    18    31    29    1
    19    29    28    1
    20    24    27    1
    21    24    23    1
    22    24    26    1
    23    27    28    1
    24    23     1    1
    25     3     1    2
    26     1     2    1
    27     1     4    1
    28     5     4    1
    29     5     6    1
    30     6     7    1
    31     6     8    1
    32     7    12    1
    33    14    15    1
    34    14    13    1
    35    15    16    2
    36     8    10    1
    37     8     9    1
    38    12    13    1
    39    12    10    1
    40    13    22    1
    41    10    11    1
    42    16    22    1
    43    16    17    1
    44    22    21    2
    45    18    17    1
    46    17    19    2
    47    11    45    1
    48    46    45    2
    49    21    20    1
    50    48    45    1
    51    45    47    1
    52    19    20    1
