@<TRIPOS>MOLECULE
4alj_CH8_A_1.pdb
 15 16 0 0 0
SMALL
GASTEIGER

@<TRIPOS>ATOM
      1  CAF       -2.9990   31.3990   10.9560 C.ar  1258  CH81258     0.0375
      2  CAD       -4.3560   31.6650   11.1610 C.ar  1258  CH81258     0.0031
      3  CAC       -5.3060   31.3360   10.2050 C.ar  1258  CH81258     0.0002
      4  CAE       -4.8820   30.8770    8.9550 C.ar  1258  CH81258     0.0031
      5  CAG       -3.5380   30.6210    8.7200 C.ar  1258  CH81258     0.0375
      6  CAN       -2.5950   30.9100    9.7160 C.ar  1258  CH81258     0.1454
      7  OAK       -1.2560   30.6920    9.4970 O.3   1258  CH81258    -0.4503
      8  CAO       -0.8660   30.3440    8.2320 C.ar  1258  CH81258     0.1840
      9  CAI       -0.5820   29.0060    7.9900 C.ar  1258  CH81258     0.0417
     10  CAH       -0.2150   28.6220    6.7190 C.ar  1258  CH81258     0.0147
     11  CAL       -0.0010   29.6120    5.7470 C.ar  1258  CH81258     0.0611
     12 CL1         0.5520   29.2160    4.1630 Cl    1258  CH81258    -0.0821
     13  CAJ       -0.2150   30.9560    5.9890 C.ar  1258  CH81258     0.0566
     14  CAM       -0.6370   31.3060    7.2510 C.ar  1258  CH81258     0.2307
     15  OAA       -0.8600   32.6130    7.4370 O.3   1258  CH81258    -0.2833
@<TRIPOS>BOND
     1    12    11    1
     2    11    13   ar
     3    11    10   ar
     4    13    14   ar
     5    10     9   ar
     6    14    15    1
     7    14     8   ar
     8     9     8   ar
     9     8     7    1
    10     5     4   ar
    11     5     6   ar
    12     4     3   ar
    13     7     6    1
    14     6     1   ar
    15     3     2   ar
    16     1     2   ar
