@<TRIPOS>MOLECULE
4alj_NAP_A_1.pdb
 48 52 0 0 0
SMALL
GASTEIGER

@<TRIPOS>ATOM
      1  PA         0.6700   28.5250   15.2590 P.3   400  NAP400      0.2189
      2  O1A        1.7450   27.7070   15.8340 O.3   400  NAP400     -0.4371
      3  O2A       -0.6840   27.9410   15.1640 O.2   400  NAP400     -0.5170
      4  O5B        0.6810   29.9310   16.0160 O.3   400  NAP400     -0.3112
      5  C5B       -0.4490   30.7490   15.9290 C.3   400  NAP400      0.1813
      6  C4B       -0.4370   31.4130   17.2840 C.3   400  NAP400      0.1820
      7  O4B       -1.3530   32.4950   17.3240 O.3   400  NAP400     -0.3136
      8  C3B       -0.7380   30.4330   18.4090 C.3   400  NAP400      0.2157
      9  O3B        0.3780   30.4760   19.2950 O.3   400  NAP400     -0.2175
     10  C2B       -1.9790   31.0390   19.0160 C.3   400  NAP400      0.2314
     11  O2B       -2.0180   30.8780   20.4190 O.3   400  NAP400     -0.2630
     12  C1B       -1.8210   32.5080   18.6450 C.3   400  NAP400      0.3158
     13  N9A       -3.1110   33.1800   18.7390 N.pl3 400  NAP400     -0.1439
     14  C8A       -4.2360   32.9970   17.9810 C.3   400  NAP400      0.3377
     15  N7A       -5.1800   33.8330   18.4660 N.2   400  NAP400     -0.2095
     16  C5A       -4.6810   34.5150   19.5170 C.2   400  NAP400      0.2526
     17  C6A       -5.2260   35.4400   20.4000 C.2   400  NAP400      0.4393
     18  N6A       -6.4960   35.8490   20.2940 N.pl3 400  NAP400      0.2180
     19  N1A       -4.4000   35.9920   21.3660 N.2   400  NAP400      0.0021
     20  C2A       -3.0980   35.5590   21.5020 C.3   400  NAP400      0.5254
     21  N3A       -2.5930   34.5900   20.6640 N.2   400  NAP400     -0.0055
     22  C4A       -3.3720   34.1050   19.6910 C.2   400  NAP400      0.3518
     23  O3         0.9220   28.7610   13.6890 O.3   400  NAP400     -0.2703
     24  PN         2.0000   29.5230   12.8200 P.3   400  NAP400      0.2189
     25  O1N        1.7990   29.0380   11.4750 O.2   400  NAP400     -0.5170
     26  O2N        3.3420   29.4740   13.5140 O.3   400  NAP400     -0.4371
     27  O5D        1.4610   31.0370   12.8880 O.3   400  NAP400     -0.3112
     28  C5D        2.2020   32.1080   13.4030 C.3   400  NAP400      0.1813
     29  C4D        2.1980   33.2590   12.4160 C.3   400  NAP400      0.1799
     30  O4D        2.9060   32.9810   11.2180 O.3   400  NAP400     -0.3327
     31  C3D        0.7870   33.5950   11.9850 C.3   400  NAP400      0.2158
     32  O3D        0.7580   34.9850   11.8980 O.3   400  NAP400     -0.2175
     33  C2D        0.6670   33.0510   10.5870 C.3   400  NAP400      0.2309
     34  O2D       -0.3040   33.7550    9.8460 O.3   400  NAP400     -0.2158
     35  C1D        2.0820   33.3440   10.1390 C.3   400  NAP400      0.2263
     36  N1N        2.4740   32.5640    8.9610 N.pl3 400  NAP400     -0.2787
     37  C2N        2.4580   31.1940    8.9970 C.3   400  NAP400      0.1244
     38  C3N        2.8290   30.5130    7.8340 C.2   400  NAP400      0.0544
     39  C7N        2.8350   29.0070    7.8180 C.2   400  NAP400      0.2818
     40  O7N        3.0880   28.3800    6.6300 O.2   400  NAP400     -0.2670
     41  N7N        2.6710   28.2320    8.8680 N.am  400  NAP400     -0.0839
     42  C4N        3.2960   31.2100    6.7120 C.2   400  NAP400      0.0033
     43  C5N        3.3110   32.5930    6.7040 C.2   400  NAP400      0.0157
     44  C6N        2.8760   33.2540    7.8480 C.2   400  NAP400      0.0633
     45  P2B       -2.9610   29.7950   21.1280 P.3   400  NAP400      0.5328
     46  O1X       -4.4320   30.0860   20.8750 O.3   400  NAP400     -0.1145
     47  O2X       -2.6680   29.9000   22.5730 O.3   400  NAP400     -0.1145
     48  O3X       -2.7070   28.4100   20.5280 O.2   400  NAP400     -0.2224
@<TRIPOS>BOND
     1    40    39    2
     2    43    42    1
     3    43    44    2
     4    42    38    2
     5    39    38    1
     6    39    41   am
     7    38    37    1
     8    44    36    1
     9    36    37    1
    10    36    35    1
    11    34    33    1
    12    35    33    1
    13    35    30    1
    14    33    31    1
    15    30    29    1
    16    25    24    2
    17    32    31    1
    18    31    29    1
    19    29    28    1
    20    24    27    1
    21    24    26    1
    22    24    23    1
    23    27    28    1
    24    23     1    1
    25     3     1    2
    26     1     2    1
    27     1     4    1
    28     5     4    1
    29     5     6    1
    30     6     7    1
    31     6     8    1
    32     7    12    1
    33    14    15    1
    34    14    13    1
    35     8    10    1
    36     8     9    1
    37    15    16    2
    38    12    13    1
    39    12    10    1
    40    13    22    1
    41    10    11    1
    42    16    22    1
    43    16    17    1
    44    22    21    2
    45    18    17    1
    46    17    19    2
    47    11    45    1
    48    48    45    2
    49    21    20    1
    50    46    45    1
    51    45    47    1
    52    19    20    1
