@<TRIPOS>MOLECULE
4alj_GLU_A_1.pdb
 10 9 0 0 0
SMALL
GASTEIGER

@<TRIPOS>ATOM
      1  N         -7.1770   20.4620    3.9820 N.3   1257  GLU1257    -0.1208
      2  CA        -7.1920   20.5300    2.5160 C.3   1257  GLU1257     0.1949
      3  C         -8.6490   20.6930    2.1030 C.2   1257  GLU1257     0.3819
      4  O         -8.8840   21.3630    1.0680 O.co2 1257  GLU1257    -0.2441
      5  CB        -6.6100   19.2420    1.9180 C.3   1257  GLU1257     0.0424
      6  CG        -5.9170   19.4300    0.5520 C.3   1257  GLU1257     0.1161
      7  CD        -4.3540   19.4730    0.6270 C.2   1257  GLU1257     0.3649
      8  OE1       -3.8190   19.8200    1.7380 O.co2 1257  GLU1257    -0.2457
      9  OE2       -3.7490   19.2910   -0.4830 O.co2 1257  GLU1257    -0.2457
     10  OXT       -9.5110   20.1730    2.8500 O.co2 1257  GLU1257    -0.2441
@<TRIPOS>BOND
     1     9     7   ar
     2     6     7    1
     3     6     5    1
     4     7     8   ar
     5     4     3   ar
     6     5     2    1
     7     3     2    1
     8     3    10   ar
     9     2     1    1
