@<TRIPOS>MOLECULE
4alk_E9P_A_1.pdb
 16 17 0 0 0
SMALL
GASTEIGER

@<TRIPOS>ATOM
      1  C1       -18.3530    0.1830   25.8240 C.ar  1001  E9P1001     0.1839
      2  C2       -18.5320   -0.9790   26.6020 C.ar  1001  E9P1001     0.2295
      3  C3       -18.0990   -2.2150   26.1430 C.ar  1001  E9P1001     0.0410
      4  C4       -17.4630   -2.2800   24.8960 C.ar  1001  E9P1001    -0.0188
      5  C5       -17.3370   -1.1380   24.1000 C.ar  1001  E9P1001    -0.0009
      6  C6       -17.7910    0.0990   24.5590 C.ar  1001  E9P1001     0.0405
      7  O7       -18.8180    1.3730   26.3110 O.3   1001  E9P1001    -0.4503
      8  C8       -18.0620    2.1100   27.1350 C.ar  1001  E9P1001     0.1454
      9  C9       -16.7470    1.7330   27.3880 C.ar  1001  E9P1001     0.0375
     10  C10      -15.9580    2.5060   28.2460 C.ar  1001  E9P1001     0.0031
     11  C11      -16.4970    3.6800   28.7880 C.ar  1001  E9P1001     0.0002
     12  C12      -17.8050    4.0510   28.4900 C.ar  1001  E9P1001     0.0031
     13  C13      -18.6390    3.2490   27.6980 C.ar  1001  E9P1001     0.0375
     14  C14      -16.9920   -3.6120   24.3750 C.3   1001  E9P1001     0.0265
     15  CAA      -15.4970   -3.8450   24.6370 C.3   1001  E9P1001     0.0050
     16  O16      -19.1430   -0.8480   27.8210 O.3   1001  E9P1001    -0.2833
@<TRIPOS>BOND
     1     5     6   ar
     2     5     4   ar
     3    14    15    1
     4    14     4    1
     5     6     1   ar
     6     4     3   ar
     7     1     7    1
     8     1     2   ar
     9     3     2   ar
    10     7     8    1
    11     2    16    1
    12     8     9   ar
    13     8    13   ar
    14     9    10   ar
    15    13    12   ar
    16    10    11   ar
    17    12    11   ar
