@<TRIPOS>MOLECULE
4alk_NAP_A_1.pdb
 48 52 0 0 0
SMALL
GASTEIGER

@<TRIPOS>ATOM
      1  PA       -22.0980    5.8340   22.8600 P.3   400  NAP400      0.2189
      2  O1A      -22.7680    5.9850   21.5380 O.2   400  NAP400     -0.5170
      3  O2A      -20.8710    6.5790   23.1700 O.3   400  NAP400     -0.4371
      4  O5B      -23.1720    6.0830   24.0250 O.3   400  NAP400     -0.3112
      5  C5B      -22.7260    6.3390   25.3550 C.3   400  NAP400      0.1813
      6  C4B      -23.7700    7.3050   25.9360 C.3   400  NAP400      0.1820
      7  O4B      -23.5820    7.5690   27.3170 O.3   400  NAP400     -0.3136
      8  C3B      -23.7290    8.6630   25.2230 C.3   400  NAP400      0.2157
      9  O3B      -24.9880    8.9080   24.6510 O.3   400  NAP400     -0.2175
     10  C2B      -23.4710    9.6480   26.3550 C.3   400  NAP400      0.2314
     11  O2B      -24.1270   10.8910   26.1490 O.3   400  NAP400     -0.2630
     12  C1B      -24.0660    8.8590   27.5400 C.3   400  NAP400      0.3158
     13  N9A      -23.6000    9.4030   28.8100 N.pl3 400  NAP400     -0.1439
     14  C8A      -22.3080    9.3410   29.3020 C.3   400  NAP400      0.3377
     15  N7A      -22.2840   10.0070   30.4960 N.2   400  NAP400     -0.2095
     16  C5A      -23.5340   10.4950   30.7450 C.2   400  NAP400      0.2526
     17  C6A      -24.0310   11.2840   31.7720 C.2   400  NAP400      0.4393
     18  N6A      -23.2470   11.6810   32.7900 N.pl3 400  NAP400      0.2180
     19  N1A      -25.3600   11.6230   31.7390 N.2   400  NAP400      0.0021
     20  C2A      -26.1880   11.2140   30.7110 C.3   400  NAP400      0.5254
     21  N3A      -25.6900   10.4530   29.6630 N.2   400  NAP400     -0.0055
     22  C4A      -24.3650   10.1460   29.6740 C.2   400  NAP400      0.3518
     23  O3       -21.6160    4.3090   23.0960 O.3   400  NAP400     -0.2703
     24  PN       -22.3550    2.8920   23.2130 P.3   400  NAP400      0.2189
     25  O1N      -21.2840    1.9320   22.8780 O.3   400  NAP400     -0.4371
     26  O2N      -23.5580    3.0170   22.4270 O.2   400  NAP400     -0.5170
     27  O5D      -22.7850    2.8890   24.7940 O.3   400  NAP400     -0.3112
     28  C5D      -24.0660    2.4630   25.2200 C.3   400  NAP400      0.1813
     29  C4D      -24.0080    1.4140   26.3420 C.3   400  NAP400      0.1799
     30  O4D      -23.6080    0.1540   25.8030 O.3   400  NAP400     -0.3327
     31  C3D      -23.0390    1.7380   27.4870 C.3   400  NAP400      0.2158
     32  O3D      -23.6740    1.4030   28.7180 O.3   400  NAP400     -0.2175
     33  C2D      -21.8820    0.7810   27.2050 C.3   400  NAP400      0.2309
     34  O2D      -21.0860    0.4770   28.3240 O.3   400  NAP400     -0.2158
     35  C1D      -22.6340   -0.4220   26.6770 C.3   400  NAP400      0.2263
     36  N1N      -21.9400   -1.4220   25.8620 N.pl3 400  NAP400     -0.2787
     37  C2N      -21.2820   -1.0070   24.7180 C.3   400  NAP400      0.1244
     38  C3N      -20.7000   -1.9820   23.9070 C.2   400  NAP400      0.0544
     39  C7N      -20.1070   -1.6100   22.5680 C.2   400  NAP400      0.2818
     40  O7N      -19.2830   -2.6040   22.1210 O.2   400  NAP400     -0.2670
     41  N7N      -20.2930   -0.4690   21.8770 N.am  400  NAP400     -0.0839
     42  C4N      -20.8050   -3.3390   24.2500 C.2   400  NAP400      0.0033
     43  C5N      -21.5070   -3.7330   25.3820 C.2   400  NAP400      0.0157
     44  C6N      -22.0730   -2.7520   26.1910 C.2   400  NAP400      0.0633
     45  P2B      -23.2710   12.2180   25.7000 P.3   400  NAP400      0.5328
     46  O1X      -24.3410   13.2190   25.5200 O.3   400  NAP400     -0.1145
     47  O2X      -22.3510   12.6830   26.7900 O.3   400  NAP400     -0.1145
     48  O3X      -22.4460   11.8460   24.4860 O.2   400  NAP400     -0.2224
@<TRIPOS>BOND
     1     2     1    2
     2    41    39   am
     3    40    39    2
     4    26    24    2
     5    39    38    1
     6     1    23    1
     7     1     3    1
     8     1     4    1
     9    25    24    1
    10    23    24    1
    11    24    27    1
    12    38    42    2
    13    38    37    1
    14     4     5    1
    15    42    43    1
    16    48    45    2
    17     9     8    1
    18    37    36    1
    19    27    28    1
    20    28    29    1
    21     8     6    1
    22     8    10    1
    23     5     6    1
    24    43    44    2
    25    46    45    1
    26    45    11    1
    27    45    47    1
    28    30    29    1
    29    30    35    1
    30    36    44    1
    31    36    35    1
    32     6     7    1
    33    11    10    1
    34    29    31    1
    35    10    12    1
    36    35    33    1
    37    33    31    1
    38    33    34    1
    39     7    12    1
    40    31    32    1
    41    12    13    1
    42    13    14    1
    43    13    22    1
    44    14    15    1
    45    21    22    2
    46    21    20    1
    47    22    16    1
    48    15    16    2
    49    20    19    1
    50    16    17    1
    51    19    17    2
    52    17    18    1
