@<TRIPOS>MOLECULE
4alk_GLU_A_1.pdb
 10 9 0 0 0
SMALL
GASTEIGER

@<TRIPOS>ATOM
      1  N         -4.4770    2.3280   20.3770 N.3   1002  GLU1002    -0.1208
      2  CA        -5.0180    1.5500   21.5040 C.3   1002  GLU1002     0.1949
      3  C         -3.8890    0.7420   22.1560 C.2   1002  GLU1002     0.3819
      4  O         -3.1540    1.3580   22.9660 O.co2 1002  GLU1002    -0.2441
      5  CB        -6.0860    0.5740   21.0130 C.3   1002  GLU1002     0.0424
      6  CG        -6.9690    1.2200   19.9410 C.3   1002  GLU1002     0.1161
      7  CD        -8.3140    0.4940   19.8080 C.2   1002  GLU1002     0.3649
      8  OE1       -9.2440    0.9550   20.5150 O.co2 1002  GLU1002    -0.2457
      9  OE2       -8.3870   -0.4290   18.9510 O.co2 1002  GLU1002    -0.2457
     10  OXT       -3.7940   -0.4700   21.8280 O.co2 1002  GLU1002    -0.2441
@<TRIPOS>BOND
     1     9     7   ar
     2     7     6    1
     3     7     8   ar
     4     6     5    1
     5     1     2    1
     6     5     2    1
     7     2     3    1
     8    10     3   ar
     9     3     4   ar
