@<TRIPOS>MOLECULE
4all_TCL_A_1.pdb
 17 18 0 0 0
SMALL
GASTEIGER

@<TRIPOS>ATOM
      1  C1        -0.8420  -23.1330  -21.1740 C.ar  1257  TCL1257     0.0566
      2  C2        -0.5350  -22.4580  -19.9890 C.ar  1257  TCL1257     0.0611
      3  C6        -0.0120  -23.0320  -22.2480 C.ar  1257  TCL1257     0.2307
      4  C5         1.1820  -22.1880  -22.1680 C.ar  1257  TCL1257     0.1840
      5  C4         1.4740  -21.5390  -21.0130 C.ar  1257  TCL1257     0.0417
      6  C3         0.6250  -21.6590  -19.9100 C.ar  1257  TCL1257     0.0147
      7  C11        0.9170  -19.8300  -26.5440 C.ar  1257  TCL1257     0.0587
      8  C10        2.2330  -20.2810  -26.4320 C.ar  1257  TCL1257     0.0259
      9  C9         2.6110  -21.0110  -25.3520 C.ar  1257  TCL1257     0.0929
     10  C8         1.6380  -21.3240  -24.3080 C.ar  1257  TCL1257     0.1559
     11  C12       -0.0300  -20.1360  -25.5300 C.ar  1257  TCL1257     0.0146
     12  C13        0.3510  -20.8870  -24.4240 C.ar  1257  TCL1257     0.0392
     13  O7         2.0090  -22.0750  -23.2370 O.3   1257  TCL1257    -0.4494
     14 CL14       -1.6000  -22.6080  -18.5850 Cl    1257  TCL1257    -0.0821
     15 CL15        0.4260  -18.8690  -27.9600 Cl    1257  TCL1257    -0.0822
     16 CL16        4.2960  -21.5710  -25.1990 Cl    1257  TCL1257    -0.0790
     17  O17       -0.3070  -23.6940  -23.4100 O.3   1257  TCL1257    -0.2833
@<TRIPOS>BOND
     1    15     7    1
     2     7     8   ar
     3     7    11   ar
     4     8     9   ar
     5    11    12   ar
     6     9    16    1
     7     9    10   ar
     8    12    10   ar
     9    10    13    1
    10    17     3    1
    11    13     4    1
    12     3     4   ar
    13     3     1   ar
    14     4     5   ar
    15     1     2   ar
    16     5     6   ar
    17     2     6   ar
    18     2    14    1
