@<TRIPOS>MOLECULE
4all_NAP_A_1.pdb
 48 52 0 0 0
SMALL
GASTEIGER

@<TRIPOS>ATOM
      1  PA         8.0890  -20.2180  -23.6260 P.3   1258  NAP1258     0.2189
      2  O1A        9.5420  -20.4810  -23.6980 O.2   1258  NAP1258    -0.5170
      3  O2A        7.7430  -18.7820  -23.6600 O.3   1258  NAP1258    -0.4371
      4  O5B        7.5110  -21.1080  -24.8430 O.3   1258  NAP1258    -0.3112
      5  C5B        7.3920  -20.5880  -26.1230 C.3   1258  NAP1258     0.1813
      6  C4B        8.4460  -21.2770  -26.9330 C.3   1258  NAP1258     0.1820
      7  O4B        7.8930  -21.5300  -28.2000 O.3   1258  NAP1258    -0.3136
      8  C3B        9.4850  -20.2250  -27.1670 C.3   1258  NAP1258     0.2157
      9  O3B       10.7900  -20.5790  -26.8140 O.3   1258  NAP1258    -0.2175
     10  C2B        9.4180  -20.0360  -28.6550 C.3   1258  NAP1258     0.2314
     11  O2B       10.6570  -19.6410  -29.1570 O.3   1258  NAP1258    -0.2630
     12  C1B        8.8710  -21.3060  -29.1750 C.3   1258  NAP1258     0.3158
     13  N9A        8.2500  -21.1780  -30.4960 N.pl3 1258  NAP1258    -0.1439
     14  C8A        6.9940  -20.7390  -30.8030 C.3   1258  NAP1258     0.3377
     15  N7A        6.7980  -20.8360  -32.1610 N.2   1258  NAP1258    -0.2095
     16  C5A        7.9360  -21.3270  -32.7030 C.2   1258  NAP1258     0.2526
     17  C6A        8.3090  -21.5970  -34.0130 C.2   1258  NAP1258     0.4393
     18  N6A        7.4530  -21.3970  -35.0170 N.pl3 1258  NAP1258     0.2180
     19  N1A        9.5790  -22.1020  -34.2660 N.2   1258  NAP1258     0.0021
     20  C2A       10.4830  -22.3320  -33.2350 C.3   1258  NAP1258     0.5254
     21  N3A       10.0910  -22.0530  -31.9330 N.2   1258  NAP1258    -0.0055
     22  C4A        8.8440  -21.5520  -31.6720 C.2   1258  NAP1258     0.3518
     23  O3         7.3810  -20.8260  -22.2970 O.3   1258  NAP1258    -0.2703
     24  PN         6.5300  -22.2130  -22.0460 P.3   1258  NAP1258     0.2189
     25  O1N        5.1900  -21.9100  -21.4440 O.2   1258  NAP1258    -0.5170
     26  O2N        7.4970  -23.0740  -21.3220 O.3   1258  NAP1258    -0.4371
     27  O5D        6.2600  -22.8730  -23.5100 O.3   1258  NAP1258    -0.3112
     28  C5D        6.5740  -24.2450  -23.7920 C.3   1258  NAP1258     0.1813
     29  C4D        5.4280  -25.2840  -23.8330 C.3   1258  NAP1258     0.1799
     30  O4D        4.8040  -25.4630  -22.5780 O.3   1258  NAP1258    -0.3327
     31  C3D        4.3170  -24.8880  -24.7760 C.3   1258  NAP1258     0.2158
     32  O3D        4.2370  -25.7970  -25.8360 O.3   1258  NAP1258    -0.2175
     33  C2D        3.0760  -24.7830  -23.8990 C.3   1258  NAP1258     0.2309
     34  O2D        1.8740  -25.0990  -24.5630 O.3   1258  NAP1258    -0.2158
     35  C1D        3.4380  -25.6980  -22.7640 C.3   1258  NAP1258     0.2263
     36  N1N        2.6900  -25.5210  -21.5020 N.pl3 1258  NAP1258    -0.2787
     37  C2N        3.0040  -24.5000  -20.6400 C.3   1258  NAP1258     0.1244
     38  C3N        2.3100  -24.3420  -19.4380 C.2   1258  NAP1258     0.0544
     39  C7N        2.6600  -23.2080  -18.5260 C.2   1258  NAP1258     0.2818
     40  O7N        1.9370  -23.0730  -17.3280 O.2   1258  NAP1258    -0.2670
     41  N7N        3.6290  -22.3470  -18.8640 N.am  1258  NAP1258    -0.0839
     42  C4N        1.2860  -25.2510  -19.0980 C.2   1258  NAP1258     0.0033
     43  C5N        0.9720  -26.3080  -19.9650 C.2   1258  NAP1258     0.0157
     44  C6N        1.6880  -26.4160  -21.1700 C.2   1258  NAP1258     0.0633
     45  P2B       10.7590  -18.0200  -29.3590 P.3   1258  NAP1258     0.5328
     46  O1X       12.2140  -17.7720  -28.9250 O.3   1258  NAP1258    -0.1145
     47  O2X       10.5770  -17.7450  -30.8620 O.2   1258  NAP1258    -0.2224
     48  O3X        9.7140  -17.2870  -28.5010 O.3   1258  NAP1258    -0.1145
@<TRIPOS>BOND
     1    18    17    1
     2    19    17    2
     3    19    20    1
     4    17    16    1
     5    20    21    1
     6    16    15    2
     7    16    22    1
     8    15    14    1
     9    21    22    2
    10    22    13    1
    11    47    45    2
    12    14    13    1
    13    13    12    1
    14    45    11    1
    15    45    46    1
    16    45    48    1
    17    12    10    1
    18    12     7    1
    19    11    10    1
    20    10     8    1
    21     7     6    1
    22     8     6    1
    23     8     9    1
    24     6     5    1
    25     5     4    1
    26    32    31    1
    27     4     1    1
    28    31    33    1
    29    31    29    1
    30    34    33    1
    31    33    35    1
    32    29    28    1
    33    29    30    1
    34    28    27    1
    35     2     1    2
    36     3     1    1
    37     1    23    1
    38    27    24    1
    39    35    30    1
    40    35    36    1
    41    23    24    1
    42    24    25    2
    43    24    26    1
    44    36    44    1
    45    36    37    1
    46    44    43    2
    47    37    38    1
    48    43    42    1
    49    38    42    2
    50    38    39    1
    51    41    39   am
    52    39    40    2
