@<TRIPOS>MOLECULE
4alu_79O_A_1.pdb
 22 25 0 0 0
SMALL
GASTEIGER

@<TRIPOS>ATOM
      1 CL1        18.5720   32.1740   -3.5430 Cl    1308  79O1308    -0.0815
      2  C9        19.8820   31.4710   -4.4220 C.ar  1308  79O1308     0.0690
      3  C8        19.6580   30.9920   -5.7130 C.ar  1308  79O1308     0.0121
      4  C7        20.7010   30.4190   -6.4390 C.ar  1308  79O1308     0.0009
      5  C6        21.9700   30.3230   -5.8730 C.ar  1308  79O1308     0.0008
      6  C5        22.1940   30.7990   -4.5820 C.ar  1308  79O1308     0.0129
      7  C4        21.1530   31.3750   -3.8520 C.ar  1308  79O1308     0.0969
      8  C3        21.4250   31.8480   -2.5380 C.1   1308  79O1308     0.1504
      9  N2        21.8040   33.1440   -2.2960 N.2   1308  79O1308    -0.3387
     10  C10       22.0750   33.6080   -1.0290 C.2   1308  79O1308     0.1814
     11  C11       22.4790   34.8430   -0.5160 C.ar  1308  79O1308     0.0656
     12  C12       22.7350   36.0550   -1.1400 C.ar  1308  79O1308     0.0121
     13  C13       23.1260   37.1340   -0.3680 C.ar  1308  79O1308     0.0348
     14 BR1        23.5050   38.8280   -1.2090 Br    1308  79O1308    -0.0490
     15  C14       23.2590   37.0080    1.0220 C.ar  1308  79O1308     0.0098
     16  C15       22.9990   35.8060    1.6440 C.ar  1308  79O1308     0.0375
     17  C16       22.6180   34.7340    0.8730 C.ar  1308  79O1308     0.1428
     18  O2        22.3060   33.4830    1.2390 O.3   1308  79O1308    -0.4558
     19  C1        21.9800   32.7920    0.1040 C.3   1308  79O1308     0.3358
     20  C2        21.5990   31.4750   -0.0440 C.1   1308  79O1308     0.2381
     21  O1        21.5430   30.8260    1.0110 O.2   1308  79O1308    -0.2093
     22  N1        21.3160   30.9750   -1.3940 N.2   1308  79O1308    -0.2666
@<TRIPOS>BOND
     1     4     5   ar
     2     4     3   ar
     3     5     6   ar
     4     3     2   ar
     5     6     7   ar
     6     2     7   ar
     7     2     1    1
     8     7     8    1
     9     8     9    2
    10     8    22    2
    11     9    10    2
    12    22    20    2
    13    14    13    1
    14    12    11   ar
    15    12    13   ar
    16    10    11    1
    17    10    19    1
    18    11    17   ar
    19    13    15   ar
    20    20    19    1
    21    20    21    2
    22    19    18    1
    23    17    18    1
    24    17    16   ar
    25    15    16   ar
