@<TRIPOS>MOLECULE
4alv_R9P_A_1.pdb
 30 34 0 0 0
SMALL
GASTEIGER

@<TRIPOS>ATOM
      1  C13      -22.6560   32.9190    7.8150 C.3   1308  R9P1308     0.0206
      2  C14      -23.5230   34.1250    8.2010 C.3   1308  R9P1308     0.0888
      3  N3       -24.6380   33.7640    9.1220 N.3   1308  R9P1308    -0.2180
      4  C15      -24.1900   32.9490   10.2940 C.3   1308  R9P1308     0.0888
      5  C16      -23.3770   31.7100    9.8510 C.3   1308  R9P1308     0.0206
      6  C12      -23.3690   31.6700    8.3250 C.3   1308  R9P1308     0.0245
      7  C11      -22.8380   30.3360    7.7870 C.3   1308  R9P1308     0.1122
      8  N2       -21.8250   30.4560    6.7380 N.pl3 1308  R9P1308    -0.2376
      9  C10      -21.9180   30.8070    5.4430 C.ar  1308  R9P1308     0.0662
     10  C17      -21.1080   31.8570    5.0520 C.ar  1308  R9P1308     0.0282
     11  C18      -21.0420   32.3250    3.7580 C.ar  1308  R9P1308     0.0703
     12 CL1       -19.9860   33.6170    3.4440 Cl    1308  R9P1308    -0.0814
     13  C9       -22.6500   30.1740    4.4490 C.ar  1308  R9P1308     0.0169
     14  C8       -22.5710   30.6560    3.1330 C.ar  1308  R9P1308     0.0142
     15  C7       -21.7490   31.7320    2.7620 C.ar  1308  R9P1308     0.0970
     16  C6       -21.7410   32.1500    1.4360 C.1   1308  R9P1308     0.1504
     17  N4       -22.0430   33.4070    1.1070 N.2   1308  R9P1308    -0.3387
     18  C19      -22.0840   33.7350   -0.1850 C.2   1308  R9P1308     0.1814
     19  C20      -22.3710   34.8900   -0.8350 C.ar  1308  R9P1308     0.0656
     20  C21      -22.6980   36.0970   -0.3640 C.ar  1308  R9P1308     0.0121
     21  C22      -22.9380   37.1520   -1.2480 C.ar  1308  R9P1308     0.0348
     22 BR1       -23.3850   38.8560   -0.4400 Br    1308  R9P1308    -0.0490
     23  C1       -22.8550   36.9890   -2.6270 C.ar  1308  R9P1308     0.0098
     24  C2       -22.5200   35.7360   -3.0800 C.ar  1308  R9P1308     0.0375
     25  C3       -22.2840   34.7120   -2.1900 C.ar  1308  R9P1308     0.1428
     26  O1       -21.9550   33.4360   -2.3980 O.3   1308  R9P1308    -0.4558
     27  C4       -21.8400   32.8340   -1.2020 C.3   1308  R9P1308     0.3358
     28  C5       -21.5280   31.5540   -0.9200 C.1   1308  R9P1308     0.2381
     29  O2       -21.3120   30.8070   -1.8700 O.2   1308  R9P1308    -0.2093
     30  N1       -21.4740   31.2010    0.4290 N.2   1308  R9P1308    -0.2666
@<TRIPOS>BOND
     1    24    23   ar
     2    24    25   ar
     3    23    21   ar
     4    26    25    1
     5    26    27    1
     6    25    19   ar
     7    29    28    2
     8    21    22    1
     9    21    20   ar
    10    27    28    1
    11    27    18    1
    12    28    30    2
    13    19    20   ar
    14    19    18    1
    15    18    17    2
    16    30    16    2
    17    17    16    2
    18    16    15    1
    19    15    14   ar
    20    15    11   ar
    21    14    13   ar
    22    12    11    1
    23    11    10   ar
    24    13     9   ar
    25    10     9   ar
    26     9     8    1
    27     8     7    1
    28     7     6    1
    29     1     2    1
    30     1     6    1
    31     2     3    1
    32     6     5    1
    33     3     4    1
    34     5     4    1
