@<TRIPOS>MOLECULE
4alw_HY7_A_1.pdb
 23 26 0 0 0
SMALL
GASTEIGER

@<TRIPOS>ATOM
      1  C5        21.0110  -29.2470    2.3750 C.3   1308  HY71308     0.0905
      2  C6        21.5020  -27.9320    3.0820 C.3   1308  HY71308     0.0897
      3  N3        22.9420  -28.1280    3.4290 N.3   1308  HY71308    -0.2691
      4  C7        23.4870  -26.9970    4.2520 C.3   1308  HY71308     0.0897
      5  C8        23.2480  -29.3180    4.2800 C.3   1308  HY71308     0.0897
      6  C9        22.8760  -30.5710    3.4580 C.3   1308  HY71308     0.0905
      7  N2        21.4060  -30.4220    3.1590 N.3   1308  HY71308    -0.2557
      8  C4        20.8310  -31.6580    2.6000 C.3   1308  HY71308     0.2001
      9  C3        21.4500  -32.2870    1.3920 C.1   1308  HY71308     0.1423
     10  N4        21.8170  -33.5270    1.4230 N.2   1308  HY71308    -0.3411
     11  C10       22.3040  -34.1560    0.3070 C.2   1308  HY71308     0.1811
     12  C11       22.7940  -35.4320    0.0410 C.ar  1308  HY71308     0.0656
     13  C12       22.8930  -36.5780    0.8170 C.ar  1308  HY71308     0.0121
     14  C13       23.4350  -37.6350    0.1230 C.ar  1308  HY71308     0.0348
     15 BR1        23.7320  -39.2550    1.0850 Br    1308  HY71308    -0.0490
     16  C14       23.8410  -37.6730   -1.2440 C.ar  1308  HY71308     0.0098
     17  C15       23.7130  -36.5100   -2.0020 C.ar  1308  HY71308     0.0375
     18  C16       23.1720  -35.4570   -1.3010 C.ar  1308  HY71308     0.1428
     19  O2        22.9490  -34.2080   -1.7630 O.3   1308  HY71308    -0.4558
     20  C1        22.3730  -33.4340   -0.8660 C.3   1308  HY71308     0.3358
     21  C2        22.0120  -32.0730   -0.9000 C.1   1308  HY71308     0.2379
     22  O1        22.1090  -31.3530   -1.9060 O.2   1308  HY71308    -0.2093
     23  N1        21.4560  -31.5810    0.2370 N.2   1308  HY71308    -0.2698
@<TRIPOS>BOND
     1    17    18   ar
     2    17    16   ar
     3    22    21    2
     4    19    18    1
     5    19    20    1
     6    18    12   ar
     7    16    14   ar
     8    21    20    1
     9    21    23    2
    10    20    11    1
    11    12    11    1
    12    12    13   ar
    13    14    13   ar
    14    14    15    1
    15    23     9    2
    16    11    10    2
    17     9    10    2
    18     9     8    1
    19     1     2    1
    20     1     7    1
    21     8     7    1
    22     2     3    1
    23     7     6    1
    24     3     4    1
    25     3     5    1
    26     6     5    1
