@<TRIPOS>MOLECULE
4alx_IZN_A_1.pdb
 20 23 0 0 0
SMALL
GASTEIGER

@<TRIPOS>ATOM
      1  N1       -44.6660   18.4980  -34.4510 N.3   400  IZN400     -0.2682
      2  C1       -44.2850   19.7170  -33.6860 C.3   400  IZN400      0.0770
      3  C2       -44.0060   20.9100  -34.6170 C.3   400  IZN400      0.0424
      4  C3       -43.9600   15.7120  -36.3230 C.2   400  IZN400     -0.0305
      5  C4       -43.5770   18.0120  -35.3330 C.3   400  IZN400      0.0782
      6  C5       -42.4610   17.3620  -34.4840 C.3   400  IZN400      0.0523
      7  C6       -41.6960   16.1930  -35.1510 C.3   400  IZN400      0.1216
      8  C7       -42.6310   15.1500  -35.8260 C.3   400  IZN400      0.0550
      9  C8       -44.3580   16.9860  -36.1080 C.2   400  IZN400     -0.0306
     10  C9       -45.6520   17.6580  -36.5130 C.3   400  IZN400      0.0406
     11  C10      -45.9350   18.5030  -35.2550 C.3   400  IZN400      0.0769
     12  C11      -43.1230   19.1730  -36.2420 C.2   400  IZN400     -0.0212
     13  C12      -43.3260   20.4670  -35.9000 C.2   400  IZN400     -0.0054
     14  C13      -42.8800   21.5840  -36.8190 C.3   400  IZN400      0.2303
     15  C14      -42.1380   19.9820  -38.4950 C.2   400  IZN400      0.3215
     16  C15      -42.4290   18.8030  -37.5560 C.3   400  IZN400      0.1326
     17  O1       -41.4110   19.8480  -39.4830 O.2   400  IZN400     -0.2497
     18  O2       -42.7280   21.1580  -38.1750 O.3   400  IZN400     -0.4436
     19  O3       -40.9270   15.5540  -34.1320 O.3   400  IZN400     -0.3532
     20  C16      -40.0980   14.4980  -34.5750 C.3   400  IZN400      0.1740
@<TRIPOS>BOND
     1    17    15    2
     2    15    18    1
     3    15    16    1
     4    18    14    1
     5    16    12    1
     6    14    13    1
     7    10     9    1
     8    10    11    1
     9     4     9    2
    10     4     8    1
    11    12    13    2
    12    12     5    1
    13     9     5    1
    14    13     3    1
    15     8     7    1
    16     5     6    1
    17     5     1    1
    18    11     1    1
    19     7     6    1
    20     7    19    1
    21     3     2    1
    22    20    19    1
    23     1     2    1
