@<TRIPOS>MOLECULE
4am2_HEM_A_1.pdb
 43 50 0 0 0
SMALL
GASTEIGER

@<TRIPOS>ATOM
      1  CHA      -15.9400  -15.8420   42.4980 C.2   1160  HEM1160     0.0000
      2  CHB      -15.0270  -11.8480   45.1360 C.2   1160  HEM1160     0.0000
      3  CHC      -11.0100  -10.9630   42.5830 C.2   1160  HEM1160     0.0000
      4  CHD      -11.9960  -14.9750   39.8370 C.2   1160  HEM1160     0.0000
      5  C1A      -15.9320  -14.8860   43.5530 C.2   1160  HEM1160     0.0000
      6  C2A      -16.8360  -14.9830   44.6860 C.2   1160  HEM1160     0.0000
      7  C3A      -16.6270  -13.7790   45.4940 C.2   1160  HEM1160     0.0000
      8  C4A      -15.5380  -13.1160   44.7420 C.2   1160  HEM1160     0.0000
      9  CMA      -17.1870  -13.3650   46.8510 C.3   1160  HEM1160     0.0000
     10  CAA      -17.7040  -16.1980   44.8790 C.3   1160  HEM1160     0.0000
     11  CBA      -18.9930  -15.7030   44.3040 C.3   1160  HEM1160     0.0000
     12  CGA      -20.0340  -16.6960   44.8280 C.2   1160  HEM1160     0.0000
     13  O1A      -21.2220  -16.2690   44.8200 O.co2 1160  HEM1160     0.0000
     14  O2A      -19.6110  -17.8360   45.2450 O.co2 1160  HEM1160     0.0000
     15  C1B      -13.8250  -11.2420   44.6480 C.ar  1160  HEM1160     0.0000
     16  C2B      -13.3350   -9.9410   45.1930 C.ar  1160  HEM1160     0.0000
     17  C3B      -12.2260   -9.7200   44.3440 C.ar  1160  HEM1160     0.0000
     18  C4B      -12.1000  -10.8660   43.4570 C.ar  1160  HEM1160     0.0000
     19  CMB      -13.8870   -9.0280   46.2900 C.3   1160  HEM1160     0.0000
     20  CAB      -11.2010   -8.6580   44.3750 C.3   1160  HEM1160     0.0000
     21  CBB      -11.8880   -7.5480   44.2250 C.3   1160  HEM1160     0.0000
     22  C1C      -10.8660  -12.0750   41.7030 C.2   1160  HEM1160     0.0000
     23  C2C       -9.7370  -12.1620   40.7770 C.2   1160  HEM1160     0.0000
     24  C3C      -10.0820  -13.2780   39.9640 C.2   1160  HEM1160     0.0000
     25  C4C      -11.3460  -13.8610   40.4370 C.2   1160  HEM1160     0.0000
     26  CMC       -8.5130  -11.2520   40.7820 C.3   1160  HEM1160     0.0000
     27  CAC       -9.2230  -13.9570   38.9080 C.2   1160  HEM1160     0.0000
     28  CBC       -8.2750  -13.2460   38.3450 C.2   1160  HEM1160     0.0000
     29  C1D      -13.2390  -15.5560   40.3610 C.ar  1160  HEM1160     0.0000
     30  C2D      -13.8130  -16.6490   39.6380 C.ar  1160  HEM1160     0.0000
     31  C3D      -14.9870  -16.9440   40.4290 C.ar  1160  HEM1160     0.0000
     32  C4D      -14.9590  -15.9210   41.4620 C.ar  1160  HEM1160     0.0000
     33  CMD      -13.2170  -17.2110   38.3800 C.3   1160  HEM1160     0.0000
     34  CAD      -16.0690  -17.9680   40.2480 C.3   1160  HEM1160     0.0000
     35  CBD      -15.4390  -19.2350   40.7670 C.3   1160  HEM1160     0.0000
     36  CGD      -16.4000  -20.3590   40.3820 C.2   1160  HEM1160     0.0000
     37  O1D      -17.5710  -20.0430   39.9670 O.co2 1160  HEM1160     0.0000
     38  O2D      -15.9640  -21.5270   40.5000 O.co2 1160  HEM1160     0.0000
     39  NA       -15.1620  -13.6890   43.5020 N.2   1160  HEM1160     0.0000
     40  NB       -13.0910  -11.7800   43.6040 N.ar  1160  HEM1160     0.0000
     41  NC       -11.9310  -13.0080   41.4060 N.2   1160  HEM1160     0.0000
     42  ND       -13.9030  -15.0830   41.3950 N.ar  1160  HEM1160     0.0000
     43 FE        -13.4070  -13.4300   42.5600 Fe    1160  HEM1160     0.0000
@<TRIPOS>BOND
     1    28    27    2
     2    33    30    1
     3    27    24    1
     4    30    29   ar
     5    30    31   ar
     6     4    29    2
     7     4    25    1
     8    24    25    1
     9    24    23    2
    10    37    36   ar
    11    34    31    1
    12    34    35    1
    13    29    42   ar
    14    36    38   ar
    15    36    35    1
    16    31    32   ar
    17    25    41    2
    18    23    26    1
    19    23    22    1
    20    42    32   ar
    21    42    43    1
    22    41    22    1
    23    41    43    1
    24    32     1    2
    25    22     3    2
    26     1     5    1
    27    43    39    1
    28    43    40    1
    29     3    18    1
    30    18    40   ar
    31    18    17   ar
    32    39     5    2
    33    39     8    1
    34     5     6    1
    35    40    15   ar
    36    21    20    1
    37    11    12    1
    38    11    10    1
    39    17    20    1
    40    17    16   ar
    41    15     2    1
    42    15    16   ar
    43     6    10    1
    44     6     7    2
    45     8     2    2
    46     8     7    1
    47    13    12   ar
    48    12    14   ar
    49    16    19    1
    50     7     9    1
