@<TRIPOS>MOLECULE
4am4_HEM_A_1.pdb
 43 50 0 0 0
SMALL
GASTEIGER

@<TRIPOS>ATOM
      1  CHA      -15.8120  -15.8820   42.7180 C.2   1160  HEM1160     0.0000
      2  CHB      -11.8760  -15.0370   40.0140 C.2   1160  HEM1160     0.0000
      3  CHC      -10.9900  -11.0490   42.6620 C.2   1160  HEM1160     0.0000
      4  CHD      -15.0220  -11.9100   45.3790 C.2   1160  HEM1160     0.0000
      5  C1A      -14.8740  -15.9500   41.6800 C.ar  1160  HEM1160     0.0000
      6  C2A      -14.9550  -16.8650   40.5800 C.ar  1160  HEM1160     0.0000
      7  C3A      -13.8080  -16.6360   39.7900 C.ar  1160  HEM1160     0.0000
      8  C4A      -13.0750  -15.5620   40.4720 C.ar  1160  HEM1160     0.0000
      9  CMA      -13.3790  -17.2300   38.4690 C.3   1160  HEM1160     0.0000
     10  CAA      -16.1800  -17.7780   40.3530 C.3   1160  HEM1160     0.0000
     11  CBA      -15.6100  -19.0960   40.7450 C.3   1160  HEM1160     0.0000
     12  CGA      -16.6600  -20.2040   40.4660 C.2   1160  HEM1160     0.0000
     13  O1A      -16.2160  -21.4220   40.4420 O.co2 1160  HEM1160     0.0000
     14  O2A      -17.8840  -19.8170   40.2990 O.co2 1160  HEM1160     0.0000
     15  C1B      -11.2620  -13.9000   40.5800 C.2   1160  HEM1160     0.0000
     16  C2B      -10.0000  -13.3430   40.0310 C.2   1160  HEM1160     0.0000
     17  C3B       -9.8040  -12.2540   40.8580 C.2   1160  HEM1160     0.0000
     18  C4B      -10.8890  -12.1640   41.7570 C.2   1160  HEM1160     0.0000
     19  CMB       -9.1250  -13.9170   38.9170 C.3   1160  HEM1160     0.0000
     20  CAB       -8.6830  -11.2980   40.8450 C.3   1160  HEM1160     0.0000
     21  CBB       -7.5890  -12.0660   40.6800 C.3   1160  HEM1160     0.0000
     22  C1C      -12.0760  -10.8740   43.5450 C.ar  1160  HEM1160     0.0000
     23  C2C      -12.2000   -9.7200   44.4260 C.ar  1160  HEM1160     0.0000
     24  C3C      -13.2890  -10.0250   45.2460 C.ar  1160  HEM1160     0.0000
     25  C4C      -13.9140  -11.2660   44.7510 C.ar  1160  HEM1160     0.0000
     26  CMC      -11.2280   -8.5810   44.3860 C.3   1160  HEM1160     0.0000
     27  CAC      -14.0000   -9.2020   46.2840 C.3   1160  HEM1160     0.0000
     28  CBC      -13.2430   -8.2980   46.8830 C.3   1160  HEM1160     0.0000
     29  C1D      -15.5230  -13.1270   44.8650 C.2   1160  HEM1160     0.0000
     30  C2D      -16.6200  -13.8340   45.5120 C.2   1160  HEM1160     0.0000
     31  C3D      -16.8460  -14.9760   44.7290 C.2   1160  HEM1160     0.0000
     32  C4D      -15.8960  -14.8650   43.6800 C.2   1160  HEM1160     0.0000
     33  CMD      -17.3010  -13.3310   46.7650 C.3   1160  HEM1160     0.0000
     34  CAD      -17.8220  -16.1880   44.8370 C.3   1160  HEM1160     0.0000
     35  CBD      -19.1770  -15.5730   44.6720 C.3   1160  HEM1160     0.0000
     36  CGD      -20.2490  -16.6530   44.9540 C.2   1160  HEM1160     0.0000
     37  O1D      -19.8230  -17.8580   45.2190 O.co2 1160  HEM1160     0.0000
     38  O2D      -21.4760  -16.2310   44.8690 O.co2 1160  HEM1160     0.0000
     39  NA       -13.7880  -15.0990   41.5960 N.ar  1160  HEM1160     0.0000
     40  NB       -11.7860  -13.1700   41.5970 N.2   1160  HEM1160     0.0000
     41  NC       -13.1160  -11.8380   43.7220 N.ar  1160  HEM1160     0.0000
     42  ND       -15.0630  -13.8370   43.7790 N.2   1160  HEM1160     0.0000
     43 FE        -13.4500  -13.4570   42.6650 Fe    1160  HEM1160     0.0000
@<TRIPOS>BOND
     1     9     7    1
     2    19    16    1
     3     7     8   ar
     4     7     6   ar
     5     2     8    2
     6     2    15    1
     7    16    15    1
     8    16    17    2
     9    14    12   ar
    10    10     6    1
    11    10    11    1
    12    13    12   ar
    13    12    11    1
    14     8    39   ar
    15     6     5   ar
    16    15    40    2
    17    21    20    1
    18    20    17    1
    19    17    18    1
    20    39     5   ar
    21    39    43    1
    22    40    18    1
    23    40    43    1
    24     5     1    2
    25    18     3    2
    26     3    22    1
    27    43    41    1
    28    43    42    1
    29     1    32    1
    30    22    41   ar
    31    22    23   ar
    32    32    42    2
    33    32    31    1
    34    41    25   ar
    35    42    29    1
    36    26    23    1
    37    23    24   ar
    38    35    34    1
    39    35    36    1
    40    31    34    1
    41    31    30    2
    42    25    24   ar
    43    25     4    1
    44    29     4    2
    45    29    30    1
    46    38    36   ar
    47    36    37   ar
    48    24    27    1
    49    30    33    1
    50    27    28    1
