@<TRIPOS>MOLECULE
4am5_HEM_A_1.pdb
 43 50 0 0 0
SMALL
GASTEIGER

@<TRIPOS>ATOM
      1  CHA      -15.7780  -15.8460   42.6020 C.2   1160  HEM1160     0.0000
      2  CHB      -11.9220  -15.0280   39.9050 C.2   1160  HEM1160     0.0000
      3  CHC      -10.9940  -11.0260   42.5430 C.2   1160  HEM1160     0.0000
      4  CHD      -15.0330  -11.9670   45.2210 C.2   1160  HEM1160     0.0000
      5  C1A      -14.9300  -15.9020   41.5360 C.ar  1160  HEM1160     0.0000
      6  C2A      -14.9850  -16.8490   40.4700 C.ar  1160  HEM1160     0.0000
      7  C3A      -13.8340  -16.6260   39.6660 C.ar  1160  HEM1160     0.0000
      8  C4A      -13.1020  -15.5670   40.3500 C.ar  1160  HEM1160     0.0000
      9  CMA      -13.3890  -17.2090   38.3520 C.3   1160  HEM1160     0.0000
     10  CAA      -16.1760  -17.7520   40.2110 C.3   1160  HEM1160     0.0000
     11  CBA      -15.6340  -18.9650   40.8670 C.3   1160  HEM1160     0.0000
     12  CGA      -16.5240  -20.1660   40.4550 C.2   1160  HEM1160     0.0000
     13  O1A      -16.0180  -21.3470   40.4180 O.co2 1160  HEM1160     0.0000
     14  O2A      -17.7530  -19.8720   40.2110 O.co2 1160  HEM1160     0.0000
     15  C1B      -11.2850  -13.8750   40.4620 C.2   1160  HEM1160     0.0000
     16  C2B       -9.9840  -13.3210   39.9400 C.2   1160  HEM1160     0.0000
     17  C3B       -9.7740  -12.2260   40.7450 C.2   1160  HEM1160     0.0000
     18  C4B      -10.8700  -12.1260   41.6460 C.2   1160  HEM1160     0.0000
     19  CMB       -9.1560  -13.9330   38.8050 C.3   1160  HEM1160     0.0000
     20  CAB       -8.6510  -11.2260   40.7940 C.3   1160  HEM1160     0.0000
     21  CBB       -7.5840  -11.9880   40.6190 C.3   1160  HEM1160     0.0000
     22  C1C      -12.0710  -10.8900   43.4500 C.ar  1160  HEM1160     0.0000
     23  C2C      -12.1950   -9.7530   44.3430 C.ar  1160  HEM1160     0.0000
     24  C3C      -13.3050  -10.0210   45.1310 C.ar  1160  HEM1160     0.0000
     25  C4C      -13.8800  -11.3190   44.6490 C.ar  1160  HEM1160     0.0000
     26  CMC      -11.2580   -8.5810   44.3440 C.3   1160  HEM1160     0.0000
     27  CAC      -13.9610   -9.2390   46.2120 C.2   1160  HEM1160     0.0000
     28  CBC      -13.2140   -8.2900   46.8150 C.2   1160  HEM1160     0.0000
     29  C1D      -15.5770  -13.1800   44.7470 C.2   1160  HEM1160     0.0000
     30  C2D      -16.6650  -13.8440   45.4130 C.2   1160  HEM1160     0.0000
     31  C3D      -16.8620  -14.9640   44.6010 C.2   1160  HEM1160     0.0000
     32  C4D      -15.8360  -14.8980   43.6080 C.2   1160  HEM1160     0.0000
     33  CMD      -17.3450  -13.3510   46.6370 C.3   1160  HEM1160     0.0000
     34  CAD      -17.8380  -16.1500   44.7870 C.3   1160  HEM1160     0.0000
     35  CBD      -19.1420  -15.5590   44.3600 C.3   1160  HEM1160     0.0000
     36  CGD      -20.2680  -16.5530   44.6770 C.2   1160  HEM1160     0.0000
     37  O1D      -19.8780  -17.7490   44.9630 O.co2 1160  HEM1160     0.0000
     38  O2D      -21.4780  -16.1110   44.5760 O.co2 1160  HEM1160     0.0000
     39  NA       -13.8140  -15.0980   41.4640 N.ar  1160  HEM1160     0.0000
     40  NB       -11.7890  -13.1480   41.4660 N.2   1160  HEM1160     0.0000
     41  NC       -13.1340  -11.8510   43.6070 N.ar  1160  HEM1160     0.0000
     42  ND       -15.0950  -13.8410   43.6590 N.2   1160  HEM1160     0.0000
     43 FE        -13.4430  -13.4460   42.5510 Fe    1160  HEM1160     0.0000
@<TRIPOS>BOND
     1     9     7    1
     2    19    16    1
     3     7     8   ar
     4     7     6   ar
     5     2     8    2
     6     2    15    1
     7    16    15    1
     8    16    17    2
     9    14    12   ar
    10    10     6    1
    11    10    11    1
    12     8    39   ar
    13    13    12   ar
    14    12    11    1
    15    15    40    2
    16     6     5   ar
    17    21    20    1
    18    17    20    1
    19    17    18    1
    20    39     5   ar
    21    39    43    1
    22    40    18    1
    23    40    43    1
    24     5     1    2
    25    18     3    2
    26     3    22    1
    27    43    41    1
    28    43    42    1
    29     1    32    1
    30    22    41   ar
    31    22    23   ar
    32    41    25   ar
    33    32    42    2
    34    32    31    1
    35    42    29    1
    36    23    26    1
    37    23    24   ar
    38    35    36    1
    39    35    34    1
    40    38    36   ar
    41    31    34    1
    42    31    30    2
    43    25    24   ar
    44    25     4    1
    45    36    37   ar
    46    29     4    2
    47    29    30    1
    48    24    27    1
    49    30    33    1
    50    27    28    2
