@<TRIPOS>MOLECULE
4am7_ADP_A_1.pdb
 27 29 0 0 0
SMALL
GASTEIGER

@<TRIPOS>ATOM
      1  PB      -104.6740   -0.4910  -14.6110 P.3   1882  ADP1882     0.5373
      2  O1B     -105.8690   -0.5740  -15.5790 O.2   1882  ADP1882    -0.2221
      3  O2B     -104.9100   -0.1520  -13.1160 O.3   1882  ADP1882    -0.1143
      4  O3B     -103.3880    0.1750  -15.1930 O.3   1882  ADP1882    -0.1143
      5  PA      -105.8170   -3.1710  -14.4980 P.3   1882  ADP1882     0.2231
      6  O1A     -105.9440   -4.2110  -13.3700 O.3   1882  ADP1882    -0.4370
      7  O2A     -106.9390   -2.2440  -15.0020 O.2   1882  ADP1882    -0.5169
      8  O3A     -104.5470   -2.1110  -14.3870 O.3   1882  ADP1882    -0.2261
      9  O5'     -105.2480   -4.2080  -15.6090 O.3   1882  ADP1882    -0.3111
     10  C5'     -105.3210   -5.6240  -15.4970 C.3   1882  ADP1882     0.1813
     11  C4'     -104.0970   -6.2210  -16.2220 C.3   1882  ADP1882     0.1821
     12  O4'     -104.0110   -7.6260  -15.9380 O.3   1882  ADP1882    -0.3135
     13  C3'     -104.0770   -6.1680  -17.7550 C.3   1882  ADP1882     0.2184
     14  O3'     -102.7660   -5.7420  -18.1590 O.3   1882  ADP1882    -0.2174
     15  C2'     -104.2430   -7.6010  -18.2370 C.3   1882  ADP1882     0.2570
     16  O2'     -103.4980   -7.8040  -19.4400 O.3   1882  ADP1882    -0.2130
     17  C1'     -103.6070   -8.3640  -17.0890 C.3   1882  ADP1882     0.3186
     18  N9      -104.0090   -9.7780  -16.9200 N.pl3 1882  ADP1882    -0.1439
     19  C8      -105.2750  -10.2330  -16.8920 C.3   1882  ADP1882     0.3377
     20  N7      -105.2960  -11.5900  -16.7080 N.2   1882  ADP1882    -0.2095
     21  C5      -104.0280  -11.9960  -16.6030 C.2   1882  ADP1882     0.2526
     22  C6      -103.4040  -13.2930  -16.4020 C.2   1882  ADP1882     0.4393
     23  N6      -104.2540  -14.3340  -16.2920 N.pl3 1882  ADP1882     0.2180
     24  N1      -102.0330  -13.3510  -16.3500 N.2   1882  ADP1882     0.0021
     25  C2      -101.2700  -12.2240  -16.4630 C.3   1882  ADP1882     0.5254
     26  N3      -101.7910  -10.9780  -16.6520 N.2   1882  ADP1882    -0.0055
     27  C4      -103.1570  -10.8110  -16.7340 C.2   1882  ADP1882     0.3518
@<TRIPOS>BOND
     1    16    15    1
     2    15    13    1
     3    15    17    1
     4    14    13    1
     5    13    11    1
     6    17    18    1
     7    17    12    1
     8    18    19    1
     9    18    27    1
    10    19    20    1
    11    27    26    2
    12    27    21    1
    13    20    21    2
    14    26    25    1
    15    21    22    1
    16    25    24    1
    17    22    24    2
    18    22    23    1
    19    11    12    1
    20    11    10    1
    21     9    10    1
    22     9     5    1
    23     2     1    2
    24     4     1    1
    25     7     5    2
    26     1     8    1
    27     1     3    1
    28     5     8    1
    29     5     6    1
