@<TRIPOS>MOLECULE
4amb_DUD_B_1.pdb
 24 25 0 0 0
SMALL
GASTEIGER

@<TRIPOS>ATOM
      1  N1       -41.3400   25.9160  -18.4190 N.am  1391  DUD1391    -0.1790
      2  C2       -41.9350   25.6380  -17.1650 C.1   1391  DUD1391     0.2844
      3  N3       -43.0010   26.3500  -16.7700 N.2   1391  DUD1391    -0.2452
      4  C4       -43.5110   27.3290  -17.5460 C.1   1391  DUD1391     0.2182
      5  C5       -42.9350   27.6250  -18.7880 C.2   1391  DUD1391     0.1242
      6  C6       -41.8260   26.8900  -19.2060 C.2   1391  DUD1391     0.0928
      7  O2       -41.4670   24.7260  -16.4320 O.2   1391  DUD1391    -0.1918
      8  O4       -44.5020   27.9780  -17.1450 O.2   1391  DUD1391    -0.2085
      9  C1'      -40.1800   25.1150  -18.8090 C.3   1391  DUD1391     0.2090
     10  C2'      -40.6050   23.7340  -19.3050 C.3   1391  DUD1391     0.0874
     11  C3'      -39.5640   23.4070  -20.3500 C.3   1391  DUD1391     0.1857
     12  C4'      -38.8520   24.7180  -20.6780 C.3   1391  DUD1391     0.1773
     13  O4'      -39.4260   25.7290  -19.8520 O.3   1391  DUD1391    -0.3339
     14  O3'      -38.6470   22.4390  -19.8120 O.3   1391  DUD1391    -0.2203
     15  C5'      -38.9660   25.1580  -22.1360 C.3   1391  DUD1391     0.1812
     16  O5'      -39.4540   24.1000  -22.9600 O.3   1391  DUD1391    -0.3111
     17  PA       -38.7980   23.8040  -24.3970 P.3   1391  DUD1391     0.2231
     18  O1A      -39.9660   23.5560  -25.3080 O.2   1391  DUD1391    -0.5169
     19  O2A      -37.7380   22.7440  -24.2390 O.3   1391  DUD1391    -0.4370
     20  O3A      -38.0430   25.1960  -24.7680 O.3   1391  DUD1391    -0.2261
     21  PB       -38.4440   26.2890  -25.9060 P.3   1391  DUD1391     0.5373
     22  O1B      -39.3220   27.2700  -25.1450 O.3   1391  DUD1391    -0.1143
     23  O2B      -39.1040   25.5270  -27.0390 O.2   1391  DUD1391    -0.2221
     24  O3B      -37.0960   26.8620  -26.2920 O.3   1391  DUD1391    -0.1143
@<TRIPOS>BOND
     1    23    21    2
     2    24    21    1
     3    21    22    1
     4    21    20    1
     5    18    17    2
     6    20    17    1
     7    17    19    1
     8    17    16    1
     9    16    15    1
    10    15    12    1
    11    12    11    1
    12    12    13    1
    13    11    14    1
    14    11    10    1
    15    13     9    1
    16    10     9    1
    17     6     5    2
    18     6     1    1
    19     9     1    1
    20     5     4    1
    21     1     2   am
    22     4     8    2
    23     4     3    2
    24     2     3    2
    25     2     7    2
