@<TRIPOS>MOLECULE
4ami_2CV_A_1.pdb
 17 16 0 0 0
SMALL
GASTEIGER

@<TRIPOS>ATOM
      1  C0       -11.4990  -12.8400   28.7310 C.3   1360  2CV1360     0.0000
      2  C1       -11.9440  -13.8310   29.8120 C.3   1360  2CV1360     0.0000
      3  C9       -10.8060  -14.2230   30.7700 C.3   1360  2CV1360     0.0000
      4  C12      -11.3720  -14.7620   32.0900 C.3   1360  2CV1360     0.0000
      5  C15      -10.2760  -15.3460   32.9830 C.3   1360  2CV1360     0.0000
      6  C18      -10.6640  -16.7360   33.5040 C.3   1360  2CV1360     0.0000
      7  C21      -10.2730  -16.9220   34.9790 C.3   1360  2CV1360     0.0005
      8  C24      -10.2780  -18.4050   35.3860 C.3   1360  2CV1360     0.0096
      9  C27      -11.6420  -18.8360   35.9540 C.3   1360  2CV1360     0.0853
     10  C30      -11.6600  -18.9280   37.4990 C.2   1360  2CV1360     0.2257
     11  O34      -10.9120  -18.2160   38.1730 O.2   1360  2CV1360    -0.2749
     12  N33      -12.5340  -19.8000   38.0360 N.am  1360  2CV1360    -0.2768
     13  C35      -13.4270  -20.6360   37.1990 C.3   1360  2CV1360     0.1289
     14  C60      -12.8780  -22.0600   37.0490 C.3   1360  2CV1360     0.2035
     15  O63      -12.5930  -22.2960   35.6670 O.3   1360  2CV1360    -0.2185
     16  C36      -12.6360  -19.9550   39.5050 C.3   1360  2CV1360     0.0935
     17  C37      -13.8950  -19.2620   40.0410 C.3   1360  2CV1360     0.0233
@<TRIPOS>BOND
     1     1     2    1
     2     2     3    1
     3     3     4    1
     4     4     5    1
     5     5     6    1
     6     6     7    1
     7     7     8    1
     8     8     9    1
     9    15    14    1
    10     9    10    1
    11    14    13    1
    12    13    12    1
    13    10    12   am
    14    10    11    2
    15    12    16    1
    16    16    17    1
