@<TRIPOS>MOLECULE
4ami_G90_A_1.pdb
 27 29 0 0 0
SMALL
GASTEIGER

@<TRIPOS>ATOM
      1  N1       -22.0870  -11.0590   29.5870 N.1   1359  G901359    -0.1907
      2  C12      -21.5080  -10.5130   28.7410 C.1   1359  G901359     0.1035
      3  C7       -20.8160   -9.9560   27.8120 C.ar  1359  G901359     0.1023
      4  C6       -21.4160   -9.6350   26.4830 C.ar  1359  G901359     0.1482
      5  C11      -20.6230   -9.0520   25.5040 C.ar  1359  G901359     0.0376
      6  C10      -19.2900   -8.7670   25.7780 C.ar  1359  G901359     0.0032
      7  C9       -18.7250   -9.0680   27.0210 C.ar  1359  G901359     0.0009
      8  C8       -19.4730   -9.6590   28.0380 C.ar  1359  G901359     0.0133
      9  O2       -22.7210   -9.9240   26.2070 O.3   1359  G901359    -0.4720
     10  C5       -23.7310   -8.9260   26.2720 C.3   1359  G901359     0.2395
     11  C4       -25.0820   -9.6020   26.0970 C.3   1359  G901359     0.2126
     12  O1       -25.5610   -9.3810   24.7730 O.3   1359  G901359    -0.2176
     13  C3       -24.9200  -11.0980   26.3160 C.3   1359  G901359     0.1253
     14  N        -26.0620  -11.5900   27.0680 N.3   1359  G901359    -0.2176
     15  CA       -26.2700  -12.9810   27.4070 C.3   1359  G901359     0.0634
     16  C1       -26.1090  -13.0470   28.9230 C.3   1359  G901359     0.0178
     17  C2       -25.2690  -13.9150   26.7330 C.3   1359  G901359     0.0178
     18  CB       -27.6810  -13.3170   26.9190 C.3   1359  G901359     0.0403
     19  CG       -28.3250  -14.4880   27.6330 C.2   1359  G901359    -0.0145
     20  CD2      -29.1800  -14.4580   28.8460 C.3   1359  G901359     0.0819
     21  CE3      -29.6240  -13.4240   29.6690 C.2   1359  G901359    -0.0164
     22  CZ3      -30.4300  -13.7580   30.7570 C.2   1359  G901359    -0.0038
     23  CH2      -30.7840  -15.0910   31.0120 C.2   1359  G901359     0.0009
     24  CZ2      -30.3510  -16.1500   30.2020 C.2   1359  G901359     0.0153
     25  CE2      -29.5420  -15.8690   29.1060 C.2   1359  G901359     0.0665
     26  NE1      -28.9590  -16.6130   28.1360 N.2   1359  G901359    -0.2482
     27  CD1      -28.2480  -15.8290   27.2770 C.2   1359  G901359     0.0907
@<TRIPOS>BOND
     1    12    11    1
     2     5     6   ar
     3     5     4   ar
     4     6     7   ar
     5    11    10    1
     6    11    13    1
     7     9    10    1
     8     9     4    1
     9    13    14    1
    10     4     3   ar
    11    17    15    1
    12    18    15    1
    13    18    19    1
    14     7     8   ar
    15    14    15    1
    16    27    19    2
    17    27    26    1
    18    15    16    1
    19    19    20    1
    20     3     8   ar
    21     3     2    1
    22    26    25    2
    23     2     1    3
    24    20    25    1
    25    20    21    1
    26    25    24    1
    27    21    22    2
    28    24    23    2
    29    22    23    1
