@<TRIPOS>MOLECULE
4amj_2CV_A_10.pdb
 14 13 0 0 0
SMALL
GASTEIGER

@<TRIPOS>ATOM
      1  C0       -10.1860  -10.1730   43.9590 C.3   1365  2CV1365     0.0000
      2  C1       -11.4140   -9.9800   43.0540 C.3   1365  2CV1365     0.0000
      3  C9       -11.8490  -11.2950   42.3720 C.3   1365  2CV1365     0.0000
      4  C12      -13.3740  -11.4120   42.1870 C.3   1365  2CV1365     0.0000
      5  C15      -14.0480  -11.8290   43.5010 C.3   1365  2CV1365     0.0000
      6  C18      -15.5620  -12.0380   43.3600 C.3   1365  2CV1365     0.0000
      7  C21      -16.0270  -13.1810   44.2680 C.3   1365  2CV1365     0.0005
      8  C24      -17.5530  -13.3650   44.2380 C.3   1365  2CV1365     0.0096
      9  C27      -17.9740  -14.8030   44.6220 C.3   1365  2CV1365     0.0853
     10  C30      -19.2450  -14.8230   45.4970 C.2   1365  2CV1365     0.2257
     11  O34      -19.8620  -13.7760   45.6990 O.2   1365  2CV1365    -0.2749
     12  N33      -19.6140  -16.0080   46.0180 N.am  1365  2CV1365    -0.2760
     13  C35      -18.8700  -17.2680   45.7850 C.3   1365  2CV1365     0.1149
     14  C36      -20.8100  -16.0900   46.8770 C.3   1365  2CV1365     0.1149
@<TRIPOS>BOND
     1     4     3    1
     2     4     5    1
     3     3     2    1
     4     2     1    1
     5     6     5    1
     6     6     7    1
     7     8     7    1
     8     8     9    1
     9     9    10    1
    10    10    11    2
    11    10    12   am
    12    13    12    1
    13    12    14    1
