@<TRIPOS>MOLECULE
4amj_CVD_A_1.pdb
 30 33 0 0 0
SMALL
GASTEIGER

@<TRIPOS>ATOM
      1  O1       -25.5540  -11.7130   23.3710 O.3   1359  CVD1359    -0.2176
      2  C1       -24.6280  -11.9070   24.4390 C.3   1359  CVD1359     0.2126
      3  C2       -23.2980  -11.3470   24.0210 C.3   1359  CVD1359     0.2395
      4  O2       -22.3900  -11.5230   25.1020 O.3   1359  CVD1359    -0.4726
      5  C3       -21.0440  -11.2850   24.9430 C.ar  1359  CVD1359     0.1411
      6  C14      -20.5440  -10.6680   23.7850 C.ar  1359  CVD1359     0.0371
      7  C13      -19.1830  -10.4300   23.6730 C.ar  1359  CVD1359     0.0057
      8  C12      -18.3340  -10.8790   24.6670 C.ar  1359  CVD1359     0.0322
      9  C6       -18.8250  -11.5240   25.7870 C.ar  1359  CVD1359     0.1344
     10  C4       -20.1720  -11.7310   25.9110 C.ar  1359  CVD1359     0.0660
     11  C5       -20.4090  -12.3920   27.1070 C.ar  1359  CVD1359     0.0350
     12  C8       -21.6040  -12.8010   27.6780 C.ar  1359  CVD1359     0.0027
     13  C11      -21.6100  -13.4550   28.9010 C.ar  1359  CVD1359     0.0002
     14  C10      -20.4020  -13.6760   29.5540 C.ar  1359  CVD1359     0.0026
     15  C9       -19.1920  -13.2500   28.9880 C.ar  1359  CVD1359     0.0320
     16  C7       -19.2090  -12.5790   27.7620 C.ar  1359  CVD1359     0.1315
     17  N1       -18.2550  -12.0390   26.9430 N.2   1359  CVD1359    -0.4018
     18  C15      -24.5260  -13.4280   24.5900 C.3   1359  CVD1359     0.1255
     19  N2       -25.9180  -13.9340   24.6640 N.3   1359  CVD1359    -0.2113
     20  C16      -25.9020  -15.4150   24.7470 C.3   1359  CVD1359     0.1360
     21  C17      -27.2660  -15.8660   25.2740 C.3   1359  CVD1359     0.2243
     22  O3       -28.2830  -14.9680   24.8290 O.3   1359  CVD1359    -0.4708
     23  C18      -29.6460  -15.2290   25.0300 C.ar  1359  CVD1359     0.1723
     24  C23      -30.4720  -15.4940   23.9140 C.ar  1359  CVD1359     0.0400
     25  C22      -31.8350  -15.7650   24.0640 C.ar  1359  CVD1359     0.0033
     26  C21      -32.3890  -15.7650   25.3550 C.ar  1359  CVD1359     0.0033
     27  C20      -31.5770  -15.4870   26.4770 C.ar  1359  CVD1359     0.0400
     28  C19      -30.1980  -15.2210   26.3360 C.ar  1359  CVD1359     0.1724
     29  O4       -29.3970  -14.9970   27.4770 O.3   1359  CVD1359    -0.4684
     30  C24      -29.3870  -13.7820   28.2780 C.3   1359  CVD1359     0.2526
@<TRIPOS>BOND
     1     1     2    1
     2     7     6   ar
     3     7     8   ar
     4     6     5   ar
     5    24    25   ar
     6    24    23   ar
     7     3     2    1
     8     3     4    1
     9    25    26   ar
    10     2    18    1
    11    18    19    1
    12    19    20    1
    13     8     9   ar
    14    20    21    1
    15    22    23    1
    16    22    21    1
    17     5     4    1
    18     5    10   ar
    19    23    28   ar
    20    26    27   ar
    21     9    10   ar
    22     9    17    2
    23    10    11    2
    24    28    27   ar
    25    28    29    1
    26    17    16    2
    27    11    12   ar
    28    11    16   ar
    29    29    30    1
    30    12    13   ar
    31    16    15   ar
    32    13    14   ar
    33    15    14   ar
