@<TRIPOS>MOLECULE
4aml_GYU_A_1.pdb
 21 21 0 0 0
SMALL
GASTEIGER

@<TRIPOS>ATOM
      1  O10       -7.9550   39.8300    8.9500 O.2   1172  GYU1172    -0.2733
      2  C10       -7.0020   39.6840    8.2060 C.2   1172  GYU1172     0.2421
      3  C11       -5.6330   39.2050    8.6190 C.3   1172  GYU1172     0.0964
      4  N5        -7.2390   40.0190    6.8640 N.am  1172  GYU1172    -0.1979
      5  C5        -8.4400   40.5440    6.3690 C.3   1172  GYU1172     0.1980
      6  C15       -8.3010   42.0310    5.8530 C.3   1172  GYU1172     0.3148
      7  O8        -9.4310   42.4380    5.2200 O.3   1172  GYU1172    -0.3162
      8  C7       -10.0070   40.2310    4.5270 C.3   1172  GYU1172     0.2137
      9  O7       -10.2710   39.4510    3.3160 O.3   1172  GYU1172    -0.2176
     10  C6        -8.7870   39.7270    5.1160 C.3   1172  GYU1172     0.2107
     11  O6        -9.0600   38.3270    5.6070 O.3   1172  GYU1172    -0.2182
     12  O1B       -7.1390   41.8820    5.0090 O.3   1172  GYU1172    -0.4073
     13  C1        -6.1140   42.9680    5.0490 C.2   1172  GYU1172     0.4230
     14  O1A       -6.5730   44.0800    5.2990 O.2   1172  GYU1172    -0.2245
     15  NAC       -4.9430   42.5030    4.8310 N.am  1172  GYU1172    -0.1687
     16  C12       -3.8200   43.4560    4.6210 C.3   1172  GYU1172     0.1187
     17  C13       -3.2050   43.6130    5.9940 C.3   1172  GYU1172     0.0236
     18  C14       -2.5210   42.3370    6.4600 C.3   1172  GYU1172     0.0019
     19  C8        -9.8020   41.7010    4.0420 C.3   1172  GYU1172     0.1845
     20  C9       -11.1220   42.3050    3.6830 C.3   1172  GYU1172     0.2142
     21  O9       -11.0580   43.7250    3.2410 O.3   1172  GYU1172    -0.2176
@<TRIPOS>BOND
     1    21    20    1
     2     9     8    1
     3    20    19    1
     4    19     8    1
     5    19     7    1
     6     8    10    1
     7    16    15    1
     8    16    17    1
     9    15    13   am
    10    12    13    1
    11    12     6    1
    12    13    14    2
    13    10    11    1
    14    10     5    1
    15     7     6    1
    16     6     5    1
    17    17    18    1
    18     5     4    1
    19     4     2   am
    20     2     3    1
    21     2     1    2
