@<TRIPOS>MOLECULE
4amy_2P2_A_1.pdb
 31 33 0 0 0
SMALL
GASTEIGER

@<TRIPOS>ATOM
      1  C23       42.9140   37.7210   86.5560 C.3   791  2P2791      0.0856
      2  C24       44.3120   37.9110   85.9890 C.3   791  2P2791      0.0142
      3  C25       45.4370   37.8610   87.0280 C.3   791  2P2791      0.0269
      4  C26       45.4360   36.5620   87.7900 C.ar  791  2P2791     -0.0222
      5  C27       45.8150   35.3850   87.1580 C.ar  791  2P2791     -0.0043
      6  C31       45.0450   36.5570   89.1310 C.ar  791  2P2791     -0.0043
      7  C28       45.7970   34.1940   87.8840 C.ar  791  2P2791     -0.0003
      8  C20       45.0270   35.3640   89.8600 C.ar  791  2P2791     -0.0003
      9  C29       45.4020   34.1830   89.2250 C.ar  791  2P2791     -0.0000
     10  C21       41.8950   37.4990   85.4450 C.2   791  2P2791      0.2259
     11  O22       42.2130   37.7030   84.2860 O.2   791  2P2791     -0.2749
     12  C10       39.3280   38.0190   83.8010 C.2   791  2P2791      0.2437
     13  O11       39.5160   39.2010   84.1410 O.2   791  2P2791     -0.2731
     14  C12       39.7340   36.8600   84.6510 C.3   791  2P2791      0.1520
     15  C13       38.5480   36.1740   85.3480 C.3   791  2P2791      0.0309
     16  C14       39.0750   35.7480   86.7250 C.3   791  2P2791      0.0220
     17  C15       40.1590   36.7950   87.0860 C.3   791  2P2791      0.0757
     18  C16       39.6670   37.9700   87.9940 C.3   791  2P2791      0.0168
     19  C17       39.4340   37.3620   89.3840 C.3   791  2P2791      0.0016
     20  C18       38.3980   38.7200   87.5170 C.3   791  2P2791      0.0016
     21  C19       40.7390   39.0270   88.2190 C.3   791  2P2791      0.0016
     22  N20       40.6530   37.1170   85.7470 N.am  791  2P2791     -0.2746
     23  C1        36.8170   39.0660   82.0680 C.3   791  2P2791      0.2027
     24  O2        35.8990   37.9780   81.9630 O.3   791  2P2791     -0.2185
     25  C3        36.5730   39.5570   83.5050 C.3   791  2P2791      0.2165
     26  O4        37.1850   40.8160   83.7490 O.3   791  2P2791     -0.2175
     27  C5        38.2520   38.6210   81.6880 C.3   791  2P2791      0.1084
     28  C6        38.2550   37.8250   80.3770 C.3   791  2P2791      0.0243
     29  C7        38.2950   36.3520   80.7040 C.3   791  2P2791      0.0233
     30  C8        38.5630   36.2480   82.2090 C.3   791  2P2791      0.0935
     31  N9        38.7540   37.6370   82.6550 N.am  791  2P2791     -0.2772
@<TRIPOS>BOND
     1    28    29    1
     2    28    27    1
     3    29    30    1
     4    27    23    1
     5    27    31    1
     6    24    23    1
     7    23    25    1
     8    30    31    1
     9    31    12   am
    10    25    26    1
    11    12    13    2
    12    12    14    1
    13    11    10    2
    14    14    15    1
    15    14    22    1
    16    15    16    1
    17    10    22   am
    18    10     1    1
    19    22    17    1
    20     2     1    1
    21     2     3    1
    22    16    17    1
    23     3     4    1
    24    17    18    1
    25     5     4   ar
    26     5     7   ar
    27    20    18    1
    28     4     6   ar
    29     7     9   ar
    30    18    21    1
    31    18    19    1
    32     6     8   ar
    33     9     8   ar
