@<TRIPOS>MOLECULE
4amz_2P4_A_1.pdb
 26 28 0 0 0
SMALL
GASTEIGER

@<TRIPOS>ATOM
      1  C10       39.4020   37.9120   83.7150 C.2   791  2P4791      0.2336
      2  O11       39.6990   39.0820   84.0270 O.2   791  2P4791     -0.2742
      3  C12       39.7440   36.7740   84.6320 C.3   791  2P4791      0.1252
      4  C13       38.4720   36.4110   85.4040 C.2   791  2P4791     -0.0128
      5  C14       38.8220   36.4050   86.8960 C.2   791  2P4791     -0.0039
      6  C15       40.2190   37.0000   86.9390 C.2   791  2P4791      0.0008
      7  C16       40.7110   37.1480   85.7090 C.2   791  2P4791      0.0453
      8  C1        36.8590   39.0330   81.9650 C.3   791  2P4791      0.2027
      9  O2        35.9260   37.9610   81.8940 O.3   791  2P4791     -0.2185
     10  C3        36.6560   39.6750   83.3670 C.3   791  2P4791      0.2165
     11  O4        37.5900   40.7300   83.5660 O.3   791  2P4791     -0.2175
     12  C5        38.2810   38.5220   81.6210 C.3   791  2P4791      0.1083
     13  C6        38.3060   37.7290   80.3110 C.3   791  2P4791      0.0243
     14  C7        38.2490   36.2540   80.6900 C.3   791  2P4791      0.0233
     15  C8        38.3870   36.1640   82.2060 C.3   791  2P4791      0.0935
     16  N9        38.7310   37.5370   82.6030 N.am  791  2P4791     -0.2781
     17  C17       42.0870   37.5750   85.4200 C.2   791  2P4791      0.2619
     18  O18       42.5200   37.4280   84.2940 O.2   791  2P4791     -0.2687
     19  N19       42.8160   38.1070   86.4180 N.am  791  2P4791     -0.1970
     20  C20       44.2150   38.5190   86.3620 C.3   791  2P4791      0.1418
     21  C21       44.9110   37.4070   87.1130 C.ar  791  2P4791     -0.0006
     22  C22       44.9680   36.1120   86.5920 C.ar  791  2P4791     -0.0026
     23  C23       45.5920   35.0920   87.3260 C.ar  791  2P4791     -0.0003
     24  C24       46.1460   35.3380   88.5890 C.ar  791  2P4791     -0.0000
     25  C25       46.0710   36.6240   89.1190 C.ar  791  2P4791     -0.0003
     26  C26       45.4600   37.6500   88.3840 C.ar  791  2P4791     -0.0026
@<TRIPOS>BOND
     1    13    14    1
     2    13    12    1
     3    14    15    1
     4    12     8    1
     5    12    16    1
     6     9     8    1
     7     8    10    1
     8    15    16    1
     9    16     1   am
    10    10    11    1
    11     1     2    2
    12     1     3    1
    13    18    17    2
    14     3     4    1
    15     3     7    1
    16     4     5    2
    17    17     7    1
    18    17    19   am
    19     7     6    2
    20    20    19    1
    21    20    21    1
    22    22    21   ar
    23    22    23   ar
    24     5     6    1
    25    21    26   ar
    26    23    24   ar
    27    26    25   ar
    28    24    25   ar
