@<TRIPOS>MOLECULE
4an0_2P6_A_1.pdb
 25 27 0 0 0
SMALL
GASTEIGER

@<TRIPOS>ATOM
      1  C17       42.9310   38.1090   86.8570 C.3   791  2P6791      0.0856
      2  C18       44.3610   38.3830   86.3900 C.3   791  2P6791      0.0142
      3  C19       45.3990   38.2620   87.4900 C.3   791  2P6791      0.0269
      4  C20       45.4920   36.8800   88.1150 C.ar  791  2P6791     -0.0222
      5  C21       45.7350   35.7390   87.3410 C.ar  791  2P6791     -0.0043
      6  C25       45.3720   36.7460   89.5040 C.ar  791  2P6791     -0.0043
      7  C22       45.8610   34.4840   87.9490 C.ar  791  2P6791     -0.0003
      8  C24       45.4750   35.4900   90.1060 C.ar  791  2P6791     -0.0003
      9  C23       45.7220   34.3580   89.3290 C.ar  791  2P6791     -0.0000
     10  C15       42.0190   37.7570   85.6860 C.2   791  2P6791      0.2259
     11  O16       42.4480   37.7940   84.5460 O.2   791  2P6791     -0.2749
     12  N14       40.7490   37.4070   85.9830 N.am  791  2P6791     -0.2730
     13  C10       39.8150   37.0390   84.9270 C.3   791  2P6791      0.1520
     14  C8        39.5100   38.1620   83.9550 C.2   791  2P6791      0.2444
     15  O9        39.6000   39.3320   84.2960 O.2   791  2P6791     -0.2731
     16  C11       38.5330   36.6200   85.6330 C.3   791  2P6791      0.0310
     17  C12       38.8860   36.5000   87.0910 C.3   791  2P6791      0.0237
     18  C13       40.1550   37.3130   87.3230 C.3   791  2P6791      0.0939
     19  C1        37.3420   38.8350   81.9800 C.1   791  2P6791      0.0926
     20  N2        36.2260   38.6500   82.3030 N.1   791  2P6791     -0.1942
     21  C3        38.7780   38.7510   81.6930 C.3   791  2P6791      0.1672
     22  C4        38.9580   37.9000   80.4410 C.3   791  2P6791      0.0373
     23  C5        38.5730   36.4940   80.8440 C.3   791  2P6791      0.0244
     24  C6        38.9910   36.3850   82.2940 C.3   791  2P6791      0.0945
     25  N7        39.1380   37.7810   82.7290 N.am  791  2P6791     -0.2672
@<TRIPOS>BOND
     1    22    23    1
     2    22    21    1
     3    23    24    1
     4    21    19    1
     5    21    25    1
     6    19    20    3
     7    24    25    1
     8    25    14   am
     9    14    15    2
    10    14    13    1
    11    11    10    2
    12    13    16    1
    13    13    12    1
    14    16    17    1
    15    10    12   am
    16    10     1    1
    17    12    18    1
    18     2     1    1
    19     2     3    1
    20    17    18    1
    21     5     7   ar
    22     5     4   ar
    23     3     4    1
    24     7     9   ar
    25     4     6   ar
    26     9     8   ar
    27     6     8   ar
