@<TRIPOS>MOLECULE
4an1_2P8_A_1.pdb
 26 28 0 0 0
SMALL
GASTEIGER

@<TRIPOS>ATOM
      1  C17       41.5700   37.3330   84.0260 C.2   791  2P8791      0.3238
      2  O18       42.0590   37.2190   82.9040 O.2   791  2P8791     -0.2507
      3  N19       42.3300   37.7920   85.0220 N.am  791  2P8791     -0.1836
      4  C20       43.7400   38.1700   84.8820 C.3   791  2P8791      0.1431
      5  C21       44.4990   37.0790   85.6130 C.ar  791  2P8791     -0.0005
      6  C22       44.5420   35.7940   85.0980 C.ar  791  2P8791     -0.0026
      7  C23       45.2020   34.7700   85.7710 C.ar  791  2P8791     -0.0003
      8  C24       45.8590   35.0330   86.9740 C.ar  791  2P8791     -0.0000
      9  C25       45.8250   36.3340   87.4910 C.ar  791  2P8791     -0.0003
     10  C26       45.1340   37.3520   86.8130 C.ar  791  2P8791     -0.0026
     11  N16       40.2940   37.0370   84.3010 N.am  791  2P8791     -0.2561
     12  C12       39.3660   36.5370   83.3020 C.3   791  2P8791      0.1533
     13  C10       38.9330   37.6280   82.3770 C.2   791  2P8791      0.2438
     14  O11       39.1650   38.8120   82.6170 O.2   791  2P8791     -0.2731
     15  C13       38.1470   36.0420   84.0860 C.3   791  2P8791      0.0310
     16  C14       38.1860   36.9390   85.3080 C.3   791  2P8791      0.0238
     17  C15       39.6530   37.1960   85.6030 C.3   791  2P8791      0.0955
     18  C1        36.3810   38.7230   80.6760 C.3   791  2P8791      0.2027
     19  O2        35.4990   37.6270   80.7380 O.3   791  2P8791     -0.2185
     20  C3        36.2080   39.2360   82.1050 C.3   791  2P8791      0.2165
     21  O4        37.0250   40.3630   82.3300 O.3   791  2P8791     -0.2175
     22  C5        37.8040   38.2200   80.3200 C.3   791  2P8791      0.1084
     23  C6        37.7730   37.3800   79.0330 C.3   791  2P8791      0.0243
     24  C7        37.6430   35.9200   79.4250 C.3   791  2P8791      0.0233
     25  C8        37.9840   35.8450   80.9140 C.3   791  2P8791      0.0935
     26  N9        38.2630   37.2320   81.3020 N.am  791  2P8791     -0.2772
@<TRIPOS>BOND
     1    23    24    1
     2    23    22    1
     3    24    25    1
     4    22    18    1
     5    22    26    1
     6    18    19    1
     7    18    20    1
     8    25    26    1
     9    26    13   am
    10    20    21    1
    11    13    14    2
    12    13    12    1
    13     2     1    2
    14    12    15    1
    15    12    11    1
    16     1    11   am
    17     1     3   am
    18    15    16    1
    19    11    17    1
    20     4     3    1
    21     4     5    1
    22     6     5   ar
    23     6     7   ar
    24    16    17    1
    25     5    10   ar
    26     7     8   ar
    27    10     9   ar
    28     8     9   ar
