@<TRIPOS>MOLECULE
4an2_ACP_A_1.pdb
 31 33 0 0 0
SMALL
GASTEIGER

@<TRIPOS>ATOM
      1  PG       -27.2250   17.6910   -6.8790 P.3   1383  ACP1383     0.1295
      2  O1G      -27.2600   16.6290   -7.9580 O.2   1383  ACP1383    -0.4595
      3  O2G      -28.5850   17.8480   -6.1700 O.3   1383  ACP1383    -0.3567
      4  O3G      -26.1690   17.3590   -5.8430 O.3   1383  ACP1383    -0.3567
      5  PB       -28.3590   19.9690   -8.5360 P.3   1383  ACP1383     0.3815
      6  O1B      -29.4270   19.9970   -7.4670 O.3   1383  ACP1383    -0.1391
      7  O2B      -28.1890   21.3130   -9.2130 O.2   1383  ACP1383    -0.2547
      8  C3B      -26.8490   19.2420   -7.7910 C.3   1383  ACP1383     0.1768
      9  PA       -30.0210   18.0670   -9.9330 P.3   1383  ACP1383     0.2209
     10  O1A      -30.6060   17.7330   -8.5930 O.3   1383  ACP1383    -0.4371
     11  O2A      -29.5810   16.9100  -10.7980 O.2   1383  ACP1383    -0.5170
     12  O3A      -28.7610   19.0670   -9.7910 O.3   1383  ACP1383    -0.2483
     13  O5'      -30.9810   18.9690  -10.8380 O.3   1383  ACP1383    -0.3111
     14  C5'      -30.4860   19.5880  -12.0320 C.3   1383  ACP1383     0.1813
     15  C4'      -31.3190   20.8330  -12.3790 C.3   1383  ACP1383     0.1821
     16  O4'      -32.7160   20.4480  -12.4580 O.3   1383  ACP1383    -0.3135
     17  C3'      -31.2240   21.8570  -11.2500 C.3   1383  ACP1383     0.2184
     18  O3'      -31.2140   23.2160  -11.7330 O.3   1383  ACP1383    -0.2174
     19  C2'      -32.5000   21.6450  -10.4930 C.3   1383  ACP1383     0.2570
     20  O2'      -32.8810   22.8590   -9.8650 O.3   1383  ACP1383    -0.2130
     21  C1'      -33.5020   21.2350  -11.5680 C.3   1383  ACP1383     0.3186
     22  N9       -34.5990   20.4860  -10.9350 N.pl3 1383  ACP1383    -0.1439
     23  C8       -34.5130   19.4210  -10.1130 C.3   1383  ACP1383     0.3377
     24  N7       -35.7170   18.9840   -9.7010 N.2   1383  ACP1383    -0.2095
     25  C5       -36.6070   19.8130  -10.2600 C.2   1383  ACP1383     0.2526
     26  C6       -38.0670   19.9660  -10.2380 C.2   1383  ACP1383     0.4393
     27  N6       -38.8230   19.1190   -9.5130 N.pl3 1383  ACP1383     0.2180
     28  N1       -38.6180   20.9770  -10.9490 N.2   1383  ACP1383     0.0021
     29  C2       -37.8950   21.8170  -11.6840 C.3   1383  ACP1383     0.5254
     30  N3       -36.5510   21.7480  -11.7390 N.2   1383  ACP1383    -0.0055
     31  C4       -35.8750   20.7890  -11.0620 C.2   1383  ACP1383     0.3518
@<TRIPOS>BOND
     1    16    15    1
     2    16    21    1
     3    15    14    1
     4    15    17    1
     5    14    13    1
     6    30    29    1
     7    30    31    2
     8    18    17    1
     9    29    28    1
    10    21    22    1
    11    21    19    1
    12    17    19    1
    13    31    22    1
    14    31    25    1
    15    28    26    2
    16    22    23    1
    17    13     9    1
    18    11     9    2
    19    19    20    1
    20    25    26    1
    21    25    24    2
    22    26    27    1
    23    23    24    1
    24     9    12    1
    25     9    10    1
    26    12     5    1
    27     7     5    2
    28     5     8    1
    29     5     6    1
    30     2     1    2
    31     8     1    1
    32     1     3    1
    33     1     4    1
