@<TRIPOS>MOLECULE
4an2_EUI_A_1.pdb
 30 33 0 0 0
SMALL
GASTEIGER

@<TRIPOS>ATOM
      1  O20      -31.1580   12.8710   -6.2920 O.2   1382  EUI1382    -0.2699
      2  C18      -30.6740   12.7290   -5.1760 C.2   1382  EUI1382     0.2505
      3  C15      -31.1960   11.7010   -4.2240 C.ar  1382  EUI1382     0.0711
      4  C14      -30.2890   11.0380   -3.3310 C.ar  1382  EUI1382     0.0083
      5  C13      -30.7470   10.0440   -2.4520 C.ar  1382  EUI1382     0.0322
      6  C12      -32.1190    9.7390   -2.5130 C.ar  1382  EUI1382     0.1687
      7  F17      -32.7780    8.8720   -1.7900 F     1382  EUI1382    -0.2018
      8  C11      -32.9780   10.3550   -3.3910 C.ar  1382  EUI1382     0.1826
      9  F16      -34.2420   10.0390   -3.3390 F     1382  EUI1382    -0.2004
     10  C10      -32.5580   11.3320   -4.2630 C.ar  1382  EUI1382     0.1045
     11  N9       -33.5470   11.8970   -5.0440 N.pl3 1382  EUI1382    -0.2077
     12  C5       -34.8100   12.4390   -4.7530 C.ar  1382  EUI1382     0.0979
     13  C4       -35.3320   12.4230   -3.4350 C.ar  1382  EUI1382     0.0192
     14  C3       -36.6090   12.9830   -3.1520 C.ar  1382  EUI1382     0.0073
     15  C2       -37.3470   13.5770   -4.1780 C.ar  1382  EUI1382     0.0324
     16  I8       -39.3310   14.4550   -3.8890 I     1382  EUI1382    -0.0424
     17  C6       -35.5700   13.0360   -5.7550 C.ar  1382  EUI1382     0.1556
     18  F7       -35.1060   13.0620   -7.0100 F     1382  EUI1382    -0.2028
     19  C1       -36.8320   13.5950   -5.4590 C.ar  1382  EUI1382     0.0368
     20  N19      -29.6500   13.5370   -4.8420 N.am  1382  EUI1382    -0.2708
     21  C23      -28.9250   13.6760   -3.5900 C.3   1382  EUI1382     0.1271
     22  C22      -28.2250   14.8240   -4.4330 C.3   1382  EUI1382     0.1773
     23  C21      -29.0660   14.5390   -5.7280 C.3   1382  EUI1382     0.1271
     24  O24      -28.5980   16.1420   -4.0240 O.3   1382  EUI1382    -0.2207
     25  C25      -26.7130   14.7600   -4.6300 C.3   1382  EUI1382     0.1040
     26  C30      -26.1890   13.3010   -4.7850 C.3   1382  EUI1382     0.0201
     27  C29      -24.6570   13.3010   -4.6250 C.3   1382  EUI1382     0.0030
     28  C28      -24.2860   13.7990   -3.2030 C.3   1382  EUI1382     0.0189
     29  C27      -24.8170   15.2450   -3.0510 C.3   1382  EUI1382     0.0887
     30  N26      -26.2470   15.4030   -3.3920 N.3   1382  EUI1382    -0.2169
@<TRIPOS>BOND
     1    18    17    1
     2     1     2    2
     3    17    19   ar
     4    17    12   ar
     5    23    20    1
     6    23    22    1
     7    19    15   ar
     8     2    20   am
     9     2     3    1
    10    11    12    1
    11    11    10    1
    12    20    21    1
    13    26    25    1
    14    26    27    1
    15    12    13   ar
    16    25    22    1
    17    25    30    1
    18    27    28    1
    19    22    24    1
    20    22    21    1
    21    10     3   ar
    22    10     8   ar
    23     3     4   ar
    24    15    16    1
    25    15    14   ar
    26    13    14   ar
    27    30    29    1
    28     8     9    1
    29     8     6   ar
    30     4     5   ar
    31    28    29    1
    32     6     5   ar
    33     6     7    1
