@<TRIPOS>MOLECULE
4an3_5Y0_A_1.pdb
 26 27 0 0 0
SMALL
GASTEIGER

@<TRIPOS>ATOM
      1  C13        6.2150   36.5940    4.7370 C.ar  1384  5Y01384     0.0979
      2  C14        6.4510   37.0640    3.4270 C.ar  1384  5Y01384     0.0192
      3  C15        6.5590   38.4070    3.2160 C.ar  1384  5Y01384     0.0073
      4  C16        6.4600   39.3620    4.2380 C.ar  1384  5Y01384     0.0324
      5  C17        6.1990   38.8580    5.5300 C.ar  1384  5Y01384     0.0368
      6  C18        6.0880   37.5050    5.7620 C.ar  1384  5Y01384     0.1556
      7  N9         6.0590   35.2600    5.0130 N.pl3 1384  5Y01384    -0.2077
      8  C5         5.8600   34.2170    4.1450 C.ar  1384  5Y01384     0.1046
      9  C6         4.8150   33.2800    4.2300 C.ar  1384  5Y01384     0.0747
     10  C1         4.7280   32.2340    3.2850 C.ar  1384  5Y01384     0.0084
     11  C2         5.7040   32.1040    2.2720 C.ar  1384  5Y01384     0.0322
     12  C3         6.7610   33.0200    2.2270 C.ar  1384  5Y01384     0.1687
     13  C4         6.8030   34.0550    3.1290 C.ar  1384  5Y01384     0.1826
     14  C10        3.7900   33.3490    5.2940 C.2   1384  5Y01384     0.2914
     15  N12        2.6720   32.6270    5.2340 N.am  1384  5Y01384    -0.0577
     16  O11        4.1460   33.8080    6.3810 O.2   1384  5Y01384    -0.2661
     17  O21        1.9310   32.4310    6.4200 O.3   1384  5Y01384    -0.2409
     18  C22        0.7310   31.6420    6.5050 C.3   1384  5Y01384     0.2088
     19  C24        1.8890   31.0650    8.6560 C.3   1384  5Y01384     0.2175
     20  O26        0.0600   29.6710    7.8380 O.3   1384  5Y01384    -0.2175
     21  O23        1.8540   32.4070    9.1130 O.3   1384  5Y01384    -0.2175
     22  C25        0.5740   31.0130    7.9020 C.3   1384  5Y01384     0.2167
     23  I20        6.6610   41.4760    3.9960 I     1384  5Y01384    -0.0424
     24  F19        5.8470   37.0860    7.0340 F     1384  5Y01384    -0.2028
     25  F7         7.8250   34.9090    3.0170 F     1384  5Y01384    -0.2004
     26  F8         7.7560   32.9830    1.3060 F     1384  5Y01384    -0.2018
@<TRIPOS>BOND
     1    26    12    1
     2    12    11   ar
     3    12    13   ar
     4    11    10   ar
     5    25    13    1
     6    13     8   ar
     7     3     2   ar
     8     3     4   ar
     9    10     9   ar
    10     2     1   ar
    11    23     4    1
    12     8     9   ar
    13     8     7    1
    14     9    14    1
    15     4     5   ar
    16     1     7    1
    17     1     6   ar
    18    15    14   am
    19    15    17    1
    20    14    16    2
    21     5     6   ar
    22     6    24    1
    23    17    18    1
    24    18    22    1
    25    20    22    1
    26    22    19    1
    27    19    21    1
