@<TRIPOS>MOLECULE
4an3_ATP_A_1.pdb
 31 33 0 0 0
SMALL
GASTEIGER

@<TRIPOS>ATOM
      1  PG        -3.4480   31.5970    7.3850 P.3   1383  ATP1383     0.5373
      2  O1G       -2.2970   31.1650    8.2590 O.3   1383  ATP1383    -0.1143
      3  O2G       -3.0050   31.9280    5.9570 O.2   1383  ATP1383    -0.2221
      4  O3G       -4.6610   30.6680    7.5260 O.3   1383  ATP1383    -0.1143
      5  PB        -3.4940   34.3730    8.3400 P.3   1383  ATP1383     0.2277
      6  O1B       -3.0490   34.9560    7.0070 O.2   1383  ATP1383    -0.5168
      7  O2B       -4.4040   35.1650    9.2360 O.3   1383  ATP1383    -0.4368
      8  O3B       -4.1390   32.9380    8.0340 O.3   1383  ATP1383    -0.2258
      9  PA        -0.9290   34.7670    9.6150 P.3   1383  ATP1383     0.2189
     10  O1A       -0.1020   35.0880    8.4000 O.2   1383  ATP1383    -0.5170
     11  O2A       -0.3590   34.4820   11.0100 O.3   1383  ATP1383    -0.4371
     12  O3A       -2.2890   33.9580    9.3550 O.3   1383  ATP1383    -0.2700
     13  O5'       -1.6170   36.1290   10.0160 O.3   1383  ATP1383    -0.3112
     14  C5'       -1.9500   36.2590   11.3930 C.3   1383  ATP1383     0.1813
     15  C4'       -2.8230   37.4830   11.6450 C.3   1383  ATP1383     0.1821
     16  O4'       -1.9570   38.4610   12.1930 O.3   1383  ATP1383    -0.3135
     17  C3'       -3.5450   38.1720   10.4900 C.3   1383  ATP1383     0.2184
     18  O3'       -4.9620   37.9080   10.4990 O.3   1383  ATP1383    -0.2174
     19  C2'       -3.3540   39.6540   10.7220 C.3   1383  ATP1383     0.2570
     20  O2'       -4.5210   40.1230   11.3920 O.3   1383  ATP1383    -0.2130
     21  C1'       -2.2150   39.7490   11.7070 C.3   1383  ATP1383     0.3186
     22  N9        -0.9650   40.2090   11.0600 N.pl3 1383  ATP1383    -0.1439
     23  C8        -0.0930   39.5110   10.2730 C.3   1383  ATP1383     0.3377
     24  N7         0.9230   40.3020    9.8620 N.2   1383  ATP1383    -0.2095
     25  C5         0.6850   41.5380   10.3620 C.2   1383  ATP1383     0.2526
     26  C6         1.3270   42.8820   10.3530 C.2   1383  ATP1383     0.4393
     27  N6         2.4650   43.0920    9.6530 N.pl3 1383  ATP1383     0.2180
     28  N1         0.7170   43.9070   11.0370 N.2   1383  ATP1383     0.0021
     29  C2        -0.4410   43.7760   11.7170 C.3   1383  ATP1383     0.5254
     30  N3        -1.0680   42.5830   11.7800 N.2   1383  ATP1383    -0.0055
     31  C4        -0.5520   41.4670   11.1650 C.2   1383  ATP1383     0.3518
@<TRIPOS>BOND
     1     3     1    2
     2     6     5    2
     3     1     4    1
     4     1     8    1
     5     1     2    1
     6     8     5    1
     7     5     7    1
     8     5    12    1
     9    10     9    2
    10    12     9    1
    11     9    13    1
    12     9    11    1
    13    27    26    1
    14    24    23    1
    15    24    25    2
    16    13    14    1
    17    23    22    1
    18    26    25    1
    19    26    28    2
    20    25    31    1
    21    17    18    1
    22    17    19    1
    23    17    15    1
    24    19    20    1
    25    19    21    1
    26    28    29    1
    27    22    31    1
    28    22    21    1
    29    31    30    2
    30    14    15    1
    31    15    16    1
    32    21    16    1
    33    29    30    1
