@<TRIPOS>MOLECULE
4an4_DUD_B_1.pdb
 24 25 0 0 0
SMALL
GASTEIGER

@<TRIPOS>ATOM
      1  N1       -10.1640   17.5950  -31.7660 N.am  401  DUD401     -0.1790
      2  C2       -10.8020   18.8450  -31.6000 C.1   401  DUD401      0.2844
      3  N3       -11.4150   19.4260  -32.6310 N.2   401  DUD401     -0.2452
      4  C4       -11.4370   18.8490  -33.8470 C.1   401  DUD401      0.2182
      5  C5       -10.8120   17.6180  -34.0470 C.2   401  DUD401      0.1242
      6  C6       -10.1750   17.0000  -32.9710 C.2   401  DUD401      0.0928
      7  O2       -10.8260   19.4270  -30.4990 O.2   401  DUD401     -0.1918
      8  O4       -12.0150   19.4180  -34.7990 O.2   401  DUD401     -0.2085
      9  C1'       -9.4930   16.9650  -30.6240 C.3   401  DUD401      0.2090
     10  C2'      -10.4290   16.8770  -29.4240 C.3   401  DUD401      0.0874
     11  C3'      -10.0750   15.5890  -28.7220 C.3   401  DUD401      0.1857
     12  C4'       -9.1270   14.8660  -29.6680 C.3   401  DUD401      0.1773
     13  O4'       -9.0790   15.6180  -30.8830 O.3   401  DUD401     -0.3339
     14  O3'       -9.4410   15.8630  -27.4650 O.3   401  DUD401     -0.2203
     15  C5'       -9.6040   13.4400  -29.9150 C.3   401  DUD401      0.1812
     16  O5'       -9.5880   12.7200  -28.6700 O.3   401  DUD401     -0.3111
     17  PA        -9.0870   11.1920  -28.6610 P.3   401  DUD401      0.2231
     18  O1A      -10.2740   10.4110  -29.1580 O.2   401  DUD401     -0.5169
     19  O2A       -8.3690   10.8050  -27.3870 O.3   401  DUD401     -0.4370
     20  O3A       -7.9700   11.2560  -29.8200 O.3   401  DUD401     -0.2261
     21  PB        -7.4450    9.9500  -30.5860 P.3   401  DUD401      0.5373
     22  O1B       -7.1480   10.4750  -31.9700 O.2   401  DUD401     -0.2221
     23  O2B       -8.5720    8.9400  -30.5150 O.3   401  DUD401     -0.1143
     24  O3B       -6.2340    9.5900  -29.7580 O.3   401  DUD401     -0.1143
@<TRIPOS>BOND
     1     8     4    2
     2     5     4    1
     3     5     6    2
     4     4     3    2
     5     6     1    1
     6     3     2    2
     7    22    21    2
     8     1     2   am
     9     1     9    1
    10     2     7    2
    11    13     9    1
    12    13    12    1
    13     9    10    1
    14    21    23    1
    15    21    20    1
    16    21    24    1
    17    15    12    1
    18    15    16    1
    19    20    17    1
    20    12    11    1
    21    10    11    1
    22    18    17    2
    23    11    14    1
    24    16    17    1
    25    17    19    1
