@<TRIPOS>MOLECULE
4an9_2P7_A_1.pdb
 24 26 0 0 0
SMALL
GASTEIGER

@<TRIPOS>ATOM
      1  C5       -28.5530  -23.6340   -4.7120 C.ar  1384  2P71384     0.0979
      2  C6       -28.8730  -24.1170   -3.4410 C.ar  1384  2P71384     0.0192
      3  C7       -30.0030  -24.9200   -3.2360 C.ar  1384  2P71384     0.0073
      4  C2       -30.8630  -25.2500   -4.2830 C.ar  1384  2P71384     0.0324
      5  C3       -30.5400  -24.7650   -5.5340 C.ar  1384  2P71384     0.0368
      6  C4       -29.4220  -23.9850   -5.7520 C.ar  1384  2P71384     0.1556
      7  N8       -27.4480  -22.8360   -4.9540 N.pl3 1384  2P71384    -0.2077
      8  C9       -26.5130  -22.3670   -4.0490 C.ar  1384  2P71384     0.1045
      9  C14      -26.0710  -21.0150   -3.9730 C.ar  1384  2P71384     0.0711
     10  C13      -25.1240  -20.6250   -3.0460 C.ar  1384  2P71384     0.0083
     11  C12      -24.5690  -21.5800   -2.1970 C.ar  1384  2P71384     0.0322
     12  C11      -24.9640  -22.9190   -2.2700 C.ar  1384  2P71384     0.1687
     13  C10      -25.9400  -23.2880   -3.2080 C.ar  1384  2P71384     0.1826
     14  C15      -26.6580  -19.9610   -4.8690 C.2   1384  2P71384     0.2505
     15  N17      -26.8150  -18.6340   -4.4610 N.am  1384  2P71384    -0.2707
     16  O16      -26.9960  -20.4310   -5.9670 O.2   1384  2P71384    -0.2699
     17  C19      -27.0930  -16.7210   -3.8000 C.3   1384  2P71384     0.1914
     18  C20      -26.4820  -17.9860   -3.1910 C.3   1384  2P71384     0.1283
     19  O21      -28.2460  -16.3310   -3.0240 O.3   1384  2P71384    -0.2195
     20  I1       -32.5840  -26.4950   -4.0050 I     1384  2P71384    -0.0424
     21  C18      -27.3770  -17.4280   -5.1240 C.3   1384  2P71384     0.1283
     22  F24      -29.2080  -23.5650   -7.0140 F     1384  2P71384    -0.2028
     23  F23      -26.3620  -24.5510   -3.3450 F     1384  2P71384    -0.2004
     24  F22      -24.3930  -23.8240   -1.4250 F     1384  2P71384    -0.2018
@<TRIPOS>BOND
     1    22     6    1
     2    16    14    2
     3     6     5   ar
     4     6     1   ar
     5     5     4   ar
     6    21    15    1
     7    21    17    1
     8     7     1    1
     9     7     8    1
    10    14    15   am
    11    14     9    1
    12     1     2   ar
    13    15    18    1
    14     4    20    1
    15     4     3   ar
    16     8     9   ar
    17     8    13   ar
    18     9    10   ar
    19    17    18    1
    20    17    19    1
    21     2     3   ar
    22    23    13    1
    23    13    12   ar
    24    10    11   ar
    25    12    11   ar
    26    12    24    1
