@<TRIPOS>MOLECULE
4an9_ACP_A_1.pdb
 31 33 0 0 0
SMALL
GASTEIGER

@<TRIPOS>ATOM
      1  PG       -29.3740  -12.4680   -7.7840 P.3   1382  ACP1382     0.1295
      2  O1G      -28.7490  -12.8950   -9.1090 O.2   1382  ACP1382    -0.4595
      3  O2G      -29.0460  -13.3140   -6.5730 O.3   1382  ACP1382    -0.3567
      4  O3G      -29.1470  -11.0070   -7.5490 O.3   1382  ACP1382    -0.3567
      5  PB       -31.8650  -14.2170   -8.6030 P.3   1382  ACP1382     0.3815
      6  O1B      -31.8110  -15.1310   -7.3830 O.3   1382  ACP1382    -0.1391
      7  O2B      -33.1710  -13.8680   -9.2850 O.2   1382  ACP1382    -0.2547
      8  C3B      -31.1640  -12.6110   -8.0660 C.3   1382  ACP1382     0.1768
      9  PA       -31.0060  -16.5240   -9.8100 P.3   1382  ACP1382     0.2209
     10  O1A      -30.7760  -17.2100   -8.4590 O.3   1382  ACP1382    -0.4371
     11  O2A      -30.2080  -16.9510  -10.9900 O.2   1382  ACP1382    -0.5170
     12  O3A      -30.9870  -14.9230   -9.7490 O.3   1382  ACP1382    -0.2483
     13  O5'      -32.4940  -16.6820  -10.3290 O.3   1382  ACP1382    -0.3111
     14  C5'      -32.8320  -16.1730  -11.6040 C.3   1382  ACP1382     0.1813
     15  C4'      -34.3560  -16.2510  -11.7410 C.3   1382  ACP1382     0.1821
     16  O4'      -34.6100  -17.4660  -12.4570 O.3   1382  ACP1382    -0.3135
     17  C3'      -35.1420  -16.3810  -10.4170 C.3   1382  ACP1382     0.2184
     18  O3'      -35.7250  -15.2000   -9.8580 O.3   1382  ACP1382    -0.2174
     19  C2'      -36.2910  -17.2550  -10.8070 C.3   1382  ACP1382     0.2570
     20  O2'      -37.2820  -16.4070  -11.3620 O.3   1382  ACP1382    -0.2130
     21  C1'      -35.7140  -18.1570  -11.8870 C.3   1382  ACP1382     0.3186
     22  N9       -35.4200  -19.4330  -11.1750 N.pl3 1382  ACP1382    -0.1439
     23  C8       -34.3860  -19.7720  -10.3800 C.3   1382  ACP1382     0.3377
     24  N7       -34.5500  -21.0270   -9.8810 N.2   1382  ACP1382    -0.2095
     25  C5       -35.7100  -21.5090  -10.3580 C.2   1382  ACP1382     0.2526
     26  C6       -36.5080  -22.7540  -10.2530 C.2   1382  ACP1382     0.4393
     27  N6       -36.0760  -23.8050   -9.5280 N.pl3 1382  ACP1382     0.2180
     28  N1       -37.6990  -22.8270  -10.9100 N.2   1382  ACP1382     0.0021
     29  C2       -38.1920  -21.8210  -11.6850 C.3   1382  ACP1382     0.5254
     30  N3       -37.5110  -20.6560  -11.8450 N.2   1382  ACP1382    -0.0055
     31  C4       -36.2920  -20.4510  -11.2030 C.2   1382  ACP1382     0.3518
@<TRIPOS>BOND
     1    16    21    1
     2    16    15    1
     3    21    22    1
     4    21    19    1
     5    30    29    1
     6    30    31    2
     7    15    14    1
     8    15    17    1
     9    29    28    1
    10    14    13    1
    11    20    19    1
    12    31    22    1
    13    31    25    1
    14    22    23    1
    15    11     9    2
    16    28    26    2
    17    19    17    1
    18    17    18    1
    19    23    24    1
    20    25    26    1
    21    25    24    2
    22    13     9    1
    23    26    27    1
    24     9    12    1
    25     9    10    1
    26    12     5    1
    27     7     5    2
    28     2     1    2
    29     5     8    1
    30     5     6    1
    31     8     1    1
    32     1     4    1
    33     1     3    1
