@<TRIPOS>MOLECULE
4anb_YQY_A_1.pdb
 26 28 0 0 0
SMALL
GASTEIGER

@<TRIPOS>ATOM
      1  F26       25.9240  -24.9120    3.0570 F     1382  YQY1382    -0.2004
      2  C9        25.5670  -23.6580    3.1750 C.ar  1382  YQY1382     0.1826
      3  C10       24.6010  -23.2550    2.3170 C.ar  1382  YQY1382     0.1687
      4  F22       24.1440  -24.2270    1.5340 F     1382  YQY1382    -0.2018
      5  C11       24.1430  -21.9590    2.2960 C.ar  1382  YQY1382     0.0322
      6  C12       24.7190  -21.0650    3.1800 C.ar  1382  YQY1382     0.0083
      7  C13       25.7590  -21.4670    4.0170 C.ar  1382  YQY1382     0.0711
      8  C16       26.3770  -20.4660    4.9290 C.2   1382  YQY1382     0.2505
      9  O18       26.8510  -20.8090    6.0120 O.2   1382  YQY1382    -0.2699
     10  N17       26.4560  -19.1860    4.5930 N.am  1382  YQY1382    -0.2708
     11  C21       26.1120  -18.4460    3.3860 C.3   1382  YQY1382     0.1273
     12  C20       26.7530  -17.2700    4.1280 C.3   1382  YQY1382     0.1803
     13  O23       28.0590  -16.8460    3.7450 O.3   1382  YQY1382    -0.2206
     14  C24       25.7760  -16.1110    4.1930 C.3   1382  YQY1382     0.1430
     15  N25       26.3380  -15.1750    5.1040 N.3   1382  YQY1382    -0.1286
     16  C19       27.0040  -18.0820    5.3670 C.3   1382  YQY1382     0.1273
     17  C8        26.2210  -22.7860    3.9940 C.ar  1382  YQY1382     0.1045
     18  N7        27.2400  -23.2140    4.7880 N.pl3 1382  YQY1382    -0.2077
     19  C5        28.3340  -23.9950    4.3740 C.ar  1382  YQY1382     0.0979
     20  C6        29.2540  -24.3680    5.3510 C.ar  1382  YQY1382     0.1556
     21  F15       29.0240  -23.9200    6.5640 F     1382  YQY1382    -0.2028
     22  C1        30.3990  -25.1570    5.1460 C.ar  1382  YQY1382     0.0368
     23  C4        28.5960  -24.4890    3.0870 C.ar  1382  YQY1382     0.0192
     24  C3        29.7490  -25.3080    2.8980 C.ar  1382  YQY1382     0.0073
     25  C2        30.6630  -25.6250    3.9020 C.ar  1382  YQY1382     0.0324
     26  I14       32.3900  -26.9130    3.6630 I     1382  YQY1382    -0.0424
@<TRIPOS>BOND
     1     4     3    1
     2     5     3   ar
     3     5     6   ar
     4     3     2   ar
     5    24    23   ar
     6    24    25   ar
     7     1     2    1
     8    23    19   ar
     9     2    17   ar
    10     6     7   ar
    11    11    12    1
    12    11    10    1
    13    26    25    1
    14    13    12    1
    15    25    22   ar
    16    17     7   ar
    17    17    18    1
    18     7     8    1
    19    12    14    1
    20    12    16    1
    21    14    15    1
    22    19    18    1
    23    19    20   ar
    24    10     8   am
    25    10    16    1
    26     8     9    2
    27    22    20   ar
    28    20    21    1
