@<TRIPOS>MOLECULE
4anb_ACP_A_1.pdb
 31 33 0 0 0
SMALL
GASTEIGER

@<TRIPOS>ATOM
      1  PG        29.2130  -14.5320    6.7910 P.3   1383  ACP1383     0.1295
      2  O1G       28.2250  -14.9590    7.8550 O.3   1383  ACP1383    -0.3567
      3  O2G       29.8800  -15.7350    6.1220 O.3   1383  ACP1383    -0.3567
      4  O3G       28.5390  -13.7260    5.7310 O.2   1383  ACP1383    -0.4595
      5  PB        31.7840  -14.5650    8.3690 P.3   1383  ACP1383     0.3815
      6  O1B       32.2870  -15.3690    7.2550 O.2   1383  ACP1383    -0.2547
      7  O2B       32.8250  -14.0010    9.3140 O.3   1383  ACP1383    -0.1391
      8  C3B       30.4590  -13.5030    7.6800 C.3   1383  ACP1383     0.1768
      9  PA        30.7610  -17.0550    9.6380 P.3   1383  ACP1383     0.2209
     10  O1A       30.6270  -17.7310    8.2940 O.2   1383  ACP1383    -0.5170
     11  O2A       29.7190  -17.2160   10.7060 O.3   1383  ACP1383    -0.4371
     12  O3A       30.9160  -15.4500    9.4260 O.3   1383  ACP1383    -0.2483
     13  O5'       32.0750  -17.4450   10.4250 O.3   1383  ACP1383    -0.3111
     14  C5'       32.2580  -16.8790   11.7170 C.3   1383  ACP1383     0.1813
     15  C4'       33.7250  -16.8610   12.0720 C.3   1383  ACP1383     0.1821
     16  O4'       34.1630  -18.1930   12.2760 O.3   1383  ACP1383    -0.3135
     17  C3'       34.6020  -16.2880   10.9660 C.3   1383  ACP1383     0.2184
     18  O3'       35.6760  -15.5450   11.5690 O.3   1383  ACP1383    -0.2174
     19  C2'       35.2770  -17.4750   10.3570 C.3   1383  ACP1383     0.2570
     20  O2'       36.5750  -17.0500    9.9110 O.3   1383  ACP1383    -0.2130
     21  C1'       35.3310  -18.4900   11.5090 C.3   1383  ACP1383     0.3186
     22  N9        35.2640  -19.8200   10.8880 N.pl3 1383  ACP1383    -0.1439
     23  C8        34.3180  -20.2200   10.0110 C.3   1383  ACP1383     0.3377
     24  N7        34.5790  -21.4690    9.5850 N.2   1383  ACP1383    -0.2095
     25  C5        35.6870  -21.9070   10.1840 C.2   1383  ACP1383     0.2526
     26  C6        36.5180  -23.1690   10.1400 C.2   1383  ACP1383     0.4393
     27  N6        36.1380  -24.2050    9.3390 N.pl3 1383  ACP1383     0.2180
     28  N1        37.6470  -23.2110   10.9000 N.2   1383  ACP1383     0.0021
     29  C2        38.0110  -22.1680   11.6410 C.3   1383  ACP1383     0.5254
     30  N3        37.2970  -21.0150   11.7060 N.2   1383  ACP1383    -0.0055
     31  C4        36.1590  -20.8240   11.0190 C.2   1383  ACP1383     0.3518
@<TRIPOS>BOND
     1     4     1    2
     2     3     1    1
     3     1     8    1
     4     1     2    1
     5     6     5    2
     6     8     5    1
     7    10     9    2
     8     5     7    1
     9     5    12    1
    10    27    26    1
    11    12     9    1
    12    24    23    1
    13    24    25    2
    14     9    13    1
    15     9    11    1
    16    20    19    1
    17    23    22    1
    18    26    25    1
    19    26    28    2
    20    25    31    1
    21    19    17    1
    22    19    21    1
    23    13    14    1
    24    22    31    1
    25    22    21    1
    26    28    29    1
    27    17    18    1
    28    17    15    1
    29    31    30    2
    30    21    16    1
    31    29    30    1
    32    14    15    1
    33    15    16    1
