@<TRIPOS>MOLECULE
4anj_ADP_A_1.pdb
 27 29 0 0 0
SMALL
GASTEIGER

@<TRIPOS>ATOM
      1  PB         4.0050   -5.8460   41.1400 P.3   2230  ADP2230     0.5373
      2  O1B        2.5220   -5.6220   40.9340 O.3   2230  ADP2230    -0.1143
      3  O2B        4.9100   -5.3770   40.0240 O.2   2230  ADP2230    -0.2221
      4  O3B        4.4830   -5.4690   42.5220 O.3   2230  ADP2230    -0.1143
      5  PA         5.0940   -8.3460   41.9630 P.3   2230  ADP2230     0.2231
      6  O1A        4.2970   -8.6740   43.2020 O.3   2230  ADP2230    -0.4370
      7  O2A        6.4620   -7.7420   42.1360 O.2   2230  ADP2230    -0.5169
      8  O3A        4.1590   -7.4460   41.0180 O.3   2230  ADP2230    -0.2261
      9  O5'        5.2330   -9.6520   41.0550 O.3   2230  ADP2230    -0.3111
     10  C5'        4.1260  -10.5320   40.9230 C.3   2230  ADP2230     0.1813
     11  C4'        4.5810  -11.9780   41.0550 C.3   2230  ADP2230     0.1821
     12  O4'        5.5250  -12.3060   40.0360 O.3   2230  ADP2230    -0.3135
     13  C3'        5.2670  -12.2660   42.3750 C.3   2230  ADP2230     0.2184
     14  O3'        4.3040  -12.7440   43.3130 O.3   2230  ADP2230    -0.2174
     15  C2'        6.2680  -13.3440   42.0270 C.3   2230  ADP2230     0.2570
     16  O2'        5.6660  -14.6350   42.1550 O.3   2230  ADP2230    -0.2130
     17  C1'        6.5480  -13.1530   40.5520 C.3   2230  ADP2230     0.3186
     18  N9         7.8750  -12.5320   40.2920 N.pl3 2230  ADP2230    -0.1439
     19  C8         8.0880  -11.2650   39.8880 C.3   2230  ADP2230     0.3377
     20  N7         9.4130  -11.0210   39.7230 N.2   2230  ADP2230    -0.2095
     21  C5        10.0760  -12.1510   40.0250 C.2   2230  ADP2230     0.2526
     22  C6        11.4940  -12.5840   40.0630 C.2   2230  ADP2230     0.4393
     23  N6        12.5010  -11.7490   39.7300 N.pl3 2230  ADP2230     0.2180
     24  N1        11.7490  -13.8580   40.4390 N.2   2230  ADP2230     0.0021
     25  C2        10.7620  -14.7180   40.7700 C.3   2230  ADP2230     0.5254
     26  N3         9.4550  -14.3900   40.7560 N.2   2230  ADP2230    -0.0055
     27  C4         9.0580  -13.1450   40.3980 C.2   2230  ADP2230     0.3518
@<TRIPOS>BOND
     1    20    19    1
     2    20    21    2
     3    23    22    1
     4    19    18    1
     5     3     1    2
     6    21    22    1
     7    21    27    1
     8    12    17    1
     9    12    11    1
    10    22    24    2
    11    18    27    1
    12    18    17    1
    13    27    26    2
    14    24    25    1
    15    17    15    1
    16    26    25    1
    17    10    11    1
    18    10     9    1
    19     2     1    1
    20     8     1    1
    21     8     5    1
    22    11    13    1
    23     9     5    1
    24     1     4    1
    25     5     7    2
    26     5     6    1
    27    15    16    1
    28    15    13    1
    29    13    14    1
