@<TRIPOS>MOLECULE
4anm_WUL_A_1.pdb
 22 25 0 0 0
SMALL
GASTEIGER

@<TRIPOS>ATOM
      1  C14       23.8270    2.1590   18.1400 C.3   1334  WUL1334     0.1693
      2  N3        25.4080    3.6900   17.3710 N.3   1334  WUL1334    -0.2560
      3  O3        23.7550    1.0880   17.1040 O.3   1334  WUL1334    -0.2216
      4  C13       25.2050    2.0350   18.7930 C.3   1334  WUL1334     0.0517
      5  N1        24.3600    6.9000   18.0990 N.2   1334  WUL1334    -0.3411
      6  O1        25.1430    7.8340   14.2830 O.2   1334  WUL1334    -0.2093
      7  C12       26.1770    2.5200   17.6740 C.3   1334  WUL1334     0.0758
      8  N2        25.4760    6.4350   16.0690 N.2   1334  WUL1334    -0.2698
      9  C5        25.8770    5.0060   17.9320 C.3   1334  WUL1334     0.2001
     10  C3        25.2120    6.1570   17.3720 C.1   1334  WUL1334     0.1423
     11  C2        23.8170    8.0200   17.5800 C.2   1334  WUL1334     0.1811
     12  C7        22.9430    8.9530   18.0930 C.ar  1334  WUL1334     0.0656
     13 BR1        20.3350   10.4990   20.9780 Br    1334  WUL1334    -0.0490
     14  C11       22.2490    9.1280   19.3100 C.ar  1334  WUL1334     0.0121
     15  C10       21.3610   10.2100   19.3180 C.ar  1334  WUL1334     0.0348
     16  C9        21.1560   11.1410   18.3700 C.ar  1334  WUL1334     0.0098
     17  C8        21.8680   10.9090   17.1740 C.ar  1334  WUL1334     0.0375
     18  O2        23.4500    9.4480   15.9870 O.3   1334  WUL1334    -0.4558
     19  C6        22.6920    9.8500   17.0780 C.ar  1334  WUL1334     0.1428
     20  C1        24.1020    8.3590   16.2650 C.3   1334  WUL1334     0.3358
     21  C4        24.9570    7.5630   15.5010 C.1   1334  WUL1334     0.2379
     22  C15       23.9520    3.4820   17.4500 C.3   1334  WUL1334     0.1062
@<TRIPOS>BOND
     1     6    21    2
     2    21     8    2
     3    21    20    1
     4    18    20    1
     5    18    19    1
     6     8    10    2
     7    20    11    1
     8    19    17   ar
     9    19    12   ar
    10     3     1    1
    11    17    16   ar
    12     2    22    1
    13     2     7    1
    14     2     9    1
    15    10     9    1
    16    10     5    2
    17    22     1    1
    18    11    12    1
    19    11     5    2
    20     7     4    1
    21    12    14   ar
    22     1     4    1
    23    16    15   ar
    24    14    15   ar
    25    15    13    1
