@<TRIPOS>MOLECULE
4anp_3QI_A_1.pdb
 20 22 0 0 0
SMALL
GASTEIGER

@<TRIPOS>ATOM
      1  CAA       -7.0990   27.9020    7.0710 C.3   1427  3QI1427     0.0312
      2  CAB       -1.2670   23.6620   -0.4600 C.3   1427  3QI1427     0.0376
      3  CAC       -4.2190   23.9640    0.5680 C.3   1427  3QI1427     0.0275
      4  OAD       -5.3590   24.4160    3.3150 O.2   1427  3QI1427    -0.2727
      5  SAE       -2.5290   24.8160    7.4210 S.2   1427  3QI1427     0.0405
      6  CAF       -7.0190   24.0520    7.1730 C.ar  1427  3QI1427     0.1000
      7  CAG       -7.4290   25.3790    7.3820 C.ar  1427  3QI1427     0.0165
      8  CAH       -5.5350   26.1510    6.1260 C.ar  1427  3QI1427     0.0314
      9  NAI       -5.9140   23.7990    6.4650 N.ar  1427  3QI1427    -0.2279
     10  NAJ       -1.6190   24.4400    4.9300 N.2   1427  3QI1427    -0.3439
     11  SAK       -0.5700   24.0040    2.3430 S.3   1427  3QI1427    -0.0631
     12  CAL       -6.6850   26.4390    6.8530 C.ar  1427  3QI1427    -0.0175
     13  CAM       -1.6770   23.8900    1.0190 C.2   1427  3QI1427     0.0027
     14  CAN       -2.9900   24.0270    1.5150 C.2   1427  3QI1427    -0.0263
     15  CAO       -5.1670   24.8050    5.9540 C.ar  1427  3QI1427     0.1495
     16  CAP       -2.7480   24.6200    5.7490 C.1   1427  3QI1427     0.1065
     17  CAQ       -4.1990   24.4060    3.7710 C.2   1427  3QI1427     0.2530
     18  CAR       -1.7800   24.2540    3.5460 C.2   1427  3QI1427     0.1619
     19  CAS       -3.0730   24.2250    2.9300 C.3   1427  3QI1427     0.1558
     20  NAT       -4.0250   24.5890    5.1830 N.am  1427  3QI1427    -0.1628
@<TRIPOS>BOND
     1     2    13    1
     2     3    14    1
     3    13    14    2
     4    13    11    1
     5    14    19    1
     6    11    18    1
     7    19    18    1
     8    19    17    1
     9     4    17    2
    10    18    10    2
    11    17    20   am
    12    10    16    2
    13    20    16    1
    14    20    15    1
    15    16     5    2
    16    15     8   ar
    17    15     9   ar
    18     8    12   ar
    19     9     6   ar
    20    12     1    1
    21    12     7   ar
    22     6     7   ar
