@<TRIPOS>MOLECULE
4anu_EM7_A_1.pdb
 22 24 0 0 0
SMALL
GASTEIGER

@<TRIPOS>ATOM
      1  C13       47.8750   16.1040   31.9600 C.3   2089  EM72089     0.1389
      2  N7        47.3160   14.8270   31.4760 N.am  2089  EM72089    -0.1974
      3  C12       48.1410   13.9380   30.8980 C.2   2089  EM72089     0.3023
      4  O1        49.3480   14.1330   30.7780 O.2   2089  EM72089    -0.2653
      5  C5        47.4870   12.6110   30.4190 C.2   2089  EM72089     0.2756
      6  N6        46.2040   12.4270   30.7160 N.2   2089  EM72089    -0.3896
      7  C4        48.1530   11.5820   29.7280 C.2   2089  EM72089     0.4450
      8  N8        49.4310   11.6870   29.4010 N.pl3 2089  EM72089     0.2190
      9  N5        47.5040   10.4640   29.3620 N.2   2089  EM72089    -0.0478
     10  C3        46.2280   10.3130   29.6670 C.3   2089  EM72089     0.3216
     11  C2        45.5470   11.3230   30.3580 C.2   2089  EM72089     0.1629
     12  C7        44.2070   11.2430   30.7340 C.ar  2089  EM72089     0.0305
     13  C8        43.7840   11.9900   31.8330 C.ar  2089  EM72089     0.0125
     14  C6        43.2800   10.4360   30.0860 C.ar  2089  EM72089     0.0024
     15  C11       41.9510   10.4040   30.5430 C.ar  2089  EM72089     0.0008
     16  C10       41.5260   11.1610   31.6370 C.ar  2089  EM72089     0.0101
     17  C9        42.4620   11.9580   32.2830 C.ar  2089  EM72089     0.0660
     18  C1        42.1050   12.7500   33.3700 C.1   2089  EM72089     0.0806
     19  N2        41.7130   12.3730   34.5770 N.2   2089  EM72089    -0.0711
     20  N3        41.5140   13.4070   35.2280 N.2   2089  EM72089    -0.0129
     21  N4        41.7400   14.4210   34.5480 N.2   2089  EM72089    -0.0129
     22  N1        42.1000   14.0800   33.4200 N.2   2089  EM72089    -0.0711
@<TRIPOS>BOND
     1     9    10    1
     2     9     7    2
     3     8     7    1
     4    10    11    1
     5     7     5    1
     6    14    15   ar
     7    14    12   ar
     8    11     6    2
     9    11    12    1
    10     5     6    2
    11     5     3    1
    12    15    16   ar
    13    12    13   ar
    14     4     3    2
    15     3     2   am
    16     2     1    1
    17    16    17   ar
    18    13    17   ar
    19    17    18    1
    20    18    22    2
    21    18    19    2
    22    22    21    1
    23    21    20    2
    24    19    20    1
