@<TRIPOS>MOLECULE
4anv_751_A_1.pdb
 37 41 0 0 0
SMALL
GASTEIGER

@<TRIPOS>ATOM
      1  C28       49.5190   12.1530   30.1190 C.3   1201  7511201     0.2525
      2  O4        48.6320   11.5740   29.1460 O.3   1201  7511201    -0.4714
      3  C25       47.3540   11.5160   29.6160 C.ar  1201  7511201     0.1387
      4  C26       46.5100   10.4490   29.2310 C.ar  1201  7511201     0.0369
      5  C27       45.2180   10.4000   29.7400 C.ar  1201  7511201     0.0031
      6  C24       46.8770   12.5090   30.4980 C.ar  1201  7511201     0.0369
      7  C23       45.5610   12.4730   30.9750 C.ar  1201  7511201     0.0031
      8  C22       44.7180   11.4050   30.5940 C.ar  1201  7511201     0.0002
      9  C18       43.4200   11.3460   31.1240 C.ar  1201  7511201     0.0013
     10  C19       42.3650   10.8010   30.4100 C.ar  1201  7511201     0.0001
     11  C17       43.1930   11.8060   32.4350 C.ar  1201  7511201     0.0199
     12  C16       41.9320   11.7330   33.0370 C.ar  1201  7511201     0.1222
     13  C21       40.8930   11.2090   32.2630 C.ar  1201  7511201     0.0199
     14  S1        41.7110   12.4400   34.7730 S.O2  1201  7511201     0.0634
     15  O1        42.6970   11.7930   35.6320 O.2   1201  7511201    -0.1528
     16  O2        40.2820   12.4020   35.2090 O.2   1201  7511201    -0.1528
     17  N1        42.0880   14.0350   34.4430 N.3   1201  7511201    -0.1520
     18  C4        43.1260   14.5740   35.3020 C.3   1201  7511201     0.1173
     19  C3        43.4560   15.9750   34.8710 C.3   1201  7511201     0.1114
     20  C1        40.8420   14.7960   34.3690 C.3   1201  7511201     0.1173
     21  C2        41.1060   16.1100   33.6750 C.3   1201  7511201     0.1114
     22  N2        42.3590   16.7140   34.1910 N.pl3 1201  7511201    -0.2891
     23  C5        42.5560   18.1130   34.0580 C.ar  1201  7511201     0.1496
     24  N3        41.5610   18.9590   34.4080 N.ar  1201  7511201    -0.2260
     25  C6        41.7120   20.2770   34.3450 C.ar  1201  7511201     0.1210
     26  C7        42.9210   20.8030   33.9160 C.ar  1201  7511201     0.1196
     27  N4        43.9000   19.9750   33.5460 N.ar  1201  7511201    -0.2394
     28  C8        43.7810   18.6310   33.6330 C.ar  1201  7511201     0.1128
     29  C9        44.8840   17.8540   33.2020 C.ar  1201  7511201     0.0206
     30  C10       46.1760   18.1110   33.6710 C.ar  1201  7511201     0.0047
     31  C11       47.2700   17.3900   33.1860 C.ar  1201  7511201     0.0370
     32  C12       47.0880   16.4110   32.2030 C.ar  1201  7511201     0.1387
     33  O3        48.1160   15.6710   31.7130 O.3   1201  7511201    -0.4714
     34  C15       49.4740   16.1460   31.6710 C.3   1201  7511201     0.2525
     35  C13       45.8090   16.1550   31.7130 C.ar  1201  7511201     0.0370
     36  C14       44.7220   16.8910   32.1830 C.ar  1201  7511201     0.0047
     37  C20       41.1000   10.7390   30.9710 C.ar  1201  7511201     0.0014
@<TRIPOS>BOND
     1     2     3    1
     2     2     1    1
     3     4     3   ar
     4     4     5   ar
     5     3     6   ar
     6     5     8   ar
     7    10    37   ar
     8    10     9   ar
     9     6     7   ar
    10     8     7   ar
    11     8     9    1
    12    37    13   ar
    13     9    11   ar
    14    34    33    1
    15    35    36   ar
    16    35    32   ar
    17    33    32    1
    18    36    29   ar
    19    32    31   ar
    20    13    12   ar
    21    11    12   ar
    22    12    14    1
    23    31    30   ar
    24    29    28    1
    25    29    30   ar
    26    27    28   ar
    27    27    26   ar
    28    28    23   ar
    29    21    22    1
    30    21    20    1
    31    26    25   ar
    32    23    22    1
    33    23    24   ar
    34    22    19    1
    35    25    24   ar
    36    20    17    1
    37    17    14    1
    38    17    18    1
    39    14    16    2
    40    14    15    2
    41    19    18    1
