@<TRIPOS>MOLECULE
4anw_O92_A_1.pdb
 30 32 0 0 0
SMALL
GASTEIGER

@<TRIPOS>ATOM
      1  C12       47.5780   17.6520   32.5630 C.3   1189  O921189     0.1389
      2  N3        47.2490   16.3180   32.0220 N.am  1189  O921189    -0.1974
      3  C6        48.1620   15.6060   31.3230 C.2   1189  O921189     0.3023
      4  O1        49.3120   15.9660   31.0550 O.2   1189  O921189    -0.2653
      5  C4        47.6430   14.2350   30.8340 C.2   1189  O921189     0.2756
      6  N2        46.3420   13.9730   31.0110 N.2   1189  O921189    -0.3896
      7  C3        48.4500   13.2700   30.2020 C.2   1189  O921189     0.4450
      8  N4        49.7520   13.4990   30.0030 N.pl3 1189  O921189     0.2190
      9  N1        47.8990   12.0940   29.8050 N.2   1189  O921189    -0.0478
     10  C2        46.6120   11.8420   29.9970 C.3   1189  O921189     0.3216
     11  C1        45.8010   12.8090   30.6170 C.2   1189  O921189     0.1630
     12  C5        44.4360   12.6380   30.8690 C.ar  1189  O921189     0.0312
     13  C11       43.8750   13.2050   32.0260 C.ar  1189  O921189     0.0235
     14  C7        43.6370   11.9230   29.9850 C.ar  1189  O921189     0.0033
     15  C8        42.2880   11.7840   30.2720 C.ar  1189  O921189     0.0128
     16  C9        41.7290   12.3420   31.4240 C.ar  1189  O921189     0.0766
     17 CL1        40.0550   12.1140   31.6980 Cl    1189  O921189    -0.0808
     18  C10       42.5150   13.0730   32.3320 C.ar  1189  O921189     0.1376
     19  S1        41.8480   13.8400   33.8570 S.O2  1189  O921189     0.0937
     20  O2        40.8990   14.9740   33.5160 O.2   1189  O921189    -0.1483
     21  O3        41.1050   12.8370   34.6690 O.2   1189  O921189    -0.1483
     22  N5        43.1300   14.3940   34.6740 N.pl3 1189  O921189    -0.0942
     23  C14       43.5160   15.6840   34.6300 C.ar  1189  O921189     0.1206
     24  C17       44.0870   16.2100   35.8310 C.ar  1189  O921189     0.0205
     25  C18       44.5750   17.5880   35.9520 C.ar  1189  O921189     0.0038
     26  C15       44.4260   18.3890   34.8260 C.ar  1189  O921189     0.0321
     27  C16       43.8560   17.8860   33.6480 C.ar  1189  O921189     0.1687
     28  F2        43.7160   18.6900   32.5670 F     1189  O921189    -0.2018
     29  C13       43.4180   16.5690   33.5460 C.ar  1189  O921189     0.1839
     30  F1        42.8760   16.2120   32.3700 F     1189  O921189    -0.2004
@<TRIPOS>BOND
     1     9    10    1
     2     9     7    2
     3    14    15   ar
     4    14    12   ar
     5    10    11    1
     6     8     7    1
     7     7     5    1
     8    15    16   ar
     9    11    12    1
    10    11     6    2
    11     5     6    2
    12     5     3    1
    13    12    13   ar
    14     4     3    2
    15     3     2   am
    16    16    17    1
    17    16    18   ar
    18     2     1    1
    19    13    18   ar
    20    18    19    1
    21    30    29    1
    22    28    27    1
    23    20    19    2
    24    29    27   ar
    25    29    23   ar
    26    27    26   ar
    27    19    21    2
    28    19    22    1
    29    23    22    1
    30    23    24   ar
    31    26    25   ar
    32    24    25   ar
