@<TRIPOS>MOLECULE
4anx_534_A_1.pdb
 37 41 0 0 0
SMALL
GASTEIGER

@<TRIPOS>ATOM
      1  C26       48.4340   15.5520   32.9290 C.3   2088  5342088     0.0047
      2  C25       48.3990   17.0730   32.9090 C.3   2088  5342088     0.0224
      3  C27       49.0240   17.5860   31.6060 C.3   2088  5342088     0.0047
      4  C12       46.9310   17.5450   33.0540 C.ar  2088  5342088    -0.0225
      5  C13       46.4980   18.2080   34.2010 C.ar  2088  5342088    -0.0042
      6  C14       45.1750   18.6380   34.3320 C.ar  2088  5342088     0.0013
      7  C11       45.9890   17.3160   32.0450 C.ar  2088  5342088    -0.0042
      8  C10       44.6560   17.7360   32.1800 C.ar  2088  5342088     0.0013
      9  C5        44.2470   18.3990   33.3280 C.ar  2088  5342088     0.0204
     10  C3        42.9560   18.8530   33.4950 C.ar  2088  5342088     0.1128
     11  N1        42.7740   20.1700   33.3890 N.ar  2088  5342088    -0.2394
     12  C2        41.5910   20.7320   33.5400 C.ar  2088  5342088     0.1196
     13  C1        40.4860   19.9460   33.7970 C.ar  2088  5342088     0.1210
     14  N2        40.6580   18.6370   33.9090 N.ar  2088  5342088    -0.2260
     15  C4        41.8660   18.0390   33.7800 C.ar  2088  5342088     0.1496
     16  N3        41.9550   16.6200   33.8840 N.pl3 2088  5342088    -0.2891
     17  C9        43.0790   15.9580   34.6130 C.3   2088  5342088     0.1114
     18  C8        42.7980   14.4990   34.9940 C.3   2088  5342088     0.1173
     19  C6        40.8780   15.8350   33.1970 C.3   2088  5342088     0.1114
     20  C7        40.6800   14.4770   33.8220 C.3   2088  5342088     0.1173
     21  N4        42.0080   13.8620   33.9230 N.3   2088  5342088    -0.1520
     22  S1        41.9230   12.2070   34.0420 S.O2  2088  5342088     0.0634
     23  O1        42.8230   11.6730   35.1170 O.2   2088  5342088    -0.1528
     24  O2        40.5000   11.7570   34.2630 O.2   2088  5342088    -0.1528
     25  C15       42.5290   11.7630   32.4680 C.ar  2088  5342088     0.1222
     26  C20       43.9060   11.9050   32.1880 C.ar  2088  5342088     0.0197
     27  C16       41.6340   11.3280   31.4850 C.ar  2088  5342088     0.0199
     28  C17       42.1400   10.9980   30.2290 C.ar  2088  5342088     0.0014
     29  C18       43.5170   11.1200   29.9410 C.ar  2088  5342088    -0.0001
     30  C19       44.4080   11.5800   30.9220 C.ar  2088  5342088     0.0008
     31  C21       45.7700   11.6980   30.6360 C.2   2088  5342088     0.0229
     32  C22       46.4470   12.9010   30.8050 C.3   2088  5342088     0.1656
     33  N5        47.7380   13.0000   30.5190 N.2   2088  5342088    -0.2004
     34  C23       48.4150   11.9280   30.0670 C.1   2088  5342088     0.1286
     35  N7        49.7110   12.0330   29.7850 N.pl3 2088  5342088    -0.0461
     36  N6        47.7880   10.7500   29.8860 N.2   2088  5342088    -0.1781
     37  C24       46.5010   10.6150   30.1600 C.2   2088  5342088     0.1085
@<TRIPOS>BOND
     1    35    34    1
     2    36    34    2
     3    36    37    1
     4    29    28   ar
     5    29    30   ar
     6    34    33    2
     7    37    31    2
     8    28    27   ar
     9    33    32    1
    10    31    32    1
    11    31    30    1
    12    30    26   ar
    13    27    25   ar
    14     3     2    1
    15     7     8   ar
    16     7     4   ar
    17     8     9   ar
    18    26    25   ar
    19    25    22    1
    20     2     1    1
    21     2     4    1
    22     4     5   ar
    23    19    20    1
    24    19    16    1
    25     9    10    1
    26     9     6   ar
    27    11    10   ar
    28    11    12   ar
    29    10    15   ar
    30    12    13   ar
    31    15    16    1
    32    15    14   ar
    33    13    14   ar
    34    20    21    1
    35    16    17    1
    36    21    22    1
    37    21    18    1
    38    22    24    2
    39    22    23    2
    40     5     6   ar
    41    17    18    1
