@<TRIPOS>MOLECULE
4ao4_PLK_A_1.pdb
 25 25 0 0 0
SMALL
GASTEIGER

@<TRIPOS>ATOM
      1  C11       19.1450   73.4340   39.2980 C.3   1446  PLK1446     0.0001
      2  C12       18.1970   74.2870   38.4260 C.3   1446  PLK1446     0.0019
      3  C13       16.7170   73.8370   38.4740 C.3   1446  PLK1446     0.0001
      4  C14       18.7550   74.1820   37.0440 C.3   1446  PLK1446     0.0249
      5  C15       18.3300   75.2910   36.0830 C.3   1446  PLK1446     0.1146
      6  C16       19.3490   75.0360   34.9370 C.3   1446  PLK1446     0.1382
      7  C17       18.9350   73.7940   34.1040 C.2   1446  PLK1446     0.3668
      8  O11       17.7260   73.7320   33.7990 O.co2 1446  PLK1446    -0.2456
      9  O12       19.8330   72.9710   33.7430 O.co2 1446  PLK1446    -0.2456
     10  N11       18.3700   76.6820   36.7100 N.2   1446  PLK1446    -0.2702
     11  C21       19.3700   77.6210   36.2090 C.2   1446  PLK1446     0.0961
     12  C22       19.5650   78.9840   37.0110 C.ar  1446  PLK1446     0.0587
     13  C23       18.6530   79.5140   37.9460 C.ar  1446  PLK1446     0.2103
     14  O21       17.5120   78.8370   38.2290 O.3   1446  PLK1446    -0.2853
     15  C24       18.9110   80.7280   38.6020 C.ar  1446  PLK1446     0.0981
     16  C25       17.9360   81.3170   39.6440 C.3   1446  PLK1446     0.0555
     17  N21       20.0570   81.3950   38.3430 N.ar  1446  PLK1446    -0.2452
     18  C26       20.9500   80.9480   37.4580 C.ar  1446  PLK1446     0.0968
     19  C27       20.7270   79.7370   36.7910 C.ar  1446  PLK1446     0.0316
     20  C28       21.8190   79.3260   35.8170 C.3   1446  PLK1446     0.1819
     21  O22       21.3310   79.5770   34.4460 O.3   1446  PLK1446    -0.2653
     22  P         21.8600   78.5600   33.2950 P.3   1446  PLK1446     0.5329
     23  O1P       23.4290   78.6670   33.2530 O.3   1446  PLK1446    -0.1145
     24  O2P       21.3970   77.1540   33.5200 O.3   1446  PLK1446    -0.1145
     25  O3P       21.3310   79.2020   31.9560 O.2   1446  PLK1446    -0.2224
@<TRIPOS>BOND
     1    25    22    2
     2    23    22    1
     3    22    24    1
     4    22    21    1
     5     9     7   ar
     6     8     7   ar
     7     7     6    1
     8    21    20    1
     9     6     5    1
    10    20    19    1
    11     5    10    1
    12     5     4    1
    13    11    10    2
    14    11    12    1
    15    19    12   ar
    16    19    18   ar
    17    12    13   ar
    18     4     2    1
    19    18    17   ar
    20    13    14    1
    21    13    15   ar
    22    17    15   ar
    23     2     3    1
    24     2     1    1
    25    15    16    1
