@<TRIPOS>MOLECULE
4ao9_PLP_A_1.pdb
 15 15 0 0 0
SMALL
GASTEIGER

@<TRIPOS>ATOM
      1  N1         9.9160   -8.2700  -30.3610 N.2   1267  PLP1267    -0.2458
      2  C2         8.9570   -8.7640  -29.5790 C.2   1267  PLP1267     0.0942
      3  C2A        7.7290   -9.3590  -30.2710 C.3   1267  PLP1267     0.0552
      4  C3         9.0980   -8.7430  -28.1880 C.2   1267  PLP1267     0.1899
      5  O3         8.1860   -9.2230  -27.4900 O.2   1267  PLP1267    -0.2898
      6  C4        10.2390   -8.2000  -27.5750 C.3   1267  PLP1267     0.0852
      7  C4A       10.4550   -8.1720  -26.0490 C.3   1267  PLP1267     0.0127
      8  C5        11.2060   -7.6600  -28.4530 C.2   1267  PLP1267     0.0118
      9  C6        11.0100   -7.7130  -29.8330 C.2   1267  PLP1267     0.0929
     10  C5A       12.4960   -7.0100  -27.9180 C.3   1267  PLP1267     0.1779
     11  O4P       13.3690   -7.8250  -27.2560 O.3   1267  PLP1267    -0.2656
     12  P         14.4030   -7.1250  -26.2380 P.3   1267  PLP1267     0.5329
     13  O1P       13.5500   -6.4820  -25.0790 O.3   1267  PLP1267    -0.1145
     14  O2P       15.1920   -6.0040  -27.0020 O.2   1267  PLP1267    -0.2224
     15  O3P       15.3280   -8.2120  -25.8040 O.3   1267  PLP1267    -0.1145
@<TRIPOS>BOND
     1     1     9    1
     2     1     2    2
     3     3     2    1
     4     9     8    2
     5     2     4    1
     6     8    10    1
     7     8     6    1
     8     4     6    1
     9     4     5    2
    10    10    11    1
    11     6     7    1
    12    11    12    1
    13    14    12    2
    14    12    15    1
    15    12    13    1
