@<TRIPOS>MOLECULE
4aoa_IK2_A_1.pdb
 21 21 0 0 0
SMALL
GASTEIGER

@<TRIPOS>ATOM
      1  N1        75.7570  101.6450   23.1830 N.ar  1435  IK21435    -0.2452
      2  C2        77.0700  101.4090   23.0520 C.ar  1435  IK21435     0.0978
      3  C2A       78.0650  102.5730   23.0910 C.3   1435  IK21435     0.0555
      4  C3        77.5190  100.1030   22.8770 C.ar  1435  IK21435     0.2063
      5  O3        78.8500   99.8470   22.7320 O.3   1435  IK21435    -0.2856
      6  C4        76.6340   99.0310   22.8410 C.ar  1435  IK21435     0.0379
      7  C4A       77.2810   97.6510   22.6440 C.3   1435  IK21435     0.1508
      8  N4A       76.3440   96.5690   22.4010 N.4   1435  IK21435    -0.0781
      9  OX        77.1640   95.3640   22.3280 O.3   1435  IK21435    -0.2536
     10  C1'       76.7790   94.2990   21.4450 C.3   1435  IK21435     0.2813
     11  C2'       77.2940   92.9460   21.9450 C.2   1435  IK21435     0.3967
     12  O1'       76.6760   91.9330   21.5450 O.co2 1435  IK21435    -0.2428
     13  O2'       78.2900   92.9550   22.7130 O.co2 1435  IK21435    -0.2428
     14  C5        75.2590   99.3230   22.9910 C.ar  1435  IK21435     0.0276
     15  C6        74.8700  100.6590   23.1560 C.ar  1435  IK21435     0.0965
     16  C5A       74.0920   98.3200   22.9780 C.3   1435  IK21435     0.1816
     17  O4P       73.9200   97.6740   24.2440 O.3   1435  IK21435    -0.2653
     18  P         73.1430   96.2620   24.3370 P.3   1435  IK21435     0.5329
     19  O1P       71.7850   96.4790   23.4850 O.2   1435  IK21435    -0.2224
     20  O2P       74.0100   95.1820   23.5350 O.3   1435  IK21435    -0.1145
     21  O3P       72.8480   95.8600   25.7350 O.3   1435  IK21435    -0.1145
@<TRIPOS>BOND
     1    10    11    1
     2    10     9    1
     3    12    11   ar
     4    11    13   ar
     5     9     8    1
     6     8     7    1
     7     7     6    1
     8     5     4    1
     9     6     4   ar
    10     6    14   ar
    11     4     2   ar
    12    16    14    1
    13    16    17    1
    14    14    15   ar
    15     2     3    1
    16     2     1   ar
    17    15     1   ar
    18    19    18    2
    19    20    18    1
    20    17    18    1
    21    18    21    1
