@<TRIPOS>MOLECULE
4aof_7L0_A_1.pdb
 23 25 0 0 0
SMALL
GASTEIGER

@<TRIPOS>ATOM
      1  CAV       52.1740   15.0530   29.3790 C.3   2095  7L02095     0.0976
      2  CAU       50.7570   14.8050   29.9150 C.2   2095  7L02095     0.2559
      3  OAW       50.3700   15.3630   30.9430 O.2   2095  7L02095    -0.2722
      4  NAT       50.0250   13.9550   29.1790 N.am  2095  7L02095    -0.0984
      5  CAN       48.7580   13.5680   29.4430 C.1   2095  7L02095     0.1889
      6  NAO       48.1440   12.5440   28.8470 N.2   2095  7L02095    -0.3178
      7  NAM       47.9390   14.1430   30.3290 N.2   2095  7L02095    -0.0903
      8  NAD       46.8580   13.5490   30.3250 N.pl3 2095  7L02095    -0.1504
      9  CAC       45.6750   13.7620   31.0660 C.2   2095  7L02095     0.0928
     10  CAE       46.9350   12.5100   29.3850 C.2   2095  7L02095     0.2196
     11  CAF       45.8410   11.6890   29.1830 C.2   2095  7L02095     0.0507
     12  CAG       44.6780   11.8990   29.9180 C.2   2095  7L02095     0.0055
     13  CAB       44.5760   12.9340   30.8550 C.2   2095  7L02095     0.0185
     14  CAA       43.3910   13.0740   31.5800 C.ar  2095  7L02095     0.0218
     15  CAL       43.3940   13.5910   32.8760 C.ar  2095  7L02095     0.0215
     16  CAH       42.1880   12.6250   31.0330 C.ar  2095  7L02095     0.0990
     17  NAI       41.0560   12.7050   31.7110 N.ar  2095  7L02095    -0.2410
     18  CAJ       41.0220   13.2120   32.9310 C.ar  2095  7L02095     0.1171
     19  CAK       42.1800   13.6700   33.5560 C.ar  2095  7L02095     0.1248
     20  SAP       42.0620   14.3360   35.1870 S.O2  2095  7L02095     0.0119
     21  CAQ       43.5170   13.9020   36.1110 C.3   2095  7L02095     0.1816
     22  OAS       40.8610   13.7790   35.8980 O.2   2095  7L02095    -0.1685
     23  OAR       41.8870   15.8310   35.1260 O.2   2095  7L02095    -0.1685
@<TRIPOS>BOND
     1     6    10    2
     2     6     5    2
     3     4     5    1
     4     4     2   am
     5    11    10    1
     6    11    12    2
     7     1     2    1
     8    10     8    1
     9     5     7    2
    10     2     3    2
    11    12    13    1
    12     8     7    1
    13     8     9    1
    14    13     9    2
    15    13    14    1
    16    16    14   ar
    17    16    17   ar
    18    14    15   ar
    19    17    18   ar
    20    15    19   ar
    21    18    19   ar
    22    19    20    1
    23    23    20    2
    24    20    22    2
    25    20    21    1
