@<TRIPOS>MOLECULE
4aoi_4K0_A_1.pdb
 27 31 0 0 0
SMALL
GASTEIGER

@<TRIPOS>ATOM
      1  N23       19.4290   80.5960   -1.7810 N.1   2345  4K02345    -0.1908
      2  C22       19.2430   80.8020   -0.6550 C.1   2345  4K02345     0.1004
      3  C19       19.0320   81.0490    0.7060 C.ar  2345  4K02345     0.0684
      4  C20       19.5030   82.2600    1.2980 C.ar  2345  4K02345     0.0103
      5  C18       18.3460   80.0940    1.5260 C.ar  2345  4K02345     0.0103
      6  C17       18.1380   80.3480    2.9210 C.ar  2345  4K02345     0.0020
      7  C16       18.6110   81.5680    3.5270 C.ar  2345  4K02345     0.0191
      8  C21       19.2960   82.5180    2.6890 C.ar  2345  4K02345     0.0020
      9  C12       18.4240   81.8770    4.9850 C.2   2345  4K02345     0.1259
     10  N15       18.8480   83.0920    5.4400 N.2   2345  4K02345    -0.0753
     11  N7        18.6770   83.3270    6.7090 N.pl3 2345  4K02345     0.0086
     12  C8        18.1060   82.4450    7.6060 C.1   2345  4K02345     0.2535
     13  N14       17.6560   81.2180    7.2460 N.2   2345  4K02345    -0.1768
     14  C13       17.8240   80.9390    5.9090 C.3   2345  4K02345     0.1887
     15  C11       18.9860   84.4260    7.4700 C.2   2345  4K02345     0.3697
     16  N10       18.6230   84.1870    8.6910 N.2   2345  4K02345     0.0912
     17  N9        18.0940   82.9970    8.7720 N.2   2345  4K02345     0.0610
     18  C24       19.6400   85.7180    6.9930 C.3   2345  4K02345     0.1518
     19  C25       21.1620   85.6280    7.0510 C.2   2345  4K02345     0.0194
     20  C26       21.9560   85.7590    8.1850 C.2   2345  4K02345     0.1065
     21  C1        22.0640   85.3980    5.9640 C.2   2345  4K02345     0.0606
     22  C6        21.8560   85.1870    4.5650 C.2   2345  4K02345     0.0114
     23  C5        23.0260   84.9840    3.7510 C.2   2345  4K02345     0.0221
     24  C2        23.3590   85.3970    6.4730 C.1   2345  4K02345     0.0350
     25  N27       23.2880   85.6170    7.8230 N.2   2345  4K02345    -0.1925
     26  N3        24.4910   85.2100    5.7330 N.2   2345  4K02345    -0.1922
     27  C4        24.3150   85.0050    4.3800 C.2   2345  4K02345     0.1096
@<TRIPOS>BOND
     1     1     2    3
     2     2     3    1
     3     3     4   ar
     4     3     5   ar
     5     4     8   ar
     6     5     6   ar
     7     8     7   ar
     8     6     7   ar
     9     7     9    1
    10    23    27    2
    11    23    22    1
    12    27    26    1
    13    22    21    2
    14     9    10    2
    15     9    14    1
    16    10    11    1
    17    26    24    2
    18    14    13    1
    19    21    24    1
    20    21    19    1
    21    24    25    2
    22    11    15    1
    23    11    12    1
    24    18    19    1
    25    18    15    1
    26    19    20    2
    27    13    12    2
    28    15    16    2
    29    12    17    2
    30    25    20    1
    31    16    17    1
