@<TRIPOS>MOLECULE
4aoj_V4Z_A_1.pdb
 27 29 0 0 0
SMALL
GASTEIGER

@<TRIPOS>ATOM
      1  C1        90.0090   56.3740   24.0620 C.3   900  V4Z900      0.0473
      2  C2        91.2140   57.2000   24.4800 C.3   900  V4Z900      0.1676
      3  C3        91.1100   58.6700   24.1300 C.3   900  V4Z900      0.0473
      4  O1        91.3570   57.0540   25.8900 O.2   900  V4Z900     -0.4643
      5  C4        92.6230   57.1160   26.3790 C.2   900  V4Z900      0.2574
      6  C5        93.9050   57.0780   25.8720 C.3   900  V4Z900      0.2122
      7  C6        94.7500   57.2210   27.0150 C.2   900  V4Z900      0.3810
      8  N1        96.1180   57.2550   27.0060 N.pl3 900  V4Z900      0.0274
      9  C7        97.0060   57.1570   25.9500 C.2   900  V4Z900      0.3375
     10  N2        96.5650   57.0540   24.6870 N.2   900  V4Z900     -0.2923
     11  C8        97.5120   56.9440   23.7410 C.1   900  V4Z900      0.1690
     12  N3        97.2070   56.8210   22.3960 N.pl3 900  V4Z900     -0.1577
     13  C9        95.7920   56.9060   22.1080 C.3   900  V4Z900      0.1444
     14  C10       95.6730   57.4070   20.6740 C.3   900  V4Z900      0.0308
     15  C11       95.0990   55.5870   22.1600 C.ar  900  V4Z900      0.0797
     16  C12       93.7450   55.5950   22.3540 C.ar  900  V4Z900      0.0188
     17  C13       93.0720   54.4100   22.3990 C.ar  900  V4Z900      0.0325
     18  C14       93.7590   53.2410   22.2540 C.ar  900  V4Z900      0.1592
     19  F1        93.0800   52.0490   22.2780 F     900  V4Z900     -0.2025
     20  C15       95.1110   53.3100   22.0640 C.ar  900  V4Z900      0.1280
     21  N4        95.7920   54.4620   22.0180 N.ar  900  V4Z900     -0.2441
     22  N5        98.8310   56.9470   23.9590 N.2   900  V4Z900     -0.1675
     23  C16       99.2350   57.0520   25.2190 C.2   900  V4Z900      0.1295
     24  C17       98.3550   57.1550   26.2610 C.2   900  V4Z900      0.1507
     25 CL1        99.0460   57.2590   27.8660 Cl    900  V4Z900     -0.0739
     26  N6        94.0440   57.3370   28.1500 N.2   900  V4Z900      0.0828
     27  N7        92.7840   57.2540   27.7290 N.2   900  V4Z900     -0.0006
@<TRIPOS>BOND
     1    14    13    1
     2    21    20   ar
     3    21    15   ar
     4    20    18   ar
     5    13    15    1
     6    13    12    1
     7    15    16   ar
     8    18    19    1
     9    18    17   ar
    10    16    17   ar
    11    12    11    1
    12    11    22    2
    13    11    10    2
    14    22    23    1
    15     1     2    1
    16     3     2    1
    17     2     4    1
    18    10     9    2
    19    23    24    2
    20     6     5    1
    21     6     7    1
    22     4     5    1
    23     9    24    1
    24     9     8    1
    25    24    25    1
    26     5    27    2
    27     8     7    1
    28     7    26    2
    29    27    26    1
