@<TRIPOS>MOLECULE
4aon_GLU_B_1.pdb
 10 9 0 0 0
SMALL
GASTEIGER

@<TRIPOS>ATOM
      1  N          6.9280  -41.5080    3.3490 N.3   1123  GLU1123    -0.1208
      2  CA         7.6390  -40.2390    3.7760 C.3   1123  GLU1123     0.1949
      3  C          6.3850  -39.6620    4.5190 C.2   1123  GLU1123     0.3819
      4  O          5.9570  -40.4440    4.7160 O.co2 1123  GLU1123    -0.2441
      5  CB         8.5350  -39.3810    2.8240 C.3   1123  GLU1123     0.0424
      6  CG         9.3900  -39.9560    1.6600 C.3   1123  GLU1123     0.1161
      7  CD         8.7340  -39.8410    0.1980 C.2   1123  GLU1123     0.3649
      8  OE1        7.8060  -40.5390   -0.0450 O.co2 1123  GLU1123    -0.2457
      9  OE2        9.0630  -38.8990   -0.5720 O.co2 1123  GLU1123    -0.2457
     10  OXT        6.1330  -38.7320    5.1140 O.co2 1123  GLU1123    -0.2441
@<TRIPOS>BOND
     1     9     7   ar
     2     8     7   ar
     3     7     6    1
     4     6     5    1
     5     5     2    1
     6     1     2    1
     7     2     3    1
     8     3     4   ar
     9     3    10   ar
