@<TRIPOS>MOLECULE
4aos_NAP_A_1.pdb
 48 52 0 0 0
SMALL
GASTEIGER

@<TRIPOS>ATOM
      1  PA        10.1100   -1.3610  -14.3970 P.3   1002  NAP1002     0.2189
      2  O1A        9.7470   -2.1860  -15.6130 O.2   1002  NAP1002    -0.5170
      3  O2A       10.1690   -2.0450  -13.0440 O.3   1002  NAP1002    -0.4371
      4  O5B       11.4970   -0.5460  -14.6490 O.3   1002  NAP1002    -0.3112
      5  C5B       12.3850   -0.1370  -13.5890 C.3   1002  NAP1002     0.1813
      6  C4B       13.6780   -0.9640  -13.6050 C.3   1002  NAP1002     0.1820
      7  O4B       14.6350   -0.5250  -12.6240 O.3   1002  NAP1002    -0.3136
      8  C3B       13.4080   -2.4220  -13.2830 C.3   1002  NAP1002     0.2157
      9  O3B       14.2630   -3.2060  -14.1070 O.3   1002  NAP1002    -0.2175
     10  C2B       13.8120   -2.5280  -11.8340 C.3   1002  NAP1002     0.2314
     11  O2B       14.0830   -3.8610  -11.4060 O.3   1002  NAP1002    -0.2630
     12  C1B       15.0260   -1.6300  -11.7980 C.3   1002  NAP1002     0.3158
     13  N9A       15.3240   -1.2210  -10.4050 N.pl3 1002  NAP1002    -0.1439
     14  C8A       14.5610   -0.4360   -9.6130 C.3   1002  NAP1002     0.3377
     15  N7A       15.1420   -0.2670   -8.3950 N.2   1002  NAP1002    -0.2095
     16  C5A       16.3030   -0.9590   -8.3950 C.2   1002  NAP1002     0.2526
     17  C6A       17.4130   -1.2140   -7.4420 C.2   1002  NAP1002     0.4393
     18  N6A       17.4010   -0.6830   -6.1960 N.pl3 1002  NAP1002     0.2180
     19  N1A       18.4490   -1.9950   -7.8500 N.2   1002  NAP1002     0.0021
     20  C2A       18.4840   -2.5390   -9.0850 C.3   1002  NAP1002     0.5254
     21  N3A       17.5090   -2.3500   -9.9960 N.2   1002  NAP1002    -0.0055
     22  C4A       16.4170   -1.5860   -9.7240 C.2   1002  NAP1002     0.3518
     23  O3         9.0390   -0.1630  -14.2780 O.3   1002  NAP1002    -0.2703
     24  PN         8.7480    0.8550  -15.4940 P.3   1002  NAP1002     0.2189
     25  O1N        9.4740    0.4430  -16.7530 O.2   1002  NAP1002    -0.5170
     26  O2N        8.9260    2.2240  -14.9180 O.3   1002  NAP1002    -0.4371
     27  O5D        7.1680    0.6710  -15.7490 O.3   1002  NAP1002    -0.3112
     28  C5D        6.2700    0.4860  -14.6540 C.3   1002  NAP1002     0.1813
     29  C4D        4.8480    0.3940  -15.1770 C.3   1002  NAP1002     0.1799
     30  O4D        4.5220    1.5820  -15.9020 O.3   1002  NAP1002    -0.3327
     31  C3D        4.6620   -0.7740  -16.1300 C.3   1002  NAP1002     0.2158
     32  O3D        4.1130   -1.9010  -15.4370 O.3   1002  NAP1002    -0.2175
     33  C2D        3.7280   -0.2440  -17.2050 C.3   1002  NAP1002     0.2309
     34  O2D        2.3680   -0.6140  -16.9480 O.3   1002  NAP1002    -0.2158
     35  C1D        3.8160    1.2770  -17.1140 C.3   1002  NAP1002     0.2263
     36  N1N        4.4430    1.8620  -18.3190 N.pl3 1002  NAP1002    -0.2787
     37  C2N        3.6430    2.1830  -19.3540 C.3   1002  NAP1002     0.1244
     38  C3N        4.1520    2.7430  -20.5280 C.2   1002  NAP1002     0.0544
     39  C7N        3.2190    3.0800  -21.6590 C.2   1002  NAP1002     0.2818
     40  O7N        2.0470    3.3510  -21.4280 O.2   1002  NAP1002    -0.2670
     41  N7N        3.7030    3.0610  -22.9010 N.am  1002  NAP1002    -0.0839
     42  C4N        5.5250    2.9820  -20.6280 C.2   1002  NAP1002     0.0033
     43  C5N        6.3450    2.6500  -19.5460 C.2   1002  NAP1002     0.0157
     44  C6N        5.7740    2.0890  -18.3990 C.2   1002  NAP1002     0.0633
     45  P2B       12.9470   -4.7070  -10.6220 P.3   1002  NAP1002     0.5328
     46  O1X       12.4690   -3.7640   -9.5400 O.3   1002  NAP1002    -0.1145
     47  O2X       11.9110   -5.0290  -11.6790 O.2   1002  NAP1002    -0.2224
     48  O3X       13.6970   -5.9080  -10.0910 O.3   1002  NAP1002    -0.1145
@<TRIPOS>BOND
     1    41    39   am
     2    39    40    2
     3    39    38    1
     4    42    38    2
     5    42    43    1
     6    38    37    1
     7    43    44    2
     8    37    36    1
     9    44    36    1
    10    36    35    1
    11    33    35    1
    12    33    34    1
    13    33    31    1
    14    35    30    1
    15    25    24    2
    16    31    32    1
    17    31    29    1
    18    30    29    1
    19    27    24    1
    20    27    28    1
    21     2     1    2
    22    24    26    1
    23    24    23    1
    24    29    28    1
    25     4     1    1
    26     4     5    1
    27     1    23    1
    28     1     3    1
    29     9     8    1
    30     6     5    1
    31     6     8    1
    32     6     7    1
    33     8    10    1
    34     7    12    1
    35    10    12    1
    36    10    11    1
    37    12    13    1
    38    47    45    2
    39    11    45    1
    40    45    48    1
    41    45    46    1
    42    13    22    1
    43    13    14    1
    44    21    22    2
    45    21    20    1
    46    22    16    1
    47    14    15    1
    48    20    19    1
    49    15    16    2
    50    16    17    1
    51    19    17    2
    52    17    18    1
