@<TRIPOS>MOLECULE
4aot_GW8_A_1.pdb
 45 49 0 0 0
SMALL
GASTEIGER

@<TRIPOS>ATOM
      1  N1        -5.5650  -14.2660   -7.2960 N.2   1319  GW81319    -0.1683
      2  C2        -5.7290  -14.0360   -8.6020 C.1   1319  GW81319     0.1709
      3  N3        -4.6720  -13.9710   -9.3790 N.2   1319  GW81319    -0.3204
      4  C4        -3.4310  -14.0410   -8.8890 C.2   1319  GW81319     0.2015
      5  C5        -3.2320  -14.2560   -7.5500 C.2   1319  GW81319     0.0705
      6  C6        -4.3240  -14.3670   -6.7420 C.2   1319  GW81319     0.1158
      7  CAA        9.8810   -8.9180  -14.3160 C.3   1319  GW81319     0.0897
      8  CAB       -2.7320  -13.6470  -11.1710 C.3   1319  GW81319     0.1198
      9  CAC      -11.5050  -11.3430  -13.3370 C.3   1319  GW81319     0.1764
     10  OAD        3.8250  -14.8720  -10.0910 O.2   1319  GW81319    -0.2484
     11  OAE        7.0600  -14.3680  -13.5810 O.2   1319  GW81319    -0.2699
     12  OAF       -9.0550  -10.3150  -13.8870 O.2   1319  GW81319    -0.1726
     13  OAG      -10.2360  -11.4940  -15.7130 O.2   1319  GW81319    -0.1726
     14  CAH        8.6590  -14.7170   -9.3300 C.ar  1319  GW81319     0.0015
     15  CAJ        7.4790  -14.4940   -8.5970 C.ar  1319  GW81319     0.0167
     16  CAK        8.7000  -14.4640  -10.6910 C.ar  1319  GW81319     0.0046
     17  CAM       -7.4000  -12.9310  -12.4860 C.ar  1319  GW81319    -0.0012
     18  CAN       -9.4160  -13.8920  -11.6630 C.ar  1319  GW81319    -0.0012
     19  CAO       -6.7660  -13.1190  -11.2820 C.ar  1319  GW81319     0.0171
     20  CAP       -8.7750  -14.0680  -10.4520 C.ar  1319  GW81319     0.0171
     21  CAQ        0.7770  -12.8390   -8.4490 C.ar  1319  GW81319     0.0179
     22  CAR        1.0170  -15.0790   -9.2440 C.ar  1319  GW81319     0.0179
     23  CAS       -0.5500  -12.8400   -8.7870 C.ar  1319  GW81319     0.0162
     24  CAT       -0.3210  -15.0610   -9.6120 C.ar  1319  GW81319     0.0162
     25  CAU        6.4130  -13.7780  -10.6440 C.ar  1319  GW81319     0.0212
     26  CAV        8.8180  -11.0450  -14.9060 C.3   1319  GW81319     0.0939
     27  CAW        9.7060  -10.5340  -12.6310 C.3   1319  GW81319     0.0939
     28  CAX        8.8840  -12.5190  -14.6430 C.3   1319  GW81319     0.1110
     29  CAY        9.3890  -11.9720  -12.2050 C.3   1319  GW81319     0.1110
     30  CAZ       -9.3210  -13.1680  -13.9590 C.3   1319  GW81319     0.1772
     31  NBC        2.8760  -13.7870   -8.2850 N.am  1319  GW81319    -0.1607
     32  NBD        5.1640  -13.8380   -8.5410 N.am  1319  GW81319    -0.1607
     33  NBE       -6.9970  -13.8930   -8.9900 N.pl3 1319  GW81319    -0.1357
     34  CBF        3.9480  -14.1910   -9.0560 C.2   1319  GW81319     0.3477
     35  CBG        7.7270  -13.7100  -12.7580 C.2   1319  GW81319     0.2491
     36  CBH       -8.7230  -13.3130  -12.6960 C.ar  1319  GW81319     0.0014
     37  CBI        1.5920  -13.9410   -8.6640 C.ar  1319  GW81319     0.0751
     38  CBJ       -7.4480  -13.7150  -10.2330 C.ar  1319  GW81319     0.0826
     39  CBK        6.3220  -14.0710   -9.2530 C.ar  1319  GW81319     0.0751
     40  CBL        7.5840  -13.9670  -11.3730 C.ar  1319  GW81319     0.0549
     41  CBM       -1.1080  -13.9660   -9.3600 C.ar  1319  GW81319     0.0537
     42  NBP        9.8840  -10.4070  -14.0800 N.3   1319  GW81319    -0.2686
     43  NBQ       -2.4060  -13.9530   -9.7420 N.pl3 1319  GW81319    -0.2602
     44  NBR        8.6260  -12.7760  -13.1640 N.am  1319  GW81319    -0.2732
     45  SBS       -9.9850  -11.5130  -14.2110 S.O2  1319  GW81319    -0.0040
@<TRIPOS>BOND
     1    13    45    2
     2    26    28    1
     3    26    42    1
     4    28    44    1
     5     7    42    1
     6    45    30    1
     7    45    12    2
     8    45     9    1
     9    42    27    1
    10    30    36    1
    11    11    35    2
    12    44    35   am
    13    44    29    1
    14    35    40    1
    15    36    17   ar
    16    36    18   ar
    17    27    29    1
    18    17    19   ar
    19    18    20   ar
    20    40    16   ar
    21    40    25   ar
    22    19    38   ar
    23     8    43    1
    24    16    14   ar
    25    25    39   ar
    26    20    38   ar
    27    38    33    1
    28    10    34    2
    29    43    41    1
    30    43     4    1
    31    24    41   ar
    32    24    22   ar
    33     3     4    2
    34     3     2    2
    35    41    23   ar
    36    14    15   ar
    37    39    15   ar
    38    39    32    1
    39    22    37   ar
    40    34    32   am
    41    34    31   am
    42    33     2    1
    43     4     5    1
    44    23    21   ar
    45    37    21   ar
    46    37    31    1
    47     2     1    2
    48     5     6    2
    49     1     6    1
