@<TRIPOS>MOLECULE
4aou_NAP_A_1.pdb
 48 52 0 0 0
SMALL
GASTEIGER

@<TRIPOS>ATOM
      1  PA       -55.9870   16.1850  -20.3010 P.3   1520  NAP1520     0.2189
      2  O1A      -56.3720   15.3140  -19.1470 O.3   1520  NAP1520    -0.4371
      3  O2A      -55.5210   17.5230  -19.8850 O.2   1520  NAP1520    -0.5170
      4  O5B      -57.2670   16.3290  -21.2680 O.3   1520  NAP1520    -0.3112
      5  C5B      -57.7150   15.1440  -21.9000 C.3   1520  NAP1520     0.1813
      6  C4B      -59.1690   15.3230  -22.3390 C.3   1520  NAP1520     0.1820
      7  O4B      -60.0930   14.6880  -21.4320 O.3   1520  NAP1520    -0.3136
      8  C3B      -59.5860   16.7950  -22.4780 C.3   1520  NAP1520     0.2157
      9  O3B      -59.2600   17.3480  -23.7510 O.3   1520  NAP1520    -0.2175
     10  C2B      -61.0750   16.6390  -22.2270 C.3   1520  NAP1520     0.2314
     11  O2B      -61.6170   16.0460  -23.3770 O.3   1520  NAP1520    -0.2630
     12  C1B      -61.1850   15.5550  -21.1570 C.3   1520  NAP1520     0.3158
     13  N9A      -61.0070   16.2200  -19.8520 N.pl3 1520  NAP1520    -0.1439
     14  C8A      -59.8910   16.1830  -19.0470 C.3   1520  NAP1520     0.3377
     15  N7A      -60.0960   16.9650  -17.9630 N.2   1520  NAP1520    -0.2095
     16  C5A      -61.3160   17.5340  -18.0680 C.2   1520  NAP1520     0.2526
     17  C6A      -62.0170   18.4150  -17.2360 C.2   1520  NAP1520     0.4393
     18  N6A      -61.4690   18.8680  -16.0770 N.pl3 1520  NAP1520     0.2180
     19  N1A      -63.2880   18.8270  -17.6420 N.2   1520  NAP1520     0.0021
     20  C2A      -63.8380   18.3770  -18.8170 C.3   1520  NAP1520     0.5254
     21  N3A      -63.1270   17.5230  -19.6210 N.2   1520  NAP1520    -0.0055
     22  C4A      -61.8960   17.0960  -19.2550 C.2   1520  NAP1520     0.3518
     23  O3       -54.9330   15.3420  -21.1830 O.3   1520  NAP1520    -0.2703
     24  PN       -54.0090   15.7070  -22.4470 P.3   1520  NAP1520     0.2189
     25  O1N      -53.5290   14.3830  -22.8940 O.3   1520  NAP1520    -0.4371
     26  O2N      -54.7440   16.6020  -23.4080 O.2   1520  NAP1520    -0.5170
     27  O5D      -52.7380   16.5270  -21.8480 O.3   1520  NAP1520    -0.3112
     28  C5D      -52.6610   17.9350  -22.0060 C.3   1520  NAP1520     0.1813
     29  C4D      -51.4160   18.4350  -21.2850 C.3   1520  NAP1520     0.1799
     30  O4D      -51.5220   18.1110  -19.8910 O.3   1520  NAP1520    -0.3327
     31  C3D      -50.1700   17.7070  -21.8290 C.3   1520  NAP1520     0.2158
     32  O3D      -49.1840   18.6060  -22.3040 O.3   1520  NAP1520    -0.2175
     33  C2D      -49.6570   16.8620  -20.6580 C.3   1520  NAP1520     0.2309
     34  O2D      -48.2560   16.8920  -20.5320 O.3   1520  NAP1520    -0.2158
     35  C1D      -50.3040   17.5110  -19.4400 C.3   1520  NAP1520     0.2263
     36  N1N      -50.5060   16.5150  -18.3910 N.pl3 1520  NAP1520    -0.2787
     37  C2N      -50.4380   16.9270  -17.1880 C.3   1520  NAP1520     0.1244
     38  C3N      -50.9560   16.1620  -16.1790 C.2   1520  NAP1520     0.0544
     39  C7N      -50.6540   16.5000  -14.7640 C.2   1520  NAP1520     0.2818
     40  O7N      -51.1300   15.5780  -13.8010 O.2   1520  NAP1520    -0.2670
     41  N7N      -49.9870   17.6080  -14.5010 N.am  1520  NAP1520    -0.0839
     42  C4N      -51.6920   15.0050  -16.4800 C.2   1520  NAP1520     0.0033
     43  C5N      -51.8640   14.6120  -17.8120 C.2   1520  NAP1520     0.0157
     44  C6N      -51.3360   15.3770  -18.8190 C.2   1520  NAP1520     0.0633
     45  P2B      -62.4070   16.7740  -24.5730 P.3   1520  NAP1520     0.5328
     46  O1X      -62.8260   15.5290  -25.2970 O.3   1520  NAP1520    -0.1145
     47  O2X      -63.6350   17.5610  -24.1310 O.3   1520  NAP1520    -0.1145
     48  O3X      -61.4750   17.6740  -25.3930 O.2   1520  NAP1520    -0.2224
@<TRIPOS>BOND
     1    48    45    2
     2    46    45    1
     3    45    47    1
     4    45    11    1
     5     9     8    1
     6    26    24    2
     7    11    10    1
     8    25    24    1
     9     8     6    1
    10     8    10    1
    11    24    27    1
    12    24    23    1
    13     6     5    1
    14     6     7    1
    15    32    31    1
    16    10    12    1
    17    28    27    1
    18    28    29    1
    19     5     4    1
    20    31    29    1
    21    31    33    1
    22     7    12    1
    23    29    30    1
    24     4     1    1
    25    23     1    1
    26    12    13    1
    27    33    34    1
    28    33    35    1
    29     1     3    2
    30     1     2    1
    31    30    35    1
    32    13    22    1
    33    13    14    1
    34    21    22    2
    35    21    20    1
    36    35    36    1
    37    22    16    1
    38    14    15    1
    39    44    36    1
    40    44    43    2
    41    20    19    1
    42    36    37    1
    43    16    15    2
    44    16    17    1
    45    43    42    1
    46    19    17    2
    47    17    18    1
    48    37    38    1
    49    42    38    2
    50    38    39    1
    51    39    41   am
    52    39    40    2
