@<TRIPOS>MOLECULE
4aou_ICT_A_1.pdb
 13 12 0 0 0
SMALL
GASTEIGER

@<TRIPOS>ATOM
      1  C1       -50.9370   11.9670  -14.4420 C.2   1403  ICT1403     0.3952
      2  O1       -51.6110   10.8880  -14.5270 O.co2 1403  ICT1403    -0.2428
      3  O2       -50.7520   12.3830  -13.2930 O.co2 1403  ICT1403    -0.2428
      4  C2       -50.4130   12.7870  -15.6180 C.3   1403  ICT1403     0.2651
      5  O7       -50.3920   12.0710  -16.8330 O.3   1403  ICT1403    -0.2103
      6  C3       -48.9680   13.1800  -15.4970 C.3   1403  ICT1403     0.1561
      7  C4       -48.6400   14.1140  -16.6590 C.3   1403  ICT1403     0.1285
      8  C5       -47.1320   14.3000  -16.7460 C.2   1403  ICT1403     0.3655
      9  O3       -46.4600   14.3600  -17.8180 O.co2 1403  ICT1403    -0.2456
     10  O4       -46.5090   14.3950  -15.6770 O.co2 1403  ICT1403    -0.2456
     11  C6       -48.2580   11.8600  -15.6570 C.2   1403  ICT1403     0.3680
     12  O5       -47.7500   11.4810  -16.7610 O.co2 1403  ICT1403    -0.2455
     13  O6       -48.2360   11.0900  -14.6670 O.co2 1403  ICT1403    -0.2455
@<TRIPOS>BOND
     1     9     8   ar
     2     5     4    1
     3    12    11   ar
     4     8     7    1
     5     8    10   ar
     6     7     6    1
     7    11     6    1
     8    11    13   ar
     9     4     6    1
    10     4     1    1
    11     2     1   ar
    12     1     3   ar
