@<TRIPOS>MOLECULE
4aov_NAP_A_1.pdb
 48 52 0 0 0
SMALL
GASTEIGER

@<TRIPOS>ATOM
      1  PA         9.4350    3.2860   24.4650 P.3   1403  NAP1403     0.2189
      2  O1A       10.8640    3.6250   24.1800 O.3   1403  NAP1403    -0.4371
      3  O2A        8.7250    2.8290   23.2690 O.2   1403  NAP1403    -0.5170
      4  O5B        8.7710    4.6170   25.0400 O.3   1403  NAP1403    -0.3112
      5  C5B        8.9890    4.9870   26.3900 C.3   1403  NAP1403     0.1813
      6  C4B        8.6310    6.4500   26.5910 C.3   1403  NAP1403     0.1820
      7  O4B        9.6420    7.3450   26.1510 O.3   1403  NAP1403    -0.3136
      8  C3B        7.4260    6.8800   25.7880 C.3   1403  NAP1403     0.2157
      9  O3B        6.2860    6.4400   26.4550 O.3   1403  NAP1403    -0.2175
     10  C2B        7.6300    8.3890   25.7160 C.3   1403  NAP1403     0.2314
     11  O2B        7.5110    9.0110   26.9800 O.3   1403  NAP1403    -0.2630
     12  C1B        9.0920    8.4310   25.3960 C.3   1403  NAP1403     0.3158
     13  N9A        9.3380    8.1970   23.9420 N.pl3 1403  NAP1403    -0.1439
     14  C8A        9.9100    7.0700   23.3690 C.3   1403  NAP1403     0.3377
     15  N7A        9.9970    7.2570   22.0340 N.2   1403  NAP1403    -0.2095
     16  C5A        9.4750    8.4700   21.7490 C.2   1403  NAP1403     0.2526
     17  C6A        9.3100    9.1600   20.5560 C.2   1403  NAP1403     0.4393
     18  N6A        9.6720    8.6140   19.3860 N.pl3 1403  NAP1403     0.2180
     19  N1A        8.7360   10.4120   20.5740 N.2   1403  NAP1403     0.0021
     20  C2A        8.3300   10.9990   21.7590 C.3   1403  NAP1403     0.5254
     21  N3A        8.4990   10.3170   22.9380 N.2   1403  NAP1403    -0.0055
     22  C4A        9.0600    9.0740   22.9300 C.2   1403  NAP1403     0.3518
     23  O3         9.4500    2.2600   25.7090 O.3   1403  NAP1403    -0.2703
     24  PN         8.3710    1.4250   26.5360 P.3   1403  NAP1403     0.2189
     25  O1N        9.0470    0.9710   27.7680 O.3   1403  NAP1403    -0.4371
     26  O2N        7.1460    2.2410   26.6730 O.2   1403  NAP1403    -0.5170
     27  O5D        8.0920    0.1470   25.5820 O.3   1403  NAP1403    -0.3112
     28  C5D        6.9320    0.0300   24.7790 C.3   1403  NAP1403     0.1813
     29  C4D        7.0250   -1.1770   23.8430 C.3   1403  NAP1403     0.1799
     30  O4D        8.1730   -1.0600   23.0340 O.3   1403  NAP1403    -0.3327
     31  C3D        7.1490   -2.5090   24.5850 C.3   1403  NAP1403     0.2158
     32  O3D        6.2290   -3.4510   24.0220 O.3   1403  NAP1403    -0.2175
     33  C2D        8.6030   -2.9460   24.3760 C.3   1403  NAP1403     0.2309
     34  O2D        8.7030   -4.3430   24.2660 O.3   1403  NAP1403    -0.2158
     35  C1D        8.9150   -2.2840   23.0450 C.3   1403  NAP1403     0.2263
     36  N1N       10.2940   -1.8340   22.8260 N.pl3 1403  NAP1403    -0.2787
     37  C2N       10.9140   -2.1780   21.6520 C.3   1403  NAP1403     0.1244
     38  C3N       12.1900   -1.7010   21.3670 C.2   1403  NAP1403     0.0544
     39  C7N       12.7330   -1.7600   19.9710 C.2   1403  NAP1403     0.2818
     40  O7N       13.9240   -1.0580   19.6530 O.2   1403  NAP1403    -0.2670
     41  N7N       12.0760   -2.4770   19.0700 N.am  1403  NAP1403    -0.0839
     42  C4N       12.7910   -0.8320   22.2750 C.2   1403  NAP1403     0.0033
     43  C5N       12.1360   -0.4460   23.4410 C.2   1403  NAP1403     0.0157
     44  C6N       10.8620   -0.9390   23.6910 C.2   1403  NAP1403     0.0633
     45  P2B        6.1240    9.6760   27.4760 P.3   1403  NAP1403     0.5328
     46  O1X        6.4270   10.3560   28.7840 O.3   1403  NAP1403    -0.1145
     47  O2X        5.6710   10.6200   26.3910 O.2   1403  NAP1403    -0.2224
     48  O3X        5.0980    8.5660   27.6510 O.3   1403  NAP1403    -0.1145
@<TRIPOS>BOND
     1    41    39   am
     2    18    17    1
     3    40    39    2
     4    39    38    1
     5    17    19    2
     6    17    16    1
     7    19    20    1
     8    38    37    1
     9    38    42    2
    10    37    36    1
    11    16    15    2
    12    16    22    1
    13    20    21    1
    14    15    14    1
    15    42    43    1
    16    36    35    1
    17    36    44    1
    18    22    21    2
    19    22    13    1
    20    30    35    1
    21    30    29    1
    22    35    33    1
    23     3     1    2
    24    14    13    1
    25    43    44    2
    26    29    31    1
    27    29    28    1
    28    13    12    1
    29    32    31    1
    30     2     1    1
    31    34    33    1
    32    33    31    1
    33     1     4    1
    34     1    23    1
    35    28    27    1
    36     4     5    1
    37    12    10    1
    38    12     7    1
    39    27    24    1
    40    23    24    1
    41    10     8    1
    42    10    11    1
    43     8     9    1
    44     8     6    1
    45     7     6    1
    46     5     6    1
    47    47    45    2
    48    24    26    2
    49    24    25    1
    50    11    45    1
    51    45    48    1
    52    45    46    1
