@<TRIPOS>MOLECULE
4aov_ICT_A_1.pdb
 13 12 0 0 0
SMALL
GASTEIGER

@<TRIPOS>ATOM
      1  C1        16.0970   -1.4970   22.4270 C.2   1404  ICT1404     0.3952
      2  O1        16.8050   -0.7850   23.1730 O.co2 1404  ICT1404    -0.2428
      3  O2        16.3850   -1.6050   21.2010 O.co2 1404  ICT1404    -0.2428
      4  C2        14.9120   -2.1740   23.0440 C.3   1404  ICT1404     0.2651
      5  O7        14.8060   -1.8700   24.4430 O.3   1404  ICT1404    -0.2103
      6  C3        14.8670   -3.6820   22.8140 C.3   1404  ICT1404     0.1561
      7  C4        13.4510   -4.1740   23.1790 C.3   1404  ICT1404     0.1285
      8  C5        13.2790   -5.6650   23.0610 C.2   1404  ICT1404     0.3655
      9  O3        12.4900   -6.2530   23.8520 O.co2 1404  ICT1404    -0.2456
     10  O4        13.8960   -6.3160   22.1860 O.co2 1404  ICT1404    -0.2456
     11  C6        15.9400   -4.2680   23.6760 C.2   1404  ICT1404     0.3680
     12  O5        15.6770   -4.7510   24.7950 O.co2 1404  ICT1404    -0.2455
     13  O6        17.1450   -4.2210   23.3060 O.co2 1404  ICT1404    -0.2455
@<TRIPOS>BOND
     1     3     1   ar
     2    10     8   ar
     3     1     4    1
     4     1     2   ar
     5     6     4    1
     6     6     7    1
     7     6    11    1
     8     4     5    1
     9     8     7    1
    10     8     9   ar
    11    13    11   ar
    12    11    12   ar
