@<TRIPOS>MOLECULE
4ap0_G7X_A_1.pdb
 34 37 0 0 0
SMALL
GASTEIGER

@<TRIPOS>ATOM
      1  CAN       11.1670    2.5500   31.3440 C.ar  2001  G7X2001     0.0042
      2  CAO       12.1990    3.2930   30.7550 C.ar  2001  G7X2001    -0.0041
      3  CAY       12.0670    4.6730   30.5990 C.ar  2001  G7X2001    -0.0218
      4  CAZ       13.1960    5.5240   29.9680 C.3   2001  G7X2001     0.0310
      5  CAX       10.8970    5.3010   31.0220 C.ar  2001  G7X2001    -0.0041
      6  CAW        9.8700    4.5640   31.6040 C.ar  2001  G7X2001     0.0042
      7  CAM        9.9940    3.1850   31.7530 C.ar  2001  G7X2001     0.0536
      8  CAL        8.8530    2.4070   32.4250 C.2   2001  G7X2001     0.2494
      9  OAV        8.7690    2.3920   33.6520 O.2   2001  G7X2001    -0.2699
     10  NAK        7.9890    1.7490   31.6630 N.am  2001  G7X2001    -0.2683
     11  CAU        6.8710    1.0090   32.2910 C.3   2001  G7X2001     0.1156
     12  CAJ        8.0360    1.7540   30.1920 C.3   2001  G7X2001     0.1427
     13  CAB        6.7340    2.3460   29.6480 C.3   2001  G7X2001     0.0265
     14  CAA        6.5130    3.7940   30.1200 C.3   2001  G7X2001     0.0022
     15  CAC        6.7400    2.2740   28.1300 C.3   2001  G7X2001     0.0022
     16  CAI        8.1480    0.3240   29.6630 C.2   2001  G7X2001     0.1839
     17  NAH        7.0810   -0.4940   29.8640 N.2   2001  G7X2001    -0.3932
     18  CAG        7.0880   -1.7800   29.4280 C.2   2001  G7X2001     0.1199
     19  CAF        5.9930   -2.6050   29.6570 C.3   2001  G7X2001     0.0970
     20  CAE        5.9940   -3.9240   29.2110 C.2   2001  G7X2001     0.0425
     21 CLD         4.6160   -4.9300   29.4970 Cl    2001  G7X2001    -0.0865
     22  CAP        7.0930   -4.4370   28.5290 C.2   2001  G7X2001     0.0077
     23  CAQ        8.1930   -3.6200   28.2970 C.2   2001  G7X2001     0.0073
     24  CAR        8.1900   -2.3030   28.7450 C.2   2001  G7X2001     0.0797
     25  CAS        9.2970   -1.4960   28.5160 C.2   2001  G7X2001     0.2568
     26  OBA       10.2690   -1.9250   27.9080 O.2   2001  G7X2001    -0.2694
     27  NAT        9.2890   -0.1800   28.9720 N.am  2001  G7X2001    -0.2283
     28  CBB       10.4590    0.6520   28.6950 C.3   2001  G7X2001     0.1272
     29  CBG       10.1760    1.5640   27.4870 C.ar  2001  G7X2001    -0.0019
     30  CBH       10.4710    2.9280   27.5720 C.ar  2001  G7X2001    -0.0026
     31  CBK       10.2300    3.7610   26.4720 C.ar  2001  G7X2001    -0.0003
     32  CBJ        9.6940    3.2260   25.3020 C.ar  2001  G7X2001    -0.0000
     33  CBI        9.4060    1.8660   25.2020 C.ar  2001  G7X2001    -0.0003
     34  CBF        9.6620    1.0340   26.3020 C.ar  2001  G7X2001    -0.0026
@<TRIPOS>BOND
     1    33    32   ar
     2    33    34   ar
     3    32    31   ar
     4    34    29   ar
     5    31    30   ar
     6    29    30   ar
     7    29    28    1
     8    26    25    2
     9    15    13    1
    10    23    22    1
    11    23    24    2
    12    25    24    1
    13    25    27   am
    14    22    20    2
    15    28    27    1
    16    24    18    1
    17    27    16    1
    18    20    21    1
    19    20    19    1
    20    18    19    1
    21    18    17    2
    22    13    14    1
    23    13    12    1
    24    16    17    2
    25    16    12    1
    26     4     3    1
    27    12    10    1
    28     3     2   ar
    29     3     5   ar
    30     2     1   ar
    31     5     6   ar
    32     1     7   ar
    33     6     7   ar
    34    10    11    1
    35    10     8   am
    36     7     8    1
    37     8     9    2
