@<TRIPOS>MOLECULE
4ap0_ADP_A_1.pdb
 27 29 0 0 0
SMALL
GASTEIGER

@<TRIPOS>ATOM
      1  PB        14.9080   -8.5260   38.5690 P.3   1003  ADP1003     0.5373
      2  O1B       14.2220   -9.0660   39.8050 O.3   1003  ADP1003    -0.1143
      3  O2B       16.0540   -9.3770   38.0640 O.3   1003  ADP1003    -0.1143
      4  O3B       13.9660   -8.0540   37.4810 O.2   1003  ADP1003    -0.2221
      5  PA        15.1000   -5.6770   38.7050 P.3   1003  ADP1003     0.2231
      6  O1A       15.7010   -5.3220   37.3640 O.2   1003  ADP1003    -0.5169
      7  O2A       13.6020   -5.6270   38.9450 O.3   1003  ADP1003    -0.4370
      8  O3A       15.6050   -7.1630   39.1240 O.3   1003  ADP1003    -0.2261
      9  O5'       15.8570   -4.6820   39.7230 O.3   1003  ADP1003    -0.3111
     10  C5'       15.9740   -4.9160   41.1360 C.3   1003  ADP1003     0.1813
     11  C4'       16.3480   -3.5850   41.7760 C.3   1003  ADP1003     0.1821
     12  O4'       17.7610   -3.2760   41.5940 O.3   1003  ADP1003    -0.3135
     13  C3'       15.5960   -2.4900   41.0450 C.3   1003  ADP1003     0.2184
     14  O3'       15.3940   -1.4280   41.9890 O.3   1003  ADP1003    -0.2174
     15  C2'       16.5680   -2.0700   39.9500 C.3   1003  ADP1003     0.2570
     16  O2'       16.2720   -0.7640   39.4460 O.3   1003  ADP1003    -0.2130
     17  C1'       17.9390   -2.2010   40.6330 C.3   1003  ADP1003     0.3186
     18  N9        19.0930   -2.5050   39.7150 N.pl3 1003  ADP1003    -0.1439
     19  C8        19.2800   -3.6490   39.0000 C.3   1003  ADP1003     0.3377
     20  N7        20.4520   -3.5820   38.2860 N.2   1003  ADP1003    -0.2095
     21  C5        21.0410   -2.3770   38.5410 C.2   1003  ADP1003     0.2526
     22  C6        22.2760   -1.6560   38.1310 C.2   1003  ADP1003     0.4393
     23  N6        23.1590   -2.2190   37.2710 N.pl3 1003  ADP1003     0.2180
     24  N1        22.5160   -0.4130   38.6340 N.2   1003  ADP1003     0.0021
     25  C2        21.6500    0.1480   39.4870 C.3   1003  ADP1003     0.5254
     26  N3        20.5170   -0.4510   39.8910 N.2   1003  ADP1003    -0.0055
     27  C4        20.1470   -1.6820   39.4680 C.2   1003  ADP1003     0.3518
@<TRIPOS>BOND
     1    23    22    1
     2     6     5    2
     3     4     1    2
     4     3     1    1
     5    22    21    1
     6    22    24    2
     7    20    21    2
     8    20    19    1
     9    21    27    1
    10     1     8    1
    11     1     2    1
    12    24    25    1
    13     5     7    1
    14     5     8    1
    15     5     9    1
    16    19    18    1
    17    16    15    1
    18    27    18    1
    19    27    26    2
    20    25    26    1
    21    18    17    1
    22     9    10    1
    23    15    17    1
    24    15    13    1
    25    17    12    1
    26    13    11    1
    27    13    14    1
    28    10    11    1
    29    12    11    1
