@<TRIPOS>MOLECULE
4ap1_NAP_A_1.pdb
 48 52 0 0 0
SMALL
GASTEIGER

@<TRIPOS>ATOM
      1  PA        10.8970   -0.0790  -14.1350 P.3   1002  NAP1002     0.2189
      2  O1A       10.1520   -1.3730  -14.3990 O.2   1002  NAP1002    -0.5170
      3  O2A       11.0000    0.4270  -12.7050 O.3   1002  NAP1002    -0.4371
      4  O5B       12.3790   -0.2410  -14.7670 O.3   1002  NAP1002    -0.3112
      5  C5B       13.5550    0.2580  -14.1160 C.3   1002  NAP1002     0.1813
      6  C4B       14.6380   -0.8170  -14.0070 C.3   1002  NAP1002     0.1820
      7  O4B       15.5860   -0.3870  -13.0230 O.3   1002  NAP1002    -0.3136
      8  C3B       14.0870   -2.1750  -13.5560 C.3   1002  NAP1002     0.2157
      9  O3B       14.6790   -3.2660  -14.2830 O.3   1002  NAP1002    -0.2175
     10  C2B       14.4720   -2.2450  -12.0940 C.3   1002  NAP1002     0.2314
     11  O2B       14.6660   -3.5850  -11.6370 O.3   1002  NAP1002    -0.2630
     12  C1B       15.7580   -1.4300  -12.0620 C.3   1002  NAP1002     0.3158
     13  N9A       16.0410   -0.9400  -10.6920 N.pl3 1002  NAP1002    -0.1439
     14  C8A       15.2090   -0.2570   -9.8750 C.3   1002  NAP1002     0.3377
     15  N7A       15.8190    0.0090   -8.6880 N.2   1002  NAP1002    -0.2095
     16  C5A       17.0690   -0.5150   -8.7340 C.2   1002  NAP1002     0.2526
     17  C6A       18.2530   -0.6030   -7.8240 C.2   1002  NAP1002     0.4393
     18  N6A       18.2340   -0.0610   -6.5790 N.pl3 1002  NAP1002     0.2180
     19  N1A       19.3600   -1.2500   -8.2830 N.2   1002  NAP1002     0.0021
     20  C2A       19.4060   -1.7990   -9.5190 C.3   1002  NAP1002     0.5254
     21  N3A       18.3800   -1.7610  -10.3970 N.2   1002  NAP1002    -0.0055
     22  C4A       17.2070   -1.1440  -10.0670 C.2   1002  NAP1002     0.3518
     23  O3        10.2330    1.0960  -15.0430 O.3   1002  NAP1002    -0.2703
     24  PN         9.8730    0.9790  -16.6240 P.3   1002  NAP1002     0.2189
     25  O1N       10.1480   -0.4290  -17.1010 O.3   1002  NAP1002    -0.4371
     26  O2N       10.6030    2.0940  -17.3340 O.2   1002  NAP1002    -0.5170
     27  O5D        8.2610    1.2440  -16.6890 O.3   1002  NAP1002    -0.3112
     28  C5D        7.4140    1.4250  -15.5290 C.3   1002  NAP1002     0.1813
     29  C4D        5.9100    1.1400  -15.7460 C.3   1002  NAP1002     0.1799
     30  O4D        5.2770    2.0650  -16.6520 O.3   1002  NAP1002    -0.3327
     31  C3D        5.6070   -0.2640  -16.2690 C.3   1002  NAP1002     0.2158
     32  O3D        5.1110   -1.0970  -15.2120 O.3   1002  NAP1002    -0.2175
     33  C2D        4.5900   -0.0990  -17.3970 C.3   1002  NAP1002     0.2309
     34  O2D        3.3190   -0.6700  -17.0550 O.3   1002  NAP1002    -0.2158
     35  C1D        4.4540    1.4050  -17.6340 C.3   1002  NAP1002     0.2263
     36  N1N        4.8370    1.8010  -19.0110 N.pl3 1002  NAP1002    -0.2787
     37  C2N        3.8910    2.2690  -19.8610 C.3   1002  NAP1002     0.1244
     38  C3N        4.2190    2.6700  -21.1720 C.2   1002  NAP1002     0.0544
     39  C7N        3.1580    3.1890  -22.1310 C.2   1002  NAP1002     0.2818
     40  O7N        2.0820    3.6050  -21.7230 O.2   1002  NAP1002    -0.2670
     41  N7N        3.4000    3.1870  -23.4440 N.am  1002  NAP1002    -0.0839
     42  C4N        5.5580    2.5710  -21.5920 C.2   1002  NAP1002     0.0033
     43  C5N        6.5240    2.0860  -20.7110 C.2   1002  NAP1002     0.0157
     44  C6N        6.1280    1.7120  -19.4210 C.2   1002  NAP1002     0.0633
     45  P2B       14.2490   -4.0060  -10.1350 P.3   1002  NAP1002     0.5328
     46  O1X       15.3210   -3.4390   -9.2240 O.3   1002  NAP1002    -0.1145
     47  O2X       12.8680   -3.3950  -10.0000 O.3   1002  NAP1002    -0.1145
     48  O3X       14.2510   -5.5130  -10.1570 O.2   1002  NAP1002    -0.2224
@<TRIPOS>BOND
     1    41    39   am
     2    39    40    2
     3    39    38    1
     4    42    38    2
     5    42    43    1
     6    38    37    1
     7    43    44    2
     8    37    36    1
     9    44    36    1
    10    36    35    1
    11    35    33    1
    12    35    30    1
    13    33    34    1
    14    33    31    1
    15    26    24    2
    16    25    24    1
    17    27    24    1
    18    27    28    1
    19    30    29    1
    20    24    23    1
    21    31    29    1
    22    31    32    1
    23    29    28    1
    24    23     1    1
    25     4     1    1
    26     4     5    1
    27     2     1    2
    28     9     8    1
    29     1     3    1
    30     5     6    1
    31     6     8    1
    32     6     7    1
    33     8    10    1
    34     7    12    1
    35    10    12    1
    36    10    11    1
    37    12    13    1
    38    11    45    1
    39    13    22    1
    40    13    14    1
    41    21    22    2
    42    21    20    1
    43    48    45    2
    44    45    47    1
    45    45    46    1
    46    22    16    1
    47    14    15    1
    48    20    19    1
    49    16    15    2
    50    16    17    1
    51    19    17    2
    52    17    18    1
