@<TRIPOS>MOLECULE
4ap3_NAP_A_1.pdb
 18 17 0 0 0
SMALL
GASTEIGER

@<TRIPOS>ATOM
      1  PA        11.3150   -0.1590  -14.1230 P.3   1553  NAP1553     0.5404
      2  O1A       12.8420   -0.0350  -13.6160 O.3   1553  NAP1553    -0.1143
      3  O2A       11.0710   -1.5890  -14.5510 O.2   1553  NAP1553    -0.2220
      4  O5B       10.4160    0.4800  -13.0870 O.3   1553  NAP1553    -0.1143
      5  O3        11.3340    0.7770  -15.4390 O.3   1553  NAP1553    -0.1798
      6  PN        10.0520    0.9060  -16.4010 P.3   1553  NAP1553     0.5404
      7  O1N        9.7160   -0.4730  -16.9260 O.3   1553  NAP1553    -0.1143
      8  O2N       10.2880    2.0200  -17.3920 O.2   1553  NAP1553    -0.2220
      9  O5D        8.9070    1.3760  -15.3600 O.3   1553  NAP1553    -0.1143
     10  N1N        6.9750    2.8060  -19.7000 N.ar  1553  NAP1553    -0.2422
     11  C2N        5.6740    2.9770  -20.0020 C.ar  1553  NAP1553     0.1035
     12  C3N        5.2740    3.2320  -21.3160 C.ar  1553  NAP1553     0.0758
     13  C7N        3.8210    3.4300  -21.6410 C.2   1553  NAP1553     0.2857
     14  O7N        3.0050    3.5860  -20.7500 O.2   1553  NAP1553    -0.2666
     15  N7N        3.4510    3.4420  -22.9150 N.am  1553  NAP1553    -0.0837
     16  C4N        6.2390    3.3020  -22.3220 C.ar  1553  NAP1553     0.0078
     17  C5N        7.5810    3.1210  -21.9870 C.ar  1553  NAP1553     0.0208
     18  C6N        7.9210    2.8730  -20.6540 C.ar  1553  NAP1553     0.0989
@<TRIPOS>BOND
     1    15    13   am
     2    16    17   ar
     3    16    12   ar
     4    17    18   ar
     5    13    12    1
     6    13    14    2
     7    12    11   ar
     8    18    10   ar
     9    11    10   ar
    10     8     6    2
    11     7     6    1
    12     6     5    1
    13     6     9    1
    14     5     1    1
    15     3     1    2
    16     1     2    1
    17     1     4    1
