@<TRIPOS>MOLECULE
4ap6_GFB_A_1.pdb
 38 41 0 0 0
SMALL
GASTEIGER

@<TRIPOS>ATOM
      1  O1P       18.1710  -11.6510   14.2270 O.2   1430  GFB1430    -0.5170
      2  P         17.6590  -10.6720   15.2490 P.3   1430  GFB1430     0.2189
      3  O3P       17.9850   -9.2190   15.0000 O.3   1430  GFB1430    -0.4371
      4  O2P       16.0540  -10.9060   15.3320 O.3   1430  GFB1430    -0.2703
      5  O5'       18.1390  -11.1230   16.6920 O.3   1430  GFB1430    -0.3112
      6  P1        15.0160  -10.7680   16.5510 P.3   1430  GFB1430     0.2208
      7  C5'       19.2540  -12.0030   16.7560 C.3   1430  GFB1430     0.1813
      8  C4'       20.4820  -11.1060   16.8600 C.3   1430  GFB1430     0.1799
      9  O4'       21.5620  -11.8680   17.3820 O.3   1430  GFB1430    -0.3326
     10  C3'       20.9370  -10.5540   15.5060 C.3   1430  GFB1430     0.2158
     11  C1'       22.5370  -12.0890   16.3820 C.3   1430  GFB1430     0.2293
     12  O3'       20.6510   -9.1500   15.3380 O.3   1430  GFB1430    -0.2175
     13  C2'       22.4310  -10.8830   15.4730 C.3   1430  GFB1430     0.2310
     14  O2'       23.2240   -9.8060   15.9960 O.3   1430  GFB1430    -0.2158
     15  N9        22.1770  -13.2610   15.5200 N.pl3 1430  GFB1430    -0.2354
     16  C8        21.0090  -13.9240   15.4120 C.3   1430  GFB1430     0.2246
     17  C4        23.0910  -13.8810   14.7630 C.2   1430  GFB1430     0.2300
     18  N7        21.1760  -14.9520   14.5460 N.2   1430  GFB1430    -0.2322
     19  C5        22.4590  -14.9440   14.1300 C.2   1430  GFB1430     0.2182
     20  C6        23.2310  -15.7240   13.2660 C.1   1430  GFB1430     0.2372
     21  O6        22.6830  -16.6940   12.6820 O.2   1430  GFB1430    -0.2069
     22  N1        24.5320  -15.4220   13.0790 N.2   1430  GFB1430    -0.2485
     23  C2        25.1040  -14.3750   13.7180 C.1   1430  GFB1430     0.2531
     24  N2        26.4010  -14.0310   13.5630 N.pl3 1430  GFB1430    -0.0226
     25  N3        24.3970  -13.6170   14.5570 N.2   1430  GFB1430    -0.3074
     26  C1        14.8680   -8.9760   18.5170 C.3   1430  GFB1430     0.2741
     27  C2A       16.0820   -8.5640   19.3730 C.3   1430  GFB1430     0.2409
     28  O1        15.3760   -9.3720   17.2520 O.3   1430  GFB1430    -0.2857
     29  O5        14.2410  -10.1610   19.0150 O.3   1430  GFB1430    -0.3281
     30  C3        15.7590   -8.4510   20.8620 C.3   1430  GFB1430     0.2197
     31  O2        16.5640   -7.3010   18.9240 O.3   1430  GFB1430    -0.2149
     32  C4A       15.0080   -9.7000   21.3270 C.3   1430  GFB1430     0.2118
     33  O3        16.9850   -8.2640   21.6150 O.3   1430  GFB1430    -0.2174
     34  C5A       13.8500  -10.1020   20.4020 C.3   1430  GFB1430     0.1508
     35  O4        15.9350  -10.7920   21.3850 O.3   1430  GFB1430    -0.2177
     36  C6A       13.3180  -11.4780   20.7900 C.3   1430  GFB1430     0.0350
     37  O1X       13.6340  -10.7850   15.9380 O.2   1430  GFB1430    -0.5170
     38  O2X       15.3180  -11.8400   17.5550 O.3   1430  GFB1430    -0.4371
@<TRIPOS>BOND
     1    21    20    2
     2    22    20    2
     3    22    23    2
     4    20    19    1
     5    24    23    1
     6    23    25    2
     7    19    18    2
     8    19    17    1
     9     1     2    2
    10    18    16    1
    11    25    17    2
    12    17    15    1
    13     3     2    1
    14     2     4    1
    15     2     5    1
    16     4     6    1
    17    12    10    1
    18    16    15    1
    19    13    10    1
    20    13    14    1
    21    13    11    1
    22    10     8    1
    23    15    11    1
    24    37     6    2
    25    11     9    1
    26     6    28    1
    27     6    38    1
    28     5     7    1
    29     7     8    1
    30     8     9    1
    31    28    26    1
    32    26    29    1
    33    26    27    1
    34    31    27    1
    35    29    34    1
    36    27    30    1
    37    34    36    1
    38    34    32    1
    39    30    32    1
    40    30    33    1
    41    32    35    1
