@<TRIPOS>MOLECULE
4ap7_F47_A_1.pdb
 24 27 0 0 0
SMALL
GASTEIGER

@<TRIPOS>ATOM
      1  F24       18.8220   13.1340   46.6860 F     2345  F472345    -0.2042
      2  N5        18.2260   10.7990   39.2100 N.pl3 2345  F472345     0.0086
      3  N7        17.6670   11.2910   37.2000 N.2   2345  F472345     0.0610
      4  C18       18.2290   12.4830   42.6270 C.ar  2345  F472345     0.0192
      5  C23       17.6270   13.6240   43.2750 C.ar  2345  F472345     0.0037
      6  C22       17.8580   13.7960   44.6440 C.ar  2345  F472345     0.0297
      7  C1        18.0370   12.2320   41.1500 C.2   2345  F472345     0.1259
      8  C2        17.4940   13.2090   40.2520 C.3   2345  F472345     0.1887
      9  C6        17.7020   11.7930   38.4410 C.1   2345  F472345     0.2535
     10  C11       20.4960    8.5090   39.4520 C.ar  2345  F472345    -0.0097
     11  C13       22.9390    8.5490   38.9250 C.ar  2345  F472345     0.0417
     12  N3        17.3410   12.9750   38.9510 N.2   2345  F472345    -0.1768
     13  C15       22.1990    8.6290   41.2380 C.ar  2345  F472345     0.0417
     14  C12       21.5880    8.4960   38.4890 C.ar  2345  F472345    -0.0004
     15  C14       23.2720    8.6140   40.2710 C.ar  2345  F472345     0.1957
     16  O17       24.6220    8.6610   40.6300 O.3   2345  F472345    -0.2866
     17  C16       20.8020    8.5780   40.8570 C.ar  2345  F472345    -0.0004
     18  C10       19.0900    8.4520   39.0130 C.3   2345  F472345     0.1496
     19  C9        18.4950    9.7480   38.4780 C.2   2345  F472345     0.3696
     20  N4        18.4010   11.0270   40.6290 N.2   2345  F472345    -0.0753
     21  N8        18.1660   10.0290   37.2750 N.2   2345  F472345     0.0912
     22  C19       19.0280   11.5680   43.3570 C.ar  2345  F472345     0.0037
     23  C20       19.2490   11.7590   44.7330 C.ar  2345  F472345     0.0297
     24  C21       18.6410   12.8920   45.3360 C.ar  2345  F472345     0.1401
@<TRIPOS>BOND
     1     3    21    1
     2     3     9    2
     3    21    19    2
     4     9    12    2
     5     9     2    1
     6    19    18    1
     7    19     2    1
     8    14    11   ar
     9    14    10   ar
    10    11    15   ar
    11    12     8    1
    12    18    10    1
    13     2    20    1
    14    10    17   ar
    15     8     7    1
    16    15    16    1
    17    15    13   ar
    18    20     7    2
    19    17    13   ar
    20     7     4    1
    21     4     5   ar
    22     4    22   ar
    23     5     6   ar
    24    22    23   ar
    25     6    24   ar
    26    23    24   ar
    27    24     1    1
