@<TRIPOS>MOLECULE
4ap9_1PS_A_1.pdb
 13 13 0 0 0
SMALL
GASTEIGER

@<TRIPOS>ATOM
      1  N1       -33.6420   30.7020  -23.5250 N.pl3 201  1PS201     -0.3026
      2  C1       -33.7690   30.0120  -24.6610 C.3   201  1PS201      0.1175
      3  C2       -34.5040   28.8350  -24.6960 C.2   201  1PS201     -0.0047
      4  C3       -34.2090   30.2940  -22.3780 C.2   201  1PS201      0.0616
      5  C4       -34.9600   29.1210  -22.3380 C.2   201  1PS201      0.0155
      6  C5       -35.1150   28.3720  -23.5140 C.2   201  1PS201     -0.0016
      7  C6       -32.8720   31.9070  -23.5450 C.3   201  1PS201      0.0928
      8  C7       -31.6430   31.6860  -24.3810 C.3   201  1PS201      0.0429
      9  C8       -30.8500   32.9540  -24.4470 C.3   201  1PS201      0.1070
     10  S1       -30.5240   33.3940  -26.1330 S.3   201  1PS201     -0.1960
     11  O1       -29.5950   34.5340  -26.0750 O.3   201  1PS201     -0.3075
     12  O2       -31.7590   33.7970  -26.7870 O.3   201  1PS201     -0.3075
     13  O3       -29.9090   32.2940  -26.8520 O.3   201  1PS201     -0.3075
@<TRIPOS>BOND
     1    13    10    1
     2    12    10    1
     3    10    11    1
     4    10     9    1
     5     3     2    1
     6     3     6    2
     7     2     1    1
     8     9     8    1
     9     8     7    1
    10     7     1    1
    11     1     4    1
    12     6     5    1
    13     4     5    2
