@<TRIPOS>MOLECULE
4apo_III_D_1.pdb
 47 46 0 0 0
SMALL
GASTEIGER

@<TRIPOS>ATOM
      1  N         26.8980  -17.0630   27.5530 N.3     1  ALA1       -0.1231
      2  CA        25.6160  -16.4440   27.8800 C.3     1  ALA1        0.1694
      3  C         25.2850  -15.3300   26.8900 C.2     1  ALA1        0.2592
      4  O         26.1740  -14.6310   26.4030 O.2     1  ALA1       -0.2718
      5  CB        25.6230  -15.9090   29.3120 C.3     1  ALA1        0.0304
      6  N         23.9990  -15.1720   26.5960 N.am    2  GLU2       -0.1966
      7  CA        23.5610  -14.1640   25.6400 C.3     2  GLU2        0.1733
      8  C         23.7430  -12.7440   26.1670 C.2     2  GLU2        0.2616
      9  O         23.7170  -11.7890   25.3910 O.2     2  GLU2       -0.2715
     10  CB        22.1160  -14.4150   25.2160 C.3     2  GLU2        0.0429
     11  CG        21.9910  -15.5780   24.2590 C.3     2  GLU2        0.1163
     12  CD        22.8450  -15.3820   23.0250 C.2     2  GLU2        0.3649
     13  OE1       22.7160  -14.3130   22.4040 O.co2   2  GLU2       -0.2457
     14  OE2       23.6400  -16.2860   22.6730 O.co2   2  GLU2       -0.2457
     15  N         23.9450  -12.6050   27.4770 N.am    3  ASP3       -0.1957
     16  CA        24.1940  -11.2830   28.0520 C.3     3  ASP3        0.1840
     17  C         25.6660  -11.1030   28.4440 C.2     3  ASP3        0.2622
     18  O         26.0200  -10.2220   29.2330 O.2     3  ASP3       -0.2715
     19  CB        23.2290  -10.9620   29.2080 C.3     3  ASP3        0.1450
     20  CG        23.5070  -11.7710   30.4640 C.2     3  ASP3        0.3671
     21  OD1       24.2190  -12.7960   30.3910 O.co2   3  ASP3       -0.2456
     22  OD2       22.9950  -11.3770   31.5340 O.co2   3  ASP3       -0.2456
     23  N         26.5170  -11.9510   27.8720 N.am    4  ASP4       -0.1957
     24  CA        27.9510  -11.8340   28.0330 C.3     4  ASP4        0.1840
     25  C         28.4700  -11.1640   26.7620 C.2     4  ASP4        0.2622
     26  O         27.6910  -10.7550   25.8930 O.2     4  ASP4       -0.2715
     27  CB        28.5800  -13.2220   28.2030 C.3     4  ASP4        0.1450
     28  CG        29.9740  -13.1790   28.8440 C.2     4  ASP4        0.3671
     29  OD1       30.5380  -12.0810   29.0370 O.co2   4  ASP4       -0.2456
     30  OD2       30.5130  -14.2640   29.1520 O.co2   4  ASP4       -0.2456
     31  N         29.7830  -11.0530   26.6540 N.am    5  VAL5       -0.1963
     32  CA        30.3930  -10.4920   25.4560 C.3     5  VAL5        0.1727
     33  C         31.2740  -11.5580   24.7950 C.2     5  VAL5        0.2617
     34  O         31.7310  -12.4950   25.4550 O.2     5  VAL5       -0.2715
     35  CB        31.1840   -9.2190   25.7930 C.3     5  VAL5        0.0290
     36  CG1       30.2180   -8.0580   26.0200 C.3     5  VAL5        0.0023
     37  CG2       32.0500   -9.4440   27.0340 C.3     5  VAL5        0.0023
     38  N         31.4750  -11.4320   23.4880 N.am    6  GLU6       -0.1941
     39  CA        32.2620  -12.4020   22.7270 C.3     6  GLU6        0.1984
     40  C         33.7120  -11.9670   22.6660 C.2     6  GLU6        0.3842
     41  O         34.0250  -10.7960   22.8860 O.co2   6  GLU6       -0.2437
     42  CB        31.7440  -12.5160   21.2950 C.3     6  GLU6        0.0451
     43  CG        30.2830  -12.8740   21.1740 C.3     6  GLU6        0.1164
     44  CD        29.8460  -12.9870   19.7230 C.2     6  GLU6        0.3649
     45  OE1       30.1120  -14.0320   19.0970 O.co2   6  GLU6       -0.2457
     46  OE2       29.2370  -12.0300   19.2050 O.co2   6  GLU6       -0.2457
     47  OXT       34.5890  -12.7740   22.3570 O.co2   6  GLU6       -0.2437
@<TRIPOS>BOND
     1    45    44   ar
     2    46    44   ar
     3    44    43    1
     4    43    42    1
     5    42    39    1
     6    47    40   ar
     7    13    12   ar
     8    40    39    1
     9    40    41   ar
    10    14    12   ar
    11    39    38    1
    12    12    11    1
    13    38    33   am
    14    11    10    1
    15    33    34    2
    16    33    32    1
    17    10     7    1
    18     9     8    2
    19    32    35    1
    20    32    31    1
    21     7     8    1
    22     7     6    1
    23    35    36    1
    24    35    37    1
    25    26    25    2
    26     8    15   am
    27     4     3    2
    28     6     3   am
    29    31    25   am
    30    25    24    1
    31     3     2    1
    32    15    16    1
    33     1     2    1
    34    23    24    1
    35    23    17   am
    36     2     5    1
    37    24    27    1
    38    16    17    1
    39    16    19    1
    40    27    28    1
    41    17    18    2
    42    28    29   ar
    43    28    30   ar
    44    19    20    1
    45    21    20   ar
    46    20    22   ar
