@<TRIPOS>MOLECULE
4app_N53_A_1.pdb
 42 47 0 0 0
SMALL
GASTEIGER

@<TRIPOS>ATOM
      1  C1        43.2970   13.0820   16.4660 C.ar  601  N53601      0.1453
      2  C2        42.4090   12.6690   15.4230 C.ar  601  N53601      0.0375
      3  C3        42.6410   11.4420   14.7340 C.ar  601  N53601      0.0031
      4  C4        43.7540   10.6280   15.1120 C.ar  601  N53601      0.0002
      5  C5        44.6330   11.0130   16.1680 C.ar  601  N53601      0.0031
      6  C6        44.4010   12.2400   16.8500 C.ar  601  N53601      0.0375
      7  C7        43.6170   16.7380   19.8680 C.ar  601  N53601      0.0851
      8  C8        43.5660   16.1780   18.5600 C.ar  601  N53601      0.0444
      9  C9        43.1560   14.8210   18.3800 C.ar  601  N53601      0.1455
     10  C10       42.8140   14.0180   19.5230 C.ar  601  N53601      0.0375
     11  C11       42.8880   14.5680   20.8330 C.ar  601  N53601      0.0034
     12  C12       43.2960   15.9270   21.0040 C.ar  601  N53601      0.0072
     13  C13       47.8650   24.8880   15.2130 C.ar  601  N53601     -0.0205
     14  C14       47.3020   25.9770   14.4670 C.ar  601  N53601     -0.0042
     15  C15       48.1540   26.8490   13.7240 C.ar  601  N53601     -0.0003
     16  C16       49.5650   26.6190   13.7190 C.ar  601  N53601     -0.0000
     17  C17       50.1350   25.5210   14.4440 C.ar  601  N53601     -0.0003
     18  C18       49.2770   24.6490   15.1860 C.ar  601  N53601     -0.0042
     19  N19       44.8420   23.1800   16.8690 N.am  601  N53601     -0.2623
     20  C20       45.5400   23.8910   15.7840 C.3   601  N53601      0.0971
     21  C21       45.1970   23.1900   14.4210 C.3   601  N53601      0.0926
     22  N22       43.7370   23.2920   14.2110 N.3   601  N53601     -0.2686
     23  C23       43.0240   22.5940   15.3160 C.3   601  N53601      0.0940
     24  C24       43.3730   23.2540   16.6460 C.3   601  N53601      0.1122
     25  C25       44.6610   22.1890   21.4250 C.2   601  N53601      0.1303
     26  C26       44.6420   21.4570   19.2190 C.2   601  N53601      0.0782
     27  N27       44.9480   22.9280   19.2950 N.am  601  N53601     -0.2396
     28  C28       45.0810   23.4450   20.6920 C.3   601  N53601      0.1051
     29  N29       44.4170   21.9670   22.7200 N.2   601  N53601     -0.0366
     30  N30       44.0530   20.6190   22.8170 N.2   601  N53601      0.0844
     31  C31       44.0800   20.0820   21.5780 C.2   601  N53601      0.3979
     32  C32       46.5210   23.8950   21.0310 C.3   601  N53601      0.0266
     33  C33       44.0830   24.5670   21.0540 C.3   601  N53601      0.0266
     34  C34       45.0730   23.7350   18.2230 C.2   601  N53601      0.3112
     35  O35       45.3930   24.9220   18.3540 O.2   601  N53601     -0.2520
     36  C36       43.3480   22.8160   12.8740 C.3   601  N53601      0.0897
     37  C37       47.0550   24.0340   16.1100 C.3   601  N53601      0.0476
     38  N38       43.7260   18.6760   21.2410 N.am  601  N53601      0.0385
     39  C39       44.0210   18.1340   20.0520 C.2   601  N53601      0.3757
     40  O40       44.6070   18.7770   19.1880 O.2   601  N53601     -0.2377
     41  O41       43.0400   14.4090   16.9850 O.3   601  N53601     -0.4535
     42  C42       44.4610   21.0830   20.6400 C.2   601  N53601      0.1224
@<TRIPOS>BOND
     1    36    22    1
     2    16    15   ar
     3    16    17   ar
     4    15    14   ar
     5    22    21    1
     6    22    23    1
     7    21    20    1
     8    17    18   ar
     9    14    13   ar
    10     3     4   ar
    11     3     2   ar
    12     4     5   ar
    13    18    13   ar
    14    13    37    1
    15    23    24    1
    16     2     1   ar
    17    20    37    1
    18    20    19    1
    19     5     6   ar
    20     1     6   ar
    21     1    41    1
    22    24    19    1
    23    19    34   am
    24    41     9    1
    25    34    35    2
    26    34    27   am
    27     9     8   ar
    28     9    10   ar
    29     8     7   ar
    30    40    39    2
    31    26    27    1
    32    26    42    2
    33    27    28    1
    34    10    11   ar
    35     7    39    1
    36     7    12   ar
    37    39    38   am
    38    42    25    1
    39    42    31    1
    40    28    32    1
    41    28    33    1
    42    28    25    1
    43    11    12   ar
    44    38    31    1
    45    25    29    2
    46    31    30    2
    47    29    30    1
