@<TRIPOS>MOLECULE
4apr_III_I_1.pdb
 47 49 0 0 0
SMALL
GASTEIGER

@<TRIPOS>ATOM
      1  N         36.9510   72.2800  101.7050 N.3     3  PRO3       -0.2102
      2  CA        37.3920   71.0320  101.0490 C.3     3  PRO3        0.1504
      3  C         38.5910   70.4070  101.7510 C.2     3  PRO3        0.2576
      4  O         39.5280   71.1150  102.2000 O.2     3  PRO3       -0.2718
      5  CB        37.6970   71.4280   99.6020 C.3     3  PRO3        0.0282
      6  CG        38.0230   72.8840   99.6630 C.3     3  PRO3        0.0208
      7  CD        37.2270   73.4320  100.8490 C.3     3  PRO3        0.0893
      8  N         38.6040   69.0850  101.8220 N.am    4  PHE4       -0.1963
      9  CA        39.7190   68.3490  102.4750 C.3     4  PHE4        0.1771
     10  C         40.6060   67.7520  101.3930 C.2     4  PHE4        0.2620
     11  O         40.1490   67.6740  100.2360 O.2     4  PHE4       -0.2715
     12  CB        39.0810   67.3360  103.4210 C.3     4  PHE4        0.0574
     13  CG        38.4240   67.8660  104.6520 C.ar    4  PHE4       -0.0200
     14  CD1       38.6590   67.2000  105.8600 C.ar    4  PHE4       -0.0042
     15  CD2       37.6110   68.9850  104.7100 C.ar    4  PHE4       -0.0042
     16  CE1       38.1150   67.6310  107.0620 C.ar    4  PHE4       -0.0003
     17  CE2       37.0350   69.4410  105.8940 C.ar    4  PHE4       -0.0003
     18  CZ        37.2790   68.7510  107.0900 C.ar    4  PHE4       -0.0000
     19  N         41.8070   67.3510  101.7190 N.am    5  HIS5       -0.1959
     20  CA        42.7740   66.7050  100.7910 C.3     5  HIS5        0.1784
     21  C         43.6640   65.9140  101.7730 C.2     5  HIS5        0.2616
     22  O         44.7060   66.3910  102.2220 O.2     5  HIS5       -0.2715
     23  CB        43.5410   67.5610   99.7990 C.3     5  HIS5        0.0745
     24  CG        44.5530   66.8700   98.9400 C.2     5  HIS5        0.0653
     25  ND1       44.5080   65.5460   98.5790 N.2     5  HIS5       -0.2310
     26  CD2       45.6800   67.3470   98.3450 C.3     5  HIS5        0.1683
     27  CE1       45.5470   65.2180   97.8190 C.2     5  HIS5        0.1939
     28  NE2       46.2630   66.3070   97.6560 N.2     5  HIS5       -0.2440
     29  N         43.1470   64.7610  102.0880 N.am    6  STA6       -0.2031
     30  CA        43.5790   63.7370  103.0370 C.3     6  STA6        0.1261
     31  CB        42.4700   63.7080  104.0560 C.3     6  STA6        0.0243
     32  CG        42.5510   64.3940  105.4170 C.3     6  STA6        0.0018
     33  CD1       43.3140   65.7350  105.4240 C.3     6  STA6        0.0001
     34  CD2       41.0970   64.7170  105.8950 C.3     6  STA6        0.0001
     35  CH        44.0000   62.4350  102.3550 C.3     6  STA6        0.1809
     36  OH        42.8490   61.7000  101.9220 O.3     6  STA6       -0.2208
     37  CM        44.9070   62.6430  101.1580 C.3     6  STA6        0.1214
     38  C         46.2820   63.1000  101.6630 C.2     6  STA6        0.2440
     39  O         46.3700   64.0540  102.3940 O.2     6  STA6       -0.2733
     40  N         47.1800   62.1510  101.5030 N.am    7  LEU7       -0.2044
     41  CA        48.6240   62.2560  101.4150 C.3     7  LEU7        0.1282
     42  C         49.1180   63.0180  100.1640 C.3     7  LEU7        0.2035
     43  O         50.3280   63.3630  100.2430 O.3     7  LEU7       -0.2185
     44  CB        49.2340   60.8460  101.4980 C.3     7  LEU7        0.0244
     45  CG        49.3060   60.0850  102.8000 C.3     7  LEU7        0.0018
     46  CD1       50.4320   59.0470  102.6870 C.3     7  LEU7        0.0001
     47  CD2       49.6190   61.0120  103.9770 C.3     7  LEU7        0.0001
@<TRIPOS>BOND
     1    28    27    2
     2    28    26    1
     3    27    25    1
     4    26    24    1
     5    25    24    2
     6    24    23    1
     7     5     6    1
     8     5     2    1
     9     6     7    1
    10    23    20    1
    11    42    43    1
    12    42    41    1
    13    11    10    2
    14    20    19    1
    15    20    21    1
    16     7     1    1
    17     2     1    1
    18     2     3    1
    19    37    38    1
    20    37    35    1
    21    10    19   am
    22    10     9    1
    23    41    44    1
    24    41    40    1
    25    44    45    1
    26    40    38   am
    27    38    39    2
    28     3     8   am
    29     3     4    2
    30    21    29   am
    31    21    22    2
    32     8     9    1
    33    36    35    1
    34    29    30    1
    35    35    30    1
    36     9    12    1
    37    46    45    1
    38    45    47    1
    39    30    31    1
    40    12    13    1
    41    31    32    1
    42    13    15   ar
    43    13    14   ar
    44    15    17   ar
    45    32    33    1
    46    32    34    1
    47    14    16   ar
    48    17    18   ar
    49    16    18   ar
