@<TRIPOS>MOLECULE
4apu_A2K_B_1.pdb
 38 44 0 0 0
SMALL
GASTEIGER

@<TRIPOS>ATOM
      1  O33        9.5080    8.2060   37.6920 O.2   1933  A2K1933    -0.2913
      2  C1         8.9740    7.5450   38.5860 C.2   1933  A2K1933     0.1731
      3  C4         9.8020    6.7810   39.5170 C.2   1933  A2K1933     0.0329
      4  C20        9.2730    6.0510   40.5010 C.2   1933  A2K1933    -0.0239
      5  C6        10.2780    5.3180   41.3370 C.3   1933  A2K1933     0.0264
      6  C19        7.9420    5.9180   40.7120 C.2   1933  A2K1933    -0.0332
      7  C5         7.0110    6.3230   39.5770 C.3   1933  A2K1933     0.0335
      8  C3         7.4760    7.5220   38.7650 C.3   1933  A2K1933     0.0738
      9  C8         7.4540    5.3760   41.8610 C.2   1933  A2K1933    -0.0450
     10  C11        5.9700    5.1340   42.1470 C.3   1933  A2K1933     0.0402
     11  C10        5.6440    5.6390   43.5730 C.3   1933  A2K1933     0.0088
     12  C12        6.5650    5.0780   44.6680 C.3   1933  A2K1933     0.0078
     13  C16        6.5080    3.5560   44.8510 C.3   1933  A2K1933     0.0005
     14  C13        7.9610    5.5090   44.2990 C.3   1933  A2K1933     0.0045
     15  C14        8.7890    5.1720   45.5310 C.3   1933  A2K1933     0.0051
     16  C9         8.4260    4.9580   42.9600 C.3   1933  A2K1933     0.0186
     17  C7         9.8510    5.4760   42.7590 C.3   1933  A2K1933     0.0087
     18  C15        6.4430    5.7170   46.0400 C.3   1933  A2K1933     0.0616
     19  C22        5.3430    5.0900   46.8470 C.2   1933  A2K1933     0.1501
     20  O24        5.5520    4.2430   47.6870 O.2   1933  A2K1933    -0.2961
     21  C23        3.9470    5.5080   46.5610 C.3   1933  A2K1933     0.0576
     22  C31        2.9220    4.3900   46.7160 C.3   1933  A2K1933     0.0078
     23  C30        2.9880    5.5190   47.7400 C.3   1933  A2K1933     0.0078
     24  C2         7.8290    5.5350   46.6600 C.3   1933  A2K1933     0.0289
     25  C39        8.2710    6.8190   47.3300 C.2   1933  A2K1933    -0.0261
     26  C40        8.8790    6.7580   48.4950 C.2   1933  A2K1933    -0.0049
     27  C21        5.6090    3.6810   42.0120 C.ar  1933  A2K1933    -0.0188
     28  C29        4.4880    3.1300   42.6530 C.ar  1933  A2K1933    -0.0040
     29  C28        4.1860    1.7680   42.5280 C.ar  1933  A2K1933    -0.0003
     30  C27        4.9650    0.9100   41.7390 C.ar  1933  A2K1933     0.0015
     31  C26        6.0680    1.4570   41.0840 C.ar  1933  A2K1933    -0.0003
     32  C25        6.3850    2.8120   41.2250 C.ar  1933  A2K1933    -0.0040
     33  C32        4.6720   -0.5400   41.6450 C.ar  1933  A2K1933     0.0192
     34  C38        5.7090   -1.4380   41.4280 C.ar  1933  A2K1933     0.0988
     35  N37        5.5140   -2.7500   41.3420 N.ar  1933  A2K1933    -0.2423
     36  C36        4.3120   -3.2890   41.4870 C.ar  1933  A2K1933     0.0989
     37  C35        3.2230   -2.4620   41.7100 C.ar  1933  A2K1933     0.0207
     38  C34        3.4020   -1.0750   41.8050 C.ar  1933  A2K1933     0.0031
@<TRIPOS>BOND
     1     1     2    2
     2     2     8    1
     3     2     3    1
     4     8     7    1
     5     3     4    2
     6     7     6    1
     7     4     6    1
     8     4     5    1
     9     6     9    2
    10    31    32   ar
    11    31    30   ar
    12    32    27   ar
    13     5    17    1
    14    35    34   ar
    15    35    36   ar
    16    34    33   ar
    17    36    37   ar
    18    33    30    1
    19    33    38   ar
    20    37    38   ar
    21    30    29   ar
    22     9    10    1
    23     9    16    1
    24    27    10    1
    25    27    28   ar
    26    10    11    1
    27    29    28   ar
    28    17    16    1
    29    16    14    1
    30    11    12    1
    31    14    12    1
    32    14    15    1
    33    12    13    1
    34    12    18    1
    35    15    24    1
    36    18    24    1
    37    18    19    1
    38    21    22    1
    39    21    19    1
    40    21    23    1
    41    24    25    1
    42    22    23    1
    43    19    20    2
    44    25    26    2
