@<TRIPOS>MOLECULE
4apu_OR8_A_1.pdb
 26 28 0 0 0
SMALL
GASTEIGER

@<TRIPOS>ATOM
      1 CL          1.4440   14.4820   12.5820 Cl    1933  OR81933    -0.0603
      2  C18       -0.2990   14.2110   12.0490 C.ar  1933  OR81933     0.1547
      3  N19       -0.8670   13.1610   11.4770 N.ar  1933  OR81933    -0.2372
      4  C26       -0.4060   11.8190   11.0460 C.3   1933  OR81933     0.1548
      5  N20       -2.2330   13.4390   11.2500 N.ar  1933  OR81933    -0.1714
      6  C21       -2.5060   14.6880   11.6830 C.ar  1933  OR81933     0.0999
      7  C24       -3.8560   15.3360   11.6100 C.3   1933  OR81933     0.0555
      8  C15       -1.3200   15.2210   12.1970 C.ar  1933  OR81933     0.1665
      9  S14       -1.0740   16.7220   12.8760 S.O2  1933  OR81933     0.0806
     10  O16       -2.3330   16.9400   13.4830 O.2   1933  OR81933    -0.1515
     11  O17       -0.0880   16.7990   13.9210 O.2   1933  OR81933    -0.1515
     12  N13       -0.6410   17.8220   11.7660 N.3   1933  OR81933    -0.0728
     13  C12       -1.1890   17.9590   10.4020 C.3   1933  OR81933     0.1418
     14  C5        -0.9950   16.7410    9.5100 C.ar  1933  OR81933    -0.0029
     15  C6         0.2040   16.0250    9.4720 C.ar  1933  OR81933    -0.0028
     16  C1         0.3290   14.9120    8.6490 C.ar  1933  OR81933    -0.0001
     17  C4        -2.0670   16.3430    8.7180 C.ar  1933  OR81933    -0.0028
     18  C3        -1.9480   15.2280    7.9270 C.ar  1933  OR81933    -0.0001
     19  C2        -0.7610   14.5130    7.9020 C.ar  1933  OR81933     0.0039
     20  C7        -0.7380   13.3640    6.9960 C.ar  1933  OR81933     0.0496
     21  C11       -1.7500   12.3040    7.0130 C.ar  1933  OR81933     0.1544
     22  C22       -2.9680   12.0360    7.8500 C.3   1933  OR81933     0.0754
     23  O10       -1.3910   11.5030    6.0030 O.2   1933  OR81933    -0.3581
     24  N9        -0.2630   11.9120    5.3610 N.ar  1933  OR81933    -0.0817
     25  C8         0.1500   13.0650    5.9580 C.ar  1933  OR81933     0.1006
     26  C23        1.3460   13.8980    5.5860 C.3   1933  OR81933     0.0556
@<TRIPOS>BOND
     1    24    25   ar
     2    24    23   ar
     3    26    25    1
     4    25    20   ar
     5    23    21   ar
     6    20    21   ar
     7    20    19    1
     8    21    22    1
     9    19    18   ar
    10    19    16   ar
    11    18    17   ar
    12    16    15   ar
    13    17    14   ar
    14    15    14   ar
    15    14    13    1
    16    13    12    1
    17     4     3    1
    18     5     3   ar
    19     5     6   ar
    20     3     2   ar
    21     7     6    1
    22     6     8   ar
    23    12     9    1
    24     2     8   ar
    25     2     1    1
    26     8     9    1
    27     9    10    2
    28     9    11    2
