@<TRIPOS>MOLECULE
4apy_HEM_A_1.pdb
 43 50 0 0 0
SMALL
GASTEIGER

@<TRIPOS>ATOM
      1  CHA       35.6600   -9.7450   36.8150 C.2   1418  HEM1418     0.0000
      2  CHB       32.6140  -10.7780   33.1540 C.2   1418  HEM1418     0.0000
      3  CHC       31.4000   -6.1390   33.0740 C.2   1418  HEM1418     0.0000
      4  CHD       34.6250   -5.0230   36.5380 C.2   1418  HEM1418     0.0000
      5  C1A       34.9610  -10.4120   35.8380 C.ar  1418  HEM1418     0.0000
      6  C2A       35.0370  -11.8320   35.5850 C.ar  1418  HEM1418     0.0000
      7  C3A       34.1710  -12.0870   34.5900 C.ar  1418  HEM1418     0.0000
      8  C4A       33.5310  -10.8600   34.1700 C.ar  1418  HEM1418     0.0000
      9  CMA       33.9020  -13.3990   33.8200 C.3   1418  HEM1418     0.0000
     10  CAA       35.9590  -12.9020   36.2810 C.3   1418  HEM1418     0.0000
     11  CBA       35.0690  -13.7400   37.1630 C.3   1418  HEM1418     0.0000
     12  CGA       35.8340  -14.8440   37.8920 C.2   1418  HEM1418     0.0000
     13  O1A       37.0840  -15.0120   37.6490 O.co2 1418  HEM1418     0.0000
     14  O2A       35.1150  -15.5490   38.7020 O.co2 1418  HEM1418     0.0000
     15  C1B       32.0590   -9.5800   32.8210 C.2   1418  HEM1418     0.0000
     16  C2B       31.0640   -9.4240   31.8010 C.2   1418  HEM1418     0.0000
     17  C3B       30.7240   -8.1210   31.7680 C.2   1418  HEM1418     0.0000
     18  C4B       31.4970   -7.4690   32.7960 C.2   1418  HEM1418     0.0000
     19  CMB       30.5680  -10.5910   30.8730 C.3   1418  HEM1418     0.0000
     20  CAB       29.7060   -7.3410   30.8590 C.2   1418  HEM1418     0.0000
     21  CBB       28.5800   -7.9100   30.3390 C.2   1418  HEM1418     0.0000
     22  C1C       32.1860   -5.4610   34.0130 C.ar  1418  HEM1418     0.0000
     23  C2C       32.0620   -4.0380   34.2930 C.ar  1418  HEM1418     0.0000
     24  C3C       32.9450   -3.7460   35.2150 C.ar  1418  HEM1418     0.0000
     25  C4C       33.6470   -4.9720   35.5790 C.ar  1418  HEM1418     0.0000
     26  CMC       31.0580   -3.0240   33.6680 C.3   1418  HEM1418     0.0000
     27  CAC       33.1700   -2.3810   35.8770 C.2   1418  HEM1418     0.0000
     28  CBC       33.1820   -1.1650   35.2910 C.2   1418  HEM1418     0.0000
     29  C1D       35.2480   -6.1760   36.8920 C.2   1418  HEM1418     0.0000
     30  C2D       36.2810   -6.2590   37.8340 C.2   1418  HEM1418     0.0000
     31  C3D       36.6110   -7.7160   37.9360 C.2   1418  HEM1418     0.0000
     32  C4D       35.6980   -8.3830   37.0430 C.2   1418  HEM1418     0.0000
     33  CMD       36.9770   -5.1460   38.5470 C.3   1418  HEM1418     0.0000
     34  CAD       37.7470   -8.3310   38.8090 C.3   1418  HEM1418     0.0000
     35  CBD       37.0840   -8.7770   40.1410 C.3   1418  HEM1418     0.0000
     36  CGD       38.1260   -9.5180   40.9790 C.2   1418  HEM1418     0.0000
     37  O1D       39.0950  -10.0320   40.3900 O.co2 1418  HEM1418     0.0000
     38  O2D       38.0300   -9.6600   42.2320 O.co2 1418  HEM1418     0.0000
     39  NA        34.0070   -9.8420   34.9660 N.ar  1418  HEM1418     0.0000
     40  NB        32.3160   -8.3700   33.4470 N.2   1418  HEM1418     0.0000
     41  NC        33.1290   -6.0120   34.8600 N.ar  1418  HEM1418     0.0000
     42  ND        34.8990   -7.4410   36.4480 N.2   1418  HEM1418     0.0000
     43 FE         33.4990   -7.9160   34.9500 Fe    1418  HEM1418     0.0000
@<TRIPOS>BOND
     1    21    20    2
     2    20    17    1
     3    19    16    1
     4    17    16    2
     5    17    18    1
     6    16    15    1
     7    18     3    2
     8    18    40    1
     9    15     2    1
    10    15    40    2
    11     3    22    1
    12     2     8    2
    13    40    43    1
    14    26    23    1
    15     9     7    1
    16    22    23   ar
    17    22    41   ar
    18     8     7   ar
    19     8    39   ar
    20    23    24   ar
    21     7     6   ar
    22    41    43    1
    23    41    25   ar
    24    43    39    1
    25    43    42    1
    26    39     5   ar
    27    24    25   ar
    28    24    27    1
    29    28    27    2
    30    25     4    1
    31     6     5   ar
    32     6    10    1
    33     5     1    2
    34    10    11    1
    35    42    29    1
    36    42    32    2
    37     4    29    2
    38     1    32    1
    39    29    30    1
    40    32    31    1
    41    11    12    1
    42    13    12   ar
    43    30    31    2
    44    30    33    1
    45    12    14   ar
    46    31    34    1
    47    34    35    1
    48    35    36    1
    49    37    36   ar
    50    36    38   ar
