@<TRIPOS>MOLECULE
4aq0_DMJ_B_1.pdb
 11 11 0 0 0
SMALL
GASTEIGER

@<TRIPOS>ATOM
      1  C4         0.4320   27.2790  146.9920 C.3   1773  DMJ1773     0.2031
      2  O4         0.4410   25.8720  146.7390 O.3   1773  DMJ1773    -0.2187
      3  C3        -0.5690   27.9510  146.0350 C.3   1773  DMJ1773     0.2151
      4  O3         0.0400   28.0920  144.7450 O.3   1773  DMJ1773    -0.2176
      5  C2        -1.0670   29.3460  146.4510 C.3   1773  DMJ1773     0.2020
      6  O2        -0.1420   30.3500  145.9830 O.3   1773  DMJ1773    -0.2188
      7  C1        -1.2810   29.5070  147.9550 C.3   1773  DMJ1773     0.1243
      8  N5        -0.1520   28.9320  148.6590 N.3   1773  DMJ1773    -0.2113
      9  C5         0.1000   27.5210  148.4670 C.3   1773  DMJ1773     0.1386
     10  C6         1.1640   27.0170  149.4490 C.3   1773  DMJ1773     0.2020
     11  O6         2.4010   27.7250  149.3060 O.3   1773  DMJ1773    -0.2188
@<TRIPOS>BOND
     1     4     3    1
     2     6     5    1
     3     3     5    1
     4     3     1    1
     5     5     7    1
     6     2     1    1
     7     1     9    1
     8     7     8    1
     9     9     8    1
    10     9    10    1
    11    11    10    1
