@<TRIPOS>MOLECULE
4aq4_G3P_A_1.pdb
 10 9 0 0 0
SMALL
GASTEIGER

@<TRIPOS>ATOM
      1  O1        44.8840   26.3180  179.1960 O.3   1415  G3P1415    -0.2175
      2  C1        44.4610   25.0030  178.9720 C.3   1415  G3P1415     0.2174
      3  C2        42.9800   24.7700  178.8740 C.3   1415  G3P1415     0.2147
      4  O2        42.4730   25.4150  177.7500 O.3   1415  G3P1415    -0.2176
      5  C3        42.6810   23.3030  178.7210 C.3   1415  G3P1415     0.1892
      6  O1P       43.3010   22.6640  177.6380 O.3   1415  G3P1415    -0.2674
      7  O4P       42.6290   20.3520  178.2570 O.3   1415  G3P1415    -0.1145
      8  O2P       43.7830   20.7740  176.1200 O.2   1415  G3P1415    -0.2224
      9  O3P       41.4050   21.5210  176.4430 O.3   1415  G3P1415    -0.1145
     10  P         42.7500   21.3120  177.1010 P.3   1415  G3P1415     0.5327
@<TRIPOS>BOND
     1     8    10    2
     2     9    10    1
     3    10     6    1
     4    10     7    1
     5     6     5    1
     6     4     3    1
     7     5     3    1
     8     3     2    1
     9     2     1    1
