@<TRIPOS>MOLECULE
4aq7_LMS_A_1.pdb
 23 25 0 0 0
SMALL
GASTEIGER

@<TRIPOS>ATOM
      1  N9       -33.3340    8.8870  -76.9360 N.pl3 901  LMS901     -0.1439
      2  C8       -32.7960    9.8780  -76.2070 C.3   901  LMS901      0.3377
      3  N7       -33.7420   10.7620  -75.8340 N.2   901  LMS901     -0.2095
      4  C5       -34.8590   10.2670  -76.3090 C.2   901  LMS901      0.2526
      5  C6       -36.1450   10.7000  -76.2550 C.2   901  LMS901      0.4393
      6  N6       -36.4200   11.8160  -75.5680 N.pl3 901  LMS901      0.2180
      7  N1       -37.1150   10.0200  -76.8730 N.2   901  LMS901      0.0021
      8  C2       -36.8350    8.8990  -77.5220 C.3   901  LMS901      0.5254
      9  N3       -35.5940    8.4470  -77.5940 N.2   901  LMS901     -0.0055
     10  C4       -34.5980    9.1090  -76.9870 C.2   901  LMS901      0.3518
     11  N        -27.3910    9.2650  -76.0840 N.3   901  LMS901      0.0391
     12  S        -28.7150    9.4770  -75.3140 S.3   901  LMS901      0.0828
     13  O1P      -28.4690    9.1470  -73.9200 O.3   901  LMS901     -0.0529
     14  O2P      -29.3170   10.8250  -75.4980 O.3   901  LMS901     -0.0529
     15  O5'      -29.7640    8.5200  -75.9190 O.3   901  LMS901     -0.2246
     16  C5'      -29.6260    7.0880  -75.9910 C.3   901  LMS901      0.2061
     17  C4'      -30.6470    6.5920  -76.9990 C.3   901  LMS901      0.1842
     18  O4'      -31.9690    6.9420  -76.6120 O.3   901  LMS901     -0.3135
     19  C3'      -30.5130    7.1990  -78.3770 C.3   901  LMS901      0.2185
     20  O3'      -30.8920    6.2360  -79.3370 O.3   901  LMS901     -0.2174
     21  C2'      -31.5600    8.2630  -78.4670 C.3   901  LMS901      0.2570
     22  O2'      -32.0000    8.4610  -79.7940 O.3   901  LMS901     -0.2130
     23  C1'      -32.6570    7.7460  -77.5710 C.3   901  LMS901      0.3186
@<TRIPOS>BOND
     1    22    21    1
     2    20    19    1
     3    21    19    1
     4    21    23    1
     5    19    17    1
     6     9     8    1
     7     9    10    2
     8    23     1    1
     9    23    18    1
    10     8     7    1
    11    17    18    1
    12    17    16    1
    13    10     1    1
    14    10     4    1
    15     1     2    1
    16     7     5    2
    17     4     5    1
    18     4     3    2
    19     5     6    1
    20     2     3    1
    21    11    12    1
    22    16    15    1
    23    15    12    1
    24    14    12    1
    25    12    13    1
