@<TRIPOS>MOLECULE
4aqc_88A_A_1.pdb
 32 36 0 0 0
SMALL
GASTEIGER

@<TRIPOS>ATOM
      1  O2       110.3650   62.6770    8.3940 O.2   2001  88A2001    -0.1686
      2  S        111.1590   62.7640    7.1560 S.O2  2001  88A2001     0.0104
      3  O1       111.4280   61.6220    6.2860 O.2   2001  88A2001    -0.1686
      4  C1       110.2570   63.9630    6.1310 C.3   2001  88A2001     0.1816
      5  C21      112.6780   63.5930    7.4960 C.ar  2001  88A2001     0.1057
      6  C20      113.0510   63.8360    8.8120 C.ar  2001  88A2001     0.0183
      7  C19      114.2650   64.4980    9.0330 C.ar  2001  88A2001     0.0014
      8  C22      113.4510   63.9860    6.4020 C.ar  2001  88A2001     0.0183
      9  C23      114.6390   64.6630    6.6400 C.ar  2001  88A2001     0.0014
     10  C18      115.0720   64.8990    7.9580 C.ar  2001  88A2001     0.0039
     11  C2       116.3580   65.6140    8.1700 C.2   2001  88A2001     0.0469
     12  C6       116.5600   66.3780    9.3460 C.2   2001  88A2001     0.2194
     13  N3       115.8510   66.6090   10.4290 N.2   2001  88A2001    -0.3178
     14  C7       116.6160   67.4320   11.1610 C.1   2001  88A2001     0.1864
     15  N2       117.7950   67.7300   10.6780 N.2   2001  88A2001    -0.0904
     16  N1       117.7650   67.0780    9.4870 N.pl3 2001  88A2001    -0.1504
     17  C5       118.7230   67.0660    8.5370 C.2   2001  88A2001     0.0928
     18  C4       118.5420   66.3330    7.4020 C.2   2001  88A2001     0.0183
     19  C3       117.3600   65.5880    7.2090 C.2   2001  88A2001     0.0053
     20  N4       116.1790   67.8910   12.3870 N.pl3 2001  88A2001    -0.1347
     21  C8       115.1190   67.6440   13.1390 C.ar  2001  88A2001     0.0827
     22  C13      114.0090   66.9130   12.6520 C.ar  2001  88A2001     0.0186
     23  C12      112.9250   66.6520   13.4840 C.ar  2001  88A2001     0.0159
     24  C11      112.8940   67.1210   14.8050 C.ar  2001  88A2001     0.0481
     25  C10      113.9930   67.8720   15.2790 C.ar  2001  88A2001     0.0159
     26  C9       115.0950   68.1100   14.4530 C.ar  2001  88A2001     0.0186
     27  N5       111.8360   66.8500   15.5890 N.pl3 2001  88A2001    -0.3028
     28  C17      111.0580   65.5960   15.4290 C.3   2001  88A2001     0.1231
     29  C16      110.2900   65.0560   16.6590 C.3   2001  88A2001     0.1636
     30  O3       109.9730   66.0590   17.6290 O.3   2001  88A2001    -0.3501
     31  C15      111.0760   66.9190   17.9140 C.3   2001  88A2001     0.1636
     32  C14      111.3740   67.7450   16.6620 C.3   2001  88A2001     0.1231
@<TRIPOS>BOND
     1     4     2    1
     2     3     2    2
     3     8     9   ar
     4     8     5   ar
     5     9    10   ar
     6     2     5    1
     7     2     1    2
     8    19    18    1
     9    19    11    2
    10    18    17    2
    11     5     6   ar
    12    10    11    1
    13    10     7   ar
    14    11    12    1
    15    17    16    1
    16     6     7   ar
    17    12    16    1
    18    12    13    2
    19    16    15    1
    20    13    14    2
    21    15    14    2
    22    14    20    1
    23    20    21    1
    24    22    21   ar
    25    22    23   ar
    26    21    26   ar
    27    23    24   ar
    28    26    25   ar
    29    24    25   ar
    30    24    27    1
    31    28    27    1
    32    28    29    1
    33    27    32    1
    34    29    30    1
    35    32    31    1
    36    30    31    1
