@<TRIPOS>MOLECULE
4aqd_FUL_A_1.pdb
 10 10 0 0 0
SMALL
GASTEIGER

@<TRIPOS>ATOM
      1  C1         4.0810  -32.9020  -16.4700 C.3   633  FUL633      0.1776
      2  C2         5.4840  -32.2860  -16.4130 C.3   633  FUL633      0.2141
      3  O2         5.9380  -31.7600  -17.6430 O.3   633  FUL633     -0.2176
      4  C3         5.4420  -31.1940  -15.3520 C.3   633  FUL633      0.2172
      5  O3         6.7060  -30.5730  -15.2380 O.3   633  FUL633     -0.2175
      6  C4         4.9950  -31.7890  -14.0130 C.3   633  FUL633      0.2116
      7  O4         6.0490  -32.5140  -13.4150 O.3   633  FUL633     -0.2177
      8  C5         3.7650  -32.6930  -14.1570 C.3   633  FUL633      0.1483
      9  C6         3.5260  -33.4910  -12.8820 C.3   633  FUL633      0.0349
     10  O5         3.8840  -33.5900  -15.2490 O.3   633  FUL633     -0.3508
@<TRIPOS>BOND
     1     3     2    1
     2     1     2    1
     3     1    10    1
     4     2     4    1
     5     4     5    1
     6     4     6    1
     7    10     8    1
     8     8     6    1
     9     8     9    1
    10     6     7    1
