@<TRIPOS>MOLECULE
4aqh_TB7_A_1.pdb
 23 25 0 0 0
SMALL
GASTEIGER

@<TRIPOS>ATOM
      1  C1       -22.2440    3.8840   -0.6640 C.3   1380  TB71380     0.0437
      2  C2       -23.2800    4.6880    0.0890 C.3   1380  TB71380     0.1378
      3  C3       -23.2910    6.0440   -0.5640 C.3   1380  TB71380     0.0437
      4  C4       -22.9250    4.8290    1.5800 C.3   1380  TB71380     0.0437
      5  O5       -24.6270    4.2200   -0.1180 O.3   1380  TB71380    -0.4418
      6  C6       -24.8710    2.8680   -0.0510 C.2   1380  TB71380     0.4047
      7  O7       -24.0780    2.0570    0.3970 O.2   1380  TB71380    -0.2262
      8  N8       -26.1380    2.5400   -0.5080 N.am  1380  TB71380    -0.2423
      9  C9       -26.9650    1.4830    0.1120 C.3   1380  TB71380     0.1209
     10  C10      -28.2020    2.2660   -0.3410 C.3   1380  TB71380     0.1453
     11  C11      -27.2950    3.4680   -0.6070 C.3   1380  TB71380     0.1209
     12  N12      -29.1470    2.5150    0.6910 N.pl3 1380  TB71380    -0.1489
     13  C13      -30.2460    1.6760    0.7910 C.1   1380  TB71380     0.2395
     14  N14      -31.0860    2.0530    1.8020 N.2   1380  TB71380    -0.2502
     15  C15      -32.2570    1.4190    2.1630 C.1   1380  TB71380     0.2262
     16  O16      -32.9960    1.7630    3.0890 O.2   1380  TB71380    -0.2078
     17  C17      -32.5650    0.2460    1.3290 C.2   1380  TB71380     0.1698
     18  C18      -33.7030   -0.4920    1.5670 C.2   1380  TB71380     0.0255
     19  C19      -33.9590   -1.5860    0.7540 C.2   1380  TB71380     0.0230
     20  C20      -33.0480   -1.8640   -0.2510 C.2   1380  TB71380     0.1106
     21  N21      -31.9310   -1.1450   -0.4890 N.2   1380  TB71380    -0.1810
     22  C22      -31.7050   -0.0950    0.3120 C.1   1380  TB71380     0.1132
     23  N23      -30.5350    0.6490    0.0500 N.2   1380  TB71380    -0.2707
@<TRIPOS>BOND
     1     1     2    1
     2    11     8    1
     3    11    10    1
     4     3     2    1
     5     8     6   am
     6     8     9    1
     7    21    20    1
     8    21    22    2
     9    10     9    1
    10    10    12    1
    11    20    19    2
    12     5     6    1
    13     5     2    1
    14     6     7    2
    15    23    22    2
    16    23    13    2
    17     2     4    1
    18    22    17    1
    19    12    13    1
    20    19    18    1
    21    13    14    2
    22    17    18    2
    23    17    15    1
    24    14    15    2
    25    15    16    2
