@<TRIPOS>MOLECULE
4aqk_I6P_A_1.pdb
 36 36 0 0 0
SMALL
GASTEIGER

@<TRIPOS>ATOM
      1  O44      -16.8400  -10.9410   -6.3080 O.3   500  I6P500     -0.1145
      2  P4       -17.3910   -9.9060   -7.2480 P.3   500  I6P500      0.5327
      3  O24      -16.5180   -9.6620   -8.4400 O.2   500  I6P500     -0.2224
      4  O34      -17.8690   -8.6230   -6.6120 O.3   500  I6P500     -0.1145
      5  O14      -18.7550  -10.5760   -7.7940 O.3   500  I6P500     -0.2675
      6  C4       -18.8770  -11.2650   -9.0360 C.3   500  I6P500      0.1863
      7  C3       -20.0480  -10.6630   -9.8230 C.3   500  I6P500      0.1863
      8  O13      -19.6970   -9.3250  -10.1460 O.3   500  I6P500     -0.2675
      9  P3       -20.7190   -8.0810  -10.0570 P.3   500  I6P500      0.5327
     10  O43      -21.2960   -7.9730  -11.4450 O.2   500  I6P500     -0.2224
     11  O33      -21.7630   -8.4180   -9.0160 O.3   500  I6P500     -0.1145
     12  O23      -19.7820   -6.9520   -9.6950 O.3   500  I6P500     -0.1145
     13  C5       -19.0400  -12.7610   -8.7720 C.3   500  I6P500      0.1863
     14  O15      -17.8090  -13.2320   -8.2280 O.3   500  I6P500     -0.2675
     15  P5       -17.6920  -14.1630   -6.9120 P.3   500  I6P500      0.5327
     16  O45      -16.3130  -14.7580   -6.9700 O.3   500  I6P500     -0.1145
     17  O35      -17.8720  -13.1510   -5.8170 O.3   500  I6P500     -0.1145
     18  O25      -18.7770  -15.2060   -7.0300 O.2   500  I6P500     -0.2224
     19  C6       -19.3780  -13.5380  -10.0530 C.3   500  I6P500      0.1863
     20  O16      -19.7050  -14.8780   -9.6990 O.3   500  I6P500     -0.2675
     21  P6       -19.1300  -16.2090  -10.4130 P.3   500  I6P500      0.5327
     22  O46      -18.7820  -17.1350   -9.2770 O.3   500  I6P500     -0.1145
     23  O36      -20.3020  -16.6950  -11.2290 O.2   500  I6P500     -0.2224
     24  O26      -17.9100  -15.7860  -11.1930 O.3   500  I6P500     -0.1145
     25  C1       -20.5600  -12.9110  -10.8080 C.3   500  I6P500      0.1863
     26  O11      -20.7810  -13.6250  -12.0240 O.3   500  I6P500     -0.2675
     27  P1       -22.2320  -14.0580  -12.5930 P.3   500  I6P500      0.5327
     28  O41      -23.1360  -12.8700  -12.3840 O.3   500  I6P500     -0.1145
     29  O31      -22.6310  -15.2710  -11.7960 O.3   500  I6P500     -0.1145
     30  O21      -21.8970  -14.3690  -14.0330 O.2   500  I6P500     -0.2224
     31  C2       -20.3450  -11.4230  -11.1130 C.3   500  I6P500      0.1863
     32  O12      -19.2710  -11.2310  -12.0410 O.3   500  I6P500     -0.2675
     33  P2       -19.3950  -10.3600  -13.4080 P.3   500  I6P500      0.5327
     34  O22      -19.6750  -11.4030  -14.4750 O.2   500  I6P500     -0.2224
     35  O32      -20.5070   -9.3670  -13.1940 O.3   500  I6P500     -0.1145
     36  O42      -18.0660   -9.6720  -13.5900 O.3   500  I6P500     -0.1145
@<TRIPOS>BOND
     1    34    33    2
     2    30    27    2
     3    36    33    1
     4    33    35    1
     5    33    32    1
     6    27    28    1
     7    27    26    1
     8    27    29    1
     9    32    31    1
    10    26    25    1
    11    10     9    2
    12    23    21    2
    13    24    21    1
    14    31    25    1
    15    31     7    1
    16    25    19    1
    17    21    20    1
    18    21    22    1
    19     8     9    1
    20     8     7    1
    21     9    12    1
    22     9    11    1
    23    19    20    1
    24    19    13    1
    25     7     6    1
    26     6    13    1
    27     6     5    1
    28    13    14    1
    29     3     2    2
    30    14    15    1
    31     5     2    1
    32     2     4    1
    33     2     1    1
    34    18    15    2
    35    16    15    1
    36    15    17    1
