@<TRIPOS>MOLECULE
4aqk_ADP_A_1.pdb
 27 29 0 0 0
SMALL
GASTEIGER

@<TRIPOS>ATOM
      1  O1A      -17.8800   -6.5190  -19.1090 O.2   600  ADP600     -0.5169
      2  PA       -18.7050   -7.7770  -19.0000 P.3   600  ADP600      0.2231
      3  O2A      -18.0910   -9.0260  -18.4090 O.3   600  ADP600     -0.4370
      4  O3A      -20.0780   -7.4100  -18.2200 O.3   600  ADP600     -0.2261
      5  PB       -20.2170   -7.3090  -16.6070 P.3   600  ADP600      0.5373
      6  O1B      -21.7000   -7.2620  -16.3430 O.2   600  ADP600     -0.2221
      7  O2B      -19.5710   -8.5750  -16.0860 O.3   600  ADP600     -0.1143
      8  O3B      -19.4950   -6.0340  -16.2470 O.3   600  ADP600     -0.1143
      9  O5'      -19.2360   -8.1660  -20.4710 O.3   600  ADP600     -0.3111
     10  C5'      -20.2720   -9.1320  -20.6470 C.3   600  ADP600      0.1813
     11  C4'      -19.9760  -10.0820  -21.8050 C.3   600  ADP600      0.1821
     12  C3'      -18.6660  -10.8180  -21.6000 C.3   600  ADP600      0.2184
     13  O3'      -18.9140  -12.1360  -21.1060 O.3   600  ADP600     -0.2174
     14  C2'      -17.9820  -10.8170  -22.9580 C.3   600  ADP600      0.2570
     15  O2'      -18.1100  -12.0690  -23.6310 O.3   600  ADP600     -0.2130
     16  C1'      -18.7010   -9.7690  -23.7780 C.3   600  ADP600      0.3186
     17  O4'      -19.8740   -9.3780  -23.0490 O.3   600  ADP600     -0.3135
     18  N9       -17.8140   -8.5980  -24.0120 N.pl3 600  ADP600     -0.1439
     19  C4       -17.0790   -8.3790  -25.1080 C.2   600  ADP600      0.3518
     20  C5       -16.3830   -7.0930  -24.8920 C.2   600  ADP600      0.2526
     21  N7       -16.7600   -6.6510  -23.6770 N.2   600  ADP600     -0.2095
     22  C8       -17.6240   -7.5660  -23.1670 C.3   600  ADP600      0.3377
     23  N3       -16.8640   -9.0460  -26.2740 N.2   600  ADP600     -0.0055
     24  C2       -16.0390   -8.5500  -27.2170 C.3   600  ADP600      0.5254
     25  N1       -15.3730   -7.3830  -27.0830 N.2   600  ADP600      0.0021
     26  C6       -15.4860   -6.6140  -25.9770 C.2   600  ADP600      0.4393
     27  N6       -14.8030   -5.4470  -25.8710 N.pl3 600  ADP600      0.2180
@<TRIPOS>BOND
     1    24    25    1
     2    24    23    1
     3    25    26    2
     4    23    19    2
     5    26    27    1
     6    26    20    1
     7    19    20    1
     8    19    18    1
     9    20    21    2
    10    18    16    1
    11    18    22    1
    12    16    17    1
    13    16    14    1
    14    21    22    1
    15    15    14    1
    16    17    11    1
    17    14    12    1
    18    11    12    1
    19    11    10    1
    20    12    13    1
    21    10     9    1
    22     9     2    1
    23     1     2    2
    24     2     3    1
    25     2     4    1
    26     4     5    1
    27     5     6    2
    28     5     8    1
    29     5     7    1
