@<TRIPOS>MOLECULE
4aql_TXC_A_1.pdb
 23 24 0 0 0
SMALL
GASTEIGER

@<TRIPOS>ATOM
      1  CG2       10.4530  -23.0710    0.7050 C.3   1452  TXC1452     0.0021
      2  CB        10.6930  -24.3400   -0.1210 C.3   1452  TXC1452     0.0285
      3  CG1       11.3800  -23.9910   -1.4620 C.3   1452  TXC1452     0.0021
      4  CA         9.4310  -25.2330   -0.2950 C.3   1452  TXC1452     0.1899
      5  N          9.0210  -25.2450   -1.7030 N.3   1452  TXC1452    -0.1210
      6  C          8.2210  -24.7970    0.5800 C.2   1452  TXC1452     0.3346
      7  O          7.8020  -23.6300    0.5260 O.2   1452  TXC1452    -0.2485
      8  OAO        7.5770  -25.7320    1.3870 O.3   1452  TXC1452    -0.4448
      9  CAI        6.2210  -25.2750    1.7730 C.3   1452  TXC1452     0.2404
     10  CAH        5.3810  -26.1780    2.6970 C.3   1452  TXC1452     0.1915
     11  OAN        5.6840  -25.9660    4.1050 O.3   1452  TXC1452    -0.3302
     12  CAJ        4.6010  -26.0920    5.0830 C.3   1452  TXC1452     0.2439
     13  N9         3.2440  -25.5590    4.7160 N.pl3 1452  TXC1452    -0.2341
     14  C8         2.8160  -24.2860    4.7750 C.3   1452  TXC1452     0.2246
     15  N7         1.5240  -24.2420    4.3630 N.2   1452  TXC1452    -0.2322
     16  C5         1.1390  -25.4950    4.0700 C.2   1452  TXC1452     0.2182
     17  C4         2.2520  -26.3420    4.2940 C.2   1452  TXC1452     0.2300
     18  N3         2.1980  -27.6610    4.1010 N.2   1452  TXC1452    -0.3074
     19  C2         1.0490  -28.2300    3.6340 C.1   1452  TXC1452     0.2531
     20  N2         1.0030  -29.5580    3.4360 N.pl3 1452  TXC1452    -0.0226
     21  N1        -0.1180  -27.4240    3.3870 N.2   1452  TXC1452    -0.2485
     22  C6        -0.0780  -26.0270    3.6030 C.1   1452  TXC1452     0.2372
     23  O6        -1.0630  -25.2980    3.3840 O.2   1452  TXC1452    -0.2069
@<TRIPOS>BOND
     1     5     4    1
     2     3     2    1
     3     4     2    1
     4     4     6    1
     5     2     1    1
     6     7     6    2
     7     6     8    1
     8     8     9    1
     9     9    10    1
    10    10    11    1
    11    23    22    2
    12    21    22    2
    13    21    19    2
    14    20    19    1
    15    22    16    1
    16    19    18    2
    17    16    17    1
    18    16    15    2
    19    18    17    2
    20    11    12    1
    21    17    13    1
    22    15    14    1
    23    13    14    1
    24    13    12    1
