@<TRIPOS>MOLECULE
4aqv_GTP_A_1.pdb
 32 34 0 0 0
SMALL
GASTEIGER

@<TRIPOS>ATOM
      1  PG        53.2460   49.5870   52.7250 P.3   501  GTP501      0.5373
      2  O1G       52.1460   50.5470   53.1660 O.3   501  GTP501     -0.1143
      3  O2G       53.2360   48.2960   53.5180 O.3   501  GTP501     -0.1143
      4  O3G       54.5390   50.3890   52.9240 O.2   501  GTP501     -0.2221
      5  O3B       53.0150   49.0790   51.1650 O.3   501  GTP501     -0.2258
      6  PB        51.7460   48.1860   50.6070 P.3   501  GTP501      0.2277
      7  O1B       51.1840   48.9740   49.4350 O.2   501  GTP501     -0.5168
      8  O2B       52.1480   46.8040   50.3860 O.3   501  GTP501     -0.4368
      9  O3A       50.6690   48.3340   51.6830 O.3   501  GTP501     -0.2700
     10  PA        49.3570   47.6310   52.0180 P.3   501  GTP501      0.2189
     11  O1A       49.5130   46.1640   52.0580 O.2   501  GTP501     -0.5170
     12  O2A       48.8160   48.2630   53.2550 O.3   501  GTP501     -0.4371
     13  O5'       48.3620   48.0830   50.7880 O.3   501  GTP501     -0.3112
     14  C5'       47.0620   47.5310   50.9020 C.3   501  GTP501      0.1813
     15  C4'       46.0930   47.9020   49.8240 C.3   501  GTP501      0.1799
     16  O4'       46.1920   46.9780   48.7100 O.3   501  GTP501     -0.3326
     17  C3'       44.6920   47.7430   50.3680 C.3   501  GTP501      0.2158
     18  O3'       43.8090   48.5890   49.6670 O.3   501  GTP501     -0.2175
     19  C2'       44.4280   46.2660   50.1360 C.3   501  GTP501      0.2310
     20  O2'       43.0190   46.0450   50.0140 O.3   501  GTP501     -0.2158
     21  C1'       45.1810   45.9650   48.8290 C.3   501  GTP501      0.2293
     22  N9        45.8400   44.6500   48.7630 N.pl3 501  GTP501     -0.2354
     23  C8        46.7900   44.1560   49.6240 C.3   501  GTP501      0.2246
     24  N7        47.2000   42.9560   49.3170 N.2   501  GTP501     -0.2322
     25  C5        46.4730   42.6250   48.1980 C.2   501  GTP501      0.2182
     26  C6        46.4740   41.4600   47.4330 C.1   501  GTP501      0.2372
     27  O6        47.1710   40.4640   47.6160 O.2   501  GTP501     -0.2069
     28  N1        45.5770   41.5060   46.3420 N.2   501  GTP501     -0.2485
     29  C2        44.7600   42.5760   46.0450 C.1   501  GTP501      0.2531
     30  N2        43.9840   42.4450   45.0080 N.pl3 501  GTP501     -0.0226
     31  N3        44.7390   43.6920   46.7710 N.2   501  GTP501     -0.3074
     32  C4        45.6160   43.6650   47.8270 C.2   501  GTP501      0.2300
@<TRIPOS>BOND
     1    30    29    1
     2    29    28    2
     3    29    31    2
     4    28    26    2
     5    31    32    2
     6    26    27    2
     7    26    25    1
     8    32    25    1
     9    32    22    1
    10    25    24    2
    11    16    21    1
    12    16    15    1
    13    22    21    1
    14    22    23    1
    15    21    19    1
    16    24    23    1
    17     7     6    2
    18    18    17    1
    19    15    17    1
    20    15    14    1
    21    20    19    1
    22    19    17    1
    23     8     6    1
    24     6     5    1
    25     6     9    1
    26    13    14    1
    27    13    10    1
    28     5     1    1
    29     9    10    1
    30    10    11    2
    31    10    12    1
    32     1     4    2
    33     1     2    1
    34     1     3    1
