@<TRIPOS>MOLECULE
4aqv_ANP_C_1.pdb
 31 33 0 0 0
SMALL
GASTEIGER

@<TRIPOS>ATOM
      1  PG        67.1630   82.3550   57.4930 P.3   500  ANP500      0.4884
      2  O1G       65.7130   82.5400   57.9460 O.3   500  ANP500     -0.1240
      3  O2G       68.0970   82.5600   58.6480 O.3   500  ANP500     -0.1240
      4  O3G       67.2840   80.9650   56.9160 O.2   500  ANP500     -0.2331
      5  PB        67.7450   84.9930   56.7450 P.3   500  ANP500      0.4669
      6  O1B       66.4130   85.5820   56.6340 O.2   500  ANP500     -0.2351
      7  O2B       68.4010   85.3400   58.1560 O.3   500  ANP500     -0.1253
      8  N3B       67.6650   83.3530   56.3260 N.3   500  ANP500     -0.0163
      9  PA        69.4030   86.6170   55.7130 P.3   500  ANP500      0.2220
     10  O1A       69.0070   87.9550   54.9840 O.2   500  ANP500     -0.5170
     11  O2A       70.7210   86.3390   56.3190 O.3   500  ANP500     -0.4370
     12  O3A       68.6120   85.3300   55.4780 O.3   500  ANP500     -0.2360
     13  O5'       69.9940   86.0990   54.1570 O.3   500  ANP500     -0.3111
     14  C5'       71.0530   86.8670   53.9600 C.3   500  ANP500      0.1813
     15  C4'       71.9350   86.9480   52.7970 C.3   500  ANP500      0.1821
     16  O4'       71.1130   87.7740   51.8850 O.3   500  ANP500     -0.3135
     17  C3'       72.8310   87.8490   53.6040 C.3   500  ANP500      0.2184
     18  O3'       74.2390   87.5490   53.4580 O.3   500  ANP500     -0.2174
     19  C2'       72.4770   89.3000   53.2470 C.3   500  ANP500      0.2570
     20  O2'       73.5920   90.1670   52.9620 O.3   500  ANP500     -0.2130
     21  C1'       71.5280   89.1650   52.0580 C.3   500  ANP500      0.3186
     22  N9        70.5560   90.1610   52.2100 N.pl3 500  ANP500     -0.1439
     23  C8        69.3330   90.0880   52.8370 C.3   500  ANP500      0.3377
     24  N7        68.7410   91.2630   52.7610 N.2   500  ANP500     -0.2095
     25  C5        69.5420   92.1220   52.1080 C.2   500  ANP500      0.2526
     26  C6        69.4280   93.4940   51.7210 C.2   500  ANP500      0.4393
     27  N6        68.3340   94.2430   52.1010 N.pl3 500  ANP500      0.2180
     28  N1        70.4460   94.0590   51.0300 N.2   500  ANP500      0.0021
     29  C2        71.5270   93.3630   50.6670 C.3   500  ANP500      0.5254
     30  N3        71.6690   92.0810   51.0180 N.2   500  ANP500     -0.0055
     31  C4        70.6990   91.4200   51.6910 C.2   500  ANP500      0.3518
@<TRIPOS>BOND
     1    29    30    1
     2    29    28    1
     3    30    31    2
     4    28    26    2
     5    31    25    1
     6    31    22    1
     7    26    27    1
     8    26    25    1
     9    16    21    1
    10    16    15    1
    11    21    22    1
    12    21    19    1
    13    25    24    2
    14    22    23    1
    15    24    23    1
    16    15    17    1
    17    15    14    1
    18    20    19    1
    19    19    17    1
    20    18    17    1
    21    14    13    1
    22    13     9    1
    23    10     9    2
    24    12     9    1
    25    12     5    1
    26     9    11    1
    27     8     5    1
    28     8     1    1
    29     6     5    2
    30     5     7    1
    31     4     1    2
    32     1     2    1
    33     1     3    1
