@<TRIPOS>MOLECULE
4aqv_GDP_B_1.pdb
 28 30 0 0 0
SMALL
GASTEIGER

@<TRIPOS>ATOM
      1  PB        55.4380   50.5890   94.1800 P.3   600  GDP600      0.5373
      2  O1B       55.6050   49.2230   94.4280 O.3   600  GDP600     -0.1143
      3  O2B       56.0510   51.1030   92.9410 O.2   600  GDP600     -0.2221
      4  O3B       55.9020   51.5490   95.4180 O.3   600  GDP600     -0.1143
      5  O3A       53.8830   50.7720   94.0060 O.3   600  GDP600     -0.2261
      6  PA        52.6540   49.6410   94.0690 P.3   600  GDP600      0.2231
      7  O1A       52.7990   48.7010   92.9220 O.2   600  GDP600     -0.5169
      8  O2A       52.7320   49.0070   95.4480 O.3   600  GDP600     -0.4370
      9  O5'       51.4110   50.5400   93.8190 O.3   600  GDP600     -0.3111
     10  C5'       50.0830   50.1430   94.2770 C.3   600  GDP600      0.1813
     11  C4'       49.0790   50.0440   93.2330 C.3   600  GDP600      0.1799
     12  O4'       49.4740   48.9630   92.2980 O.3   600  GDP600     -0.3326
     13  C3'       47.6660   49.5420   93.7030 C.3   600  GDP600      0.2158
     14  O3'       46.6840   50.3080   92.9150 O.3   600  GDP600     -0.2175
     15  C2'       47.5120   48.0440   93.3470 C.3   600  GDP600      0.2310
     16  O2'       46.2120   47.5340   93.0060 O.3   600  GDP600     -0.2158
     17  C1'       48.4570   47.8790   92.1570 C.3   600  GDP600      0.2293
     18  N9        49.1680   46.6020   92.1170 N.pl3 600  GDP600     -0.2354
     19  C8        50.2460   46.3330   93.1290 C.3   600  GDP600      0.2246
     20  N7        50.5390   45.0620   92.6040 N.2   600  GDP600     -0.2322
     21  C5        49.8680   44.5880   91.5590 C.2   600  GDP600      0.2182
     22  C6        49.6990   43.5030   90.6720 C.1   600  GDP600      0.2372
     23  O6        50.5210   42.4550   90.8580 O.2   600  GDP600     -0.2069
     24  N1        48.8090   43.4700   89.6570 N.2   600  GDP600     -0.2485
     25  C2        47.9210   44.6480   89.4630 C.1   600  GDP600      0.2531
     26  N2        47.1300   44.3920   88.4430 N.pl3 600  GDP600     -0.0226
     27  N3        48.0080   45.6480   90.2360 N.2   600  GDP600     -0.3074
     28  C4        48.9350   45.6490   91.2120 C.2   600  GDP600      0.2300
@<TRIPOS>BOND
     1    26    25    1
     2    25    24    2
     3    25    27    2
     4    24    22    2
     5    27    28    2
     6    22    23    2
     7    22    21    1
     8    28    21    1
     9    28    18    1
    10    21    20    2
    11    18    17    1
    12    18    19    1
    13    17    12    1
    14    17    15    1
    15    12    11    1
    16    20    19    1
    17    14    13    1
    18     7     6    2
    19     3     1    2
    20    16    15    1
    21    11    13    1
    22    11    10    1
    23    15    13    1
    24     9     6    1
    25     9    10    1
    26     5     6    1
    27     5     1    1
    28     6     8    1
    29     1     2    1
    30     1     4    1
