@<TRIPOS>MOLECULE
4aqw_GTP_A_1.pdb
 32 34 0 0 0
SMALL
GASTEIGER

@<TRIPOS>ATOM
      1  PG       -24.0300    9.8880  -64.5800 P.3   500  GTP500      0.5373
      2  O1G      -24.0440    8.5960  -63.7870 O.3   500  GTP500     -0.1143
      3  O2G      -25.1180   10.8580  -64.1280 O.3   500  GTP500     -0.1143
      4  O3G      -22.7300   10.6810  -64.3920 O.2   500  GTP500     -0.2221
      5  O3B      -24.2800    9.3830  -66.1400 O.3   500  GTP500     -0.2258
      6  PB       -25.5590    8.5000  -66.6850 P.3   500  GTP500      0.2277
      7  O1B      -26.1260    9.2940  -67.8510 O.2   500  GTP500     -0.5168
      8  O2B      -25.1710    7.1150  -66.9110 O.3   500  GTP500     -0.4368
      9  O3A      -26.6270    8.6560  -65.6000 O.3   500  GTP500     -0.2700
     10  PA       -27.9410    7.9650  -65.2540 P.3   500  GTP500      0.2189
     11  O1A      -27.7970    6.4960  -65.2140 O.2   500  GTP500     -0.5170
     12  O2A      -28.4660    8.5990  -64.0120 O.3   500  GTP500     -0.4371
     13  O5'      -28.9430    8.4260  -66.4750 O.3   500  GTP500     -0.3112
     14  C5'      -30.2460    7.8840  -66.3500 C.3   500  GTP500      0.1813
     15  C4'      -31.2210    8.2630  -67.4190 C.3   500  GTP500      0.1799
     16  O4'      -31.1390    7.3390  -68.5340 O.3   500  GTP500     -0.3326
     17  C3'      -32.6190    8.1160  -66.8610 C.3   500  GTP500      0.2158
     18  O3'      -33.5030    8.9680  -67.5560 O.3   500  GTP500     -0.2175
     19  C2'      -32.8970    6.6390  -67.0940 C.3   500  GTP500      0.2310
     20  O2'      -34.3080    6.4310  -67.2020 O.3   500  GTP500     -0.2158
     21  C1'      -32.1580    6.3350  -68.4060 C.3   500  GTP500      0.2293
     22  N9       -31.5100    5.0140  -68.4800 N.pl3 500  GTP500     -0.2354
     23  C8       -30.5560    4.5110  -67.6260 C.3   500  GTP500      0.2246
     24  N7       -30.1600    3.3080  -67.9380 N.2   500  GTP500     -0.2322
     25  C5       -30.8980    2.9830  -69.0500 C.2   500  GTP500      0.2182
     26  C6       -30.9130    1.8190  -69.8170 C.1   500  GTP500      0.2372
     27  O6       -30.2230    0.8180  -69.6410 O.2   500  GTP500     -0.2069
     28  N1       -31.8200    1.8740  -70.8990 N.2   500  GTP500     -0.2485
     29  C2       -32.6300    2.9490  -71.1900 C.1   500  GTP500      0.2531
     30  N2       -33.4170    2.8260  -72.2190 N.pl3 500  GTP500     -0.0226
     31  N3       -32.6350    4.0650  -70.4610 N.2   500  GTP500     -0.3074
     32  C4       -31.7500    4.0310  -69.4140 C.2   500  GTP500      0.2300
@<TRIPOS>BOND
     1    30    29    1
     2    29    28    2
     3    29    31    2
     4    28    26    2
     5    31    32    2
     6    26    27    2
     7    26    25    1
     8    32    25    1
     9    32    22    1
    10    25    24    2
    11    16    21    1
    12    16    15    1
    13    22    21    1
    14    22    23    1
    15    21    19    1
    16    24    23    1
    17     7     6    2
    18    18    17    1
    19    15    17    1
    20    15    14    1
    21    20    19    1
    22    19    17    1
    23     8     6    1
    24     6     5    1
    25     6     9    1
    26    13    14    1
    27    13    10    1
    28     5     1    1
    29     9    10    1
    30    10    11    2
    31    10    12    1
    32     1     4    2
    33     1     3    1
    34     1     2    1
