@<TRIPOS>MOLECULE
4aqw_GDP_B_1.pdb
 28 30 0 0 0
SMALL
GASTEIGER

@<TRIPOS>ATOM
      1  PB       -21.8630   11.4640  -23.0690 P.3   600  GDP600      0.5373
      2  O1B      -21.4000   12.4380  -21.8400 O.3   600  GDP600     -0.1143
      3  O2B      -21.7050   10.1010  -22.8020 O.3   600  GDP600     -0.1143
      4  O3B      -21.2430   11.9600  -24.3120 O.2   600  GDP600     -0.2221
      5  O3A      -23.4160   11.6520  -23.2520 O.3   600  GDP600     -0.2261
      6  PA       -24.6520   10.5280  -23.1800 P.3   600  GDP600      0.2231
      7  O1A      -24.5820    9.9110  -21.7940 O.3   600  GDP600     -0.4370
      8  O2A      -24.5070    9.5730  -24.3150 O.2   600  GDP600     -0.5169
      9  O5'      -25.8900   11.4290  -23.4480 O.3   600  GDP600     -0.3111
     10  C5'      -27.2210   11.0440  -22.9910 C.3   600  GDP600      0.1813
     11  C4'      -28.2200   10.9380  -24.0380 C.3   600  GDP600      0.1799
     12  O4'      -27.8270    9.8430  -24.9570 O.3   600  GDP600     -0.3326
     13  C3'      -29.6380   10.4480  -23.5670 C.3   600  GDP600      0.2158
     14  O3'      -30.6140   11.2090  -24.3710 O.3   600  GDP600     -0.2175
     15  C2'      -29.7970    8.9460  -23.9060 C.3   600  GDP600      0.2310
     16  O2'      -31.0980    8.4400  -24.2470 O.3   600  GDP600     -0.2158
     17  C1'      -28.8490    8.7630  -25.0900 C.3   600  GDP600      0.2293
     18  N9       -28.1430    7.4810  -25.1100 N.pl3 600  GDP600     -0.2354
     19  C8       -27.0710    7.2200  -24.0900 C.3   600  GDP600      0.2246
     20  N7       -26.7820    5.9400  -24.5970 N.2   600  GDP600     -0.2322
     21  C5       -27.4500    5.4580  -25.6390 C.2   600  GDP600      0.2182
     22  C6       -27.6200    4.3620  -26.5130 C.1   600  GDP600      0.2372
     23  O6       -26.8050    3.3120  -26.3100 O.2   600  GDP600     -0.2069
     24  N1       -28.5070    4.3210  -27.5320 N.2   600  GDP600     -0.2485
     25  C2       -29.3880    5.5000  -27.7450 C.1   600  GDP600      0.2531
     26  N2       -30.1750    5.2340  -28.7650 N.pl3 600  GDP600     -0.0226
     27  N3       -29.2990    6.5090  -26.9840 N.2   600  GDP600     -0.3074
     28  C4       -28.3760    6.5180  -26.0040 C.2   600  GDP600      0.2300
@<TRIPOS>BOND
     1    26    25    1
     2    25    24    2
     3    25    27    2
     4    24    22    2
     5    27    28    2
     6    22    23    2
     7    22    21    1
     8    28    21    1
     9    28    18    1
    10    21    20    2
    11    18    17    1
    12    18    19    1
    13    17    12    1
    14    17    15    1
    15    12    11    1
    16    20    19    1
    17    14    13    1
    18     8     6    2
    19     4     1    2
    20    16    15    1
    21    11    13    1
    22    11    10    1
    23    15    13    1
    24     9     6    1
    25     9    10    1
    26     5     6    1
    27     5     1    1
    28     6     7    1
    29     1     3    1
    30     1     2    1
