@<TRIPOS>MOLECULE
4ara_C56_A_1.pdb
 25 26 0 0 0
SMALL
GASTEIGER

@<TRIPOS>ATOM
      1  O16       29.8760   21.6360   10.1220 O.2   600  C56600     -0.2683
      2  C15       30.6870   22.5270   10.3670 C.2   600  C56600      0.2678
      3  C2        31.9140   22.6630    9.4820 C.ar  600  C56600      0.0907
      4  C3        33.0160   23.5610    9.7150 C.ar  600  C56600      0.1444
      5  O13       32.9010   24.3180   10.8320 O.3   600  C56600     -0.4712
      6  C14       33.9140   25.2190   11.2320 C.3   600  C56600      0.2525
      7  C4        34.1080   23.6420    8.8460 C.ar  600  C56600      0.0532
      8  C5        34.2550   22.8580    7.6570 C.ar  600  C56600      0.0737
      9  N10       35.4040   23.1030    6.8940 N.pl3 600  C56600     -0.3027
     10  C12       36.3660   24.1690    7.2730 C.3   600  C56600      0.1123
     11  C11       35.8290   22.5700    5.5750 C.3   600  C56600      0.1123
     12  C6        33.1490   21.9700    7.4410 C.ar  600  C56600      0.1564
     13  N7        32.9420   21.0030    6.3370 N.pl3 600  C56600      0.0589
     14  O9        33.8560   20.3320    5.9120 O.2   600  C56600     -0.1261
     15  O8        31.7990   20.7170    6.0450 O.2   600  C56600     -0.1261
     16  C1        32.0520   21.9090    8.3410 C.ar  600  C56600      0.0330
     17  N17       30.4170   23.3790   11.4710 N.am  600  C56600     -0.2001
     18  C18       29.1870   23.2480   12.3060 C.3   600  C56600      0.1313
     19  C05       29.2510   22.1710   13.4720 C.3   600  C56600      0.0793
     20  C06       27.9610   22.2320   14.3610 C.3   600  C56600      0.0192
     21  C07       27.4530   20.8030   14.5250 C.3   600  C56600      0.0188
     22  C08       28.1630   20.0070   13.4280 C.3   600  C56600      0.0721
     23  N09       29.2830   20.8110   12.8330 N.3   600  C56600     -0.2723
     24  C10       30.5340   19.9950   12.8690 C.3   600  C56600      0.0721
     25  C13       30.6140   18.8700   11.8460 C.3   600  C56600      0.0188
@<TRIPOS>BOND
     1    11     9    1
     2    14    13    2
     3    15    13    2
     4    13    12    1
     5     9    10    1
     6     9     8    1
     7    12     8   ar
     8    12    16   ar
     9     8     7   ar
    10    16     3   ar
    11     7     4   ar
    12     3     4   ar
    13     3     2    1
    14     4     5    1
    15     1     2    2
    16     2    17   am
    17     5     6    1
    18    17    18    1
    19    25    24    1
    20    18    19    1
    21    23    24    1
    22    23    22    1
    23    23    19    1
    24    22    21    1
    25    19    20    1
    26    20    21    1
