@<TRIPOS>MOLECULE
4arb_C57_A_1.pdb
 25 26 0 0 0
SMALL
GASTEIGER

@<TRIPOS>ATOM
      1  O16       30.5770   21.0240   11.1770 O.2   1543  C571543    -0.2683
      2  C15       30.9890   22.1370   10.9710 C.2   1543  C571543     0.2678
      3  C2        31.9960   22.3470    9.8600 C.ar  1543  C571543     0.0907
      4  C3        33.0620   23.2840    9.9760 C.ar  1543  C571543     0.1444
      5  O13       33.2060   24.0650   11.1010 O.3   1543  C571543    -0.4712
      6  C14       34.2160   25.0170   11.1320 C.3   1543  C571543     0.2525
      7  C4        34.0100   23.4510    8.9120 C.ar  1543  C571543     0.0532
      8  C5        33.9260   22.6920    7.7600 C.ar  1543  C571543     0.0737
      9  N10       34.9890   22.9920    6.7270 N.pl3 1543  C571543    -0.3027
     10  C12       36.0950   23.8850    7.0850 C.3   1543  C571543     0.1123
     11  C11       34.9400   22.4440    5.3500 C.3   1543  C571543     0.1123
     12  C6        32.8290   21.7270    7.6360 C.ar  1543  C571543     0.1564
     13  N7        32.6130   20.8680    6.5040 N.pl3 1543  C571543     0.0589
     14  O9        31.5700   21.0300    5.7330 O.2   1543  C571543    -0.1261
     15  O8        33.4130   19.9520    6.2590 O.2   1543  C571543    -0.1261
     16  C1        31.9020   21.5700    8.6930 C.ar  1543  C571543     0.0330
     17  N17       30.5460   23.2250   11.8110 N.am  1543  C571543    -0.2001
     18  C18       29.5990   23.0420   12.9140 C.3   1543  C571543     0.1313
     19  C07       27.7360   20.9420   14.2460 C.3   1543  C571543     0.0188
     20  C06       27.4820   22.3800   13.9920 C.3   1543  C571543     0.0192
     21  C05       28.1470   22.6350   12.6880 C.3   1543  C571543     0.0793
     22  N09       27.9420   21.4060   11.9370 N.3   1543  C571543    -0.2723
     23  C10       27.1640   21.2270   10.7240 C.3   1543  C571543     0.0721
     24  C08       27.8420   20.3280   12.8940 C.3   1543  C571543     0.0721
     25  C13       27.6230   21.9940    9.4770 C.3   1543  C571543     0.0188
@<TRIPOS>BOND
     1    11     9    1
     2    14    13    2
     3    15    13    2
     4    13    12    1
     5     9    10    1
     6     9     8    1
     7    12     8   ar
     8    12    16   ar
     9     8     7   ar
    10    16     3   ar
    11     7     4   ar
    12    25    23    1
    13     3     4   ar
    14     3     2    1
    15     4     5    1
    16    23    22    1
    17     2     1    2
    18     2    17   am
    19     5     6    1
    20    17    18    1
    21    22    21    1
    22    22    24    1
    23    21    18    1
    24    21    20    1
    25    24    19    1
    26    20    19    1
