@<TRIPOS>MOLECULE
4ark_ADP_A_1.pdb
 27 29 0 0 0
SMALL
GASTEIGER

@<TRIPOS>ATOM
      1  PB        30.6050   37.0240   39.7410 P.3   1383  ADP1383     0.5373
      2  O1B       29.5700   36.6730   38.6770 O.2   1383  ADP1383    -0.2221
      3  O2B       31.9030   36.2400   39.5900 O.3   1383  ADP1383    -0.1143
      4  O3B       30.7390   38.5290   39.9870 O.3   1383  ADP1383    -0.1143
      5  PA        30.4930   35.5550   42.2550 P.3   1383  ADP1383     0.2231
      6  O1A       29.3860   35.1300   43.1720 O.3   1383  ADP1383    -0.4370
      7  O2A       31.2640   34.3990   41.6450 O.2   1383  ADP1383    -0.5169
      8  O3A       29.8900   36.5120   41.1040 O.3   1383  ADP1383    -0.2261
      9  O5'       31.4760   36.5390   43.0420 O.3   1383  ADP1383    -0.3111
     10  C5'       31.1340   37.8850   43.2710 C.3   1383  ADP1383     0.1813
     11  C4'       32.3950   38.6410   43.6860 C.3   1383  ADP1383     0.1821
     12  O4'       32.9880   38.0650   44.8480 O.3   1383  ADP1383    -0.3135
     13  C3'       33.5090   38.5970   42.6510 C.3   1383  ADP1383     0.2184
     14  O3'       33.2930   39.5800   41.6280 O.3   1383  ADP1383    -0.2174
     15  C2'       34.7140   38.9460   43.4970 C.3   1383  ADP1383     0.2570
     16  O2'       34.7980   40.3740   43.6050 O.3   1383  ADP1383    -0.2130
     17  C1'       34.3710   38.3880   44.8620 C.3   1383  ADP1383     0.3186
     18  N9        35.0760   37.1410   45.1620 N.pl3 1383  ADP1383    -0.1439
     19  C8        34.6820   35.9150   44.7930 C.3   1383  ADP1383     0.3377
     20  N7        35.5500   34.9790   45.2440 N.2   1383  ADP1383    -0.2095
     21  C5        36.5080   35.6170   45.9350 C.2   1383  ADP1383     0.2526
     22  C6        37.7260   35.2270   46.6820 C.2   1383  ADP1383     0.4393
     23  N6        38.0720   33.9140   46.7690 N.pl3 1383  ADP1383     0.2180
     24  N1        38.4720   36.2140   47.2640 N.2   1383  ADP1383     0.0021
     25  C2        38.1300   37.5200   47.1730 C.3   1383  ADP1383     0.5254
     26  N3        37.0230   37.9330   46.5180 N.2   1383  ADP1383    -0.0055
     27  C4        36.1920   37.0470   45.8860 C.2   1383  ADP1383     0.3518
@<TRIPOS>BOND
     1     2     1    2
     2     3     1    1
     3     1     4    1
     4     1     8    1
     5     8     5    1
     6    14    13    1
     7     7     5    2
     8     5     9    1
     9     5     6    1
    10    13    15    1
    11    13    11    1
    12     9    10    1
    13    10    11    1
    14    15    16    1
    15    15    17    1
    16    11    12    1
    17    19    18    1
    18    19    20    1
    19    12    17    1
    20    17    18    1
    21    18    27    1
    22    20    21    2
    23    27    21    1
    24    27    26    2
    25    21    22    1
    26    26    25    1
    27    22    23    1
    28    22    24    2
    29    25    24    1
