@<TRIPOS>MOLECULE
4ark_M3K_A_1.pdb
 26 27 0 0 0
SMALL
GASTEIGER

@<TRIPOS>ATOM
      1  C01       34.2470   27.2390   42.4370 C.ar  1385  M3K1385     0.0979
      2  C02       35.2130   26.4380   41.8890 C.ar  1385  M3K1385     0.0192
      3  C03       36.5180   26.5040   42.3200 C.ar  1385  M3K1385     0.0073
      4  C04       36.9050   27.3750   43.3090 C.ar  1385  M3K1385     0.0324
      5  C05       35.9320   28.1770   43.8510 C.ar  1385  M3K1385     0.0368
      6  C06       34.6270   28.1040   43.4200 C.ar  1385  M3K1385     0.1556
      7  N07       32.8850   27.2240   42.0410 N.pl3 1385  M3K1385    -0.2099
      8  C08       32.2050   26.4880   41.0410 C.ar  1385  M3K1385     0.0802
      9  C09       31.2730   27.1030   40.2430 C.ar  1385  M3K1385     0.1059
     10  C10       30.6100   26.4140   39.2760 C.ar  1385  M3K1385     0.1465
     11  C11       30.8500   25.0860   39.0840 C.ar  1385  M3K1385     0.0667
     12  C12       31.7640   24.4570   39.8710 C.ar  1385  M3K1385     0.1445
     13  C13       32.4350   25.1510   40.8420 C.ar  1385  M3K1385     0.0465
     14  C14       30.9430   28.5120   40.3680 C.2   1385  M3K1385     0.2884
     15  N15       30.2560   29.1460   39.3820 N.am  1385  M3K1385    -0.0836
     16  O16       31.2810   29.1190   41.3220 O.2   1385  M3K1385    -0.2665
     17  C18       28.3960   27.5670   36.5940 C.3   1385  M3K1385     0.0829
     18  C19       29.3830   28.1670   35.6070 C.3   1385  M3K1385     0.1885
     19  C20       28.6780   29.1740   34.7170 C.3   1385  M3K1385     0.2148
     20  O21       29.9010   27.1470   34.7840 O.3   1385  M3K1385    -0.2202
     21  O22       28.0870   30.1510   35.5470 O.3   1385  M3K1385    -0.2176
     22  I23       38.8510   27.4480   43.9280 I     1385  M3K1385    -0.0424
     23  C15       29.1050   26.4970   37.4050 C.3   1385  M3K1385     0.2081
     24  F24       33.7260   28.8830   43.9510 F     1385  M3K1385    -0.2028
     25  F26       32.0010   23.1840   39.6830 F     1385  M3K1385    -0.2040
     26  O1        29.7130   27.0790   38.5310 O.3   1385  M3K1385    -0.4751
@<TRIPOS>BOND
     1    19    21    1
     2    19    18    1
     3    20    18    1
     4    18    17    1
     5    17    23    1
     6    23    26    1
     7    26    10    1
     8    11    10   ar
     9    11    12   ar
    10    10     9   ar
    11    15    14   am
    12    25    12    1
    13    12    13   ar
    14     9    14    1
    15     9     8   ar
    16    14    16    2
    17    13     8   ar
    18     8     7    1
    19     2     3   ar
    20     2     1   ar
    21     7     1    1
    22     3     4   ar
    23     1     6   ar
    24     4     5   ar
    25     4    22    1
    26     6     5   ar
    27     6    24    1
