@<TRIPOS>MOLECULE
4arr_I3C_A_1.pdb
 16 16 0 0 0
SMALL
GASTEIGER

@<TRIPOS>ATOM
      1  I3       -38.8390   -0.3610    8.8360 I     1300  I3C1300    -0.0409
      2  I2       -32.9040   -1.0480    9.4220 I     1300  I3C1300    -0.0409
      3  I1       -36.1250    1.1930   13.8340 I     1300  I3C1300    -0.0421
      4  O8       -39.2610    0.0270   12.4460 O.co2 1300  I3C1300    -0.2405
      5  O9       -38.8030    2.0270   11.5580 O.co2 1300  I3C1300    -0.2405
      6  C10      -33.5970    0.0160   12.3760 C.2   1300  I3C1300     0.3886
      7  N13      -35.8010   -1.0340    8.0340 N.pl3 1300  I3C1300    -0.1272
      8  C1       -37.2020    0.3090   11.2020 C.ar  1300  I3C1300     0.0920
      9  C6       -37.1350   -0.1870    9.8940 C.ar  1300  I3C1300     0.0540
     10  C5       -35.8770   -0.5870    9.3270 C.ar  1300  I3C1300     0.1002
     11  C4       -34.6980   -0.4940   10.1490 C.ar  1300  I3C1300     0.0540
     12  C3       -34.7840   -0.0140   11.4700 C.ar  1300  I3C1300     0.0920
     13  C2       -36.0300    0.4090   11.9940 C.ar  1300  I3C1300     0.0437
     14  C7       -38.4990    0.7320   11.7990 C.2   1300  I3C1300     0.3886
     15  O11      -33.4010   -1.1540   13.0230 O.co2 1300  I3C1300    -0.2405
     16  O12      -32.8450    0.9610   12.5710 O.co2 1300  I3C1300    -0.2405
@<TRIPOS>BOND
     1     7    10    1
     2     1     9    1
     3    10     9   ar
     4    10    11   ar
     5     2    11    1
     6     9     8   ar
     7    11    12   ar
     8     8    14    1
     9     8    13   ar
    10    12    13   ar
    11    12     6    1
    12     5    14   ar
    13    14     4   ar
    14    13     3    1
    15     6    16   ar
    16     6    15   ar
