@<TRIPOS>MOLECULE
4arw_HNR_A_1.pdb
 24 25 0 0 0
SMALL
GASTEIGER

@<TRIPOS>ATOM
      1  CAW       37.7780    7.8440   12.3900 C.3   400  HNR400      0.0001
      2  CAX       38.6000    6.6560   11.8400 C.3   400  HNR400      0.0043
      3  CAV       37.9530    6.0190   10.6220 C.3   400  HNR400      0.0522
      4  CAU       38.8280    4.9440    9.9880 C.3   400  HNR400      0.2212
      5  NAQ       38.0670    3.6980   10.0090 N.am  400  HNR400     -0.0795
      6  CAR       37.0950    3.4440    9.0190 C.2   400  HNR400      0.4066
      7  NAS       36.8890    4.3580    8.0690 N.pl3 400  HNR400      0.2133
      8  CAP       38.3210    2.7720   11.0270 C.1   400  HNR400      0.3741
      9  OAO       39.1730    2.9960   11.8850 O.2   400  HNR400     -0.1670
     10  NAG       37.6040    1.6060   11.0740 N.2   400  HNR400     -0.2253
     11  CAH       36.6290    1.3410   10.1230 C.1   400  HNR400      0.2406
     12  OAA       36.0240    0.2750   10.2440 O.2   400  HNR400     -0.2069
     13  CAI       36.3550    2.2530    9.0800 C.2   400  HNR400      0.2500
     14  NAJ       35.4230    1.9550    8.1690 N.pl3 400  HNR400     -0.1708
     15  CAB       35.7470    0.9150    7.1670 C.3   400  HNR400      0.1403
     16  SAK       33.8990    2.5790    8.2590 S.O2  400  HNR400      0.0774
     17  OAT       33.9420    4.0020    8.4390 O.2   400  HNR400     -0.1497
     18  OAC       33.0650    2.2200    7.0750 O.2   400  HNR400     -0.1497
     19  CAL       33.1570    1.8500    9.6770 C.ar  400  HNR400      0.1254
     20  CAM       33.4520    2.3140   10.9400 C.ar  400  HNR400      0.0202
     21  CAN       32.8430    1.7320   12.0490 C.ar  400  HNR400      0.0014
     22  CAF       31.9490    0.6780   11.9070 C.ar  400  HNR400      0.0001
     23  CAE       31.6800    0.2120   10.6400 C.ar  400  HNR400      0.0014
     24  CAD       32.2680    0.7990    9.5340 C.ar  400  HNR400      0.0202
@<TRIPOS>BOND
     1    18    16    2
     2    15    14    1
     3     7     6    1
     4    14    16    1
     5    14    13    1
     6    16    17    2
     7    16    19    1
     8     6    13    2
     9     6     5    1
    10    13    11    1
    11    24    19   ar
    12    24    23   ar
    13    19    20   ar
    14     4     5    1
    15     4     3    1
    16     5     8   am
    17    11    12    2
    18    11    10    2
    19     3     2    1
    20    23    22   ar
    21    20    21   ar
    22     8    10    2
    23     8     9    2
    24     2     1    1
    25    22    21   ar
