@<TRIPOS>MOLECULE
4arz_GDP_B_1.pdb
 28 30 0 0 0
SMALL
GASTEIGER

@<TRIPOS>ATOM
      1  PB        46.2170   19.7020   37.1800 P.3   400  GDP400      0.5373
      2  O1B       47.2110   19.5200   38.3140 O.3   400  GDP400     -0.1143
      3  O2B       46.8660   19.7070   35.8050 O.2   400  GDP400     -0.2221
      4  O3B       45.0900   18.6700   37.2510 O.3   400  GDP400     -0.1143
      5  O3A       45.5620   21.1720   37.4170 O.3   400  GDP400     -0.2261
      6  PA        46.1520   22.4710   38.1530 P.3   400  GDP400      0.2231
      7  O1A       47.3860   22.8850   37.3420 O.2   400  GDP400     -0.5169
      8  O2A       46.3450   22.1700   39.5890 O.3   400  GDP400     -0.4370
      9  O5'       44.9680   23.5080   37.9550 O.3   400  GDP400     -0.3111
     10  C5'       44.6070   23.9150   36.6410 C.3   400  GDP400      0.1813
     11  C4'       43.9350   25.2830   36.6680 C.3   400  GDP400      0.1799
     12  O4'       42.6770   25.2050   37.3660 O.3   400  GDP400     -0.3326
     13  C3'       44.7280   26.4000   37.3640 C.3   400  GDP400      0.2158
     14  O3'       44.6100   27.6620   36.6940 O.3   400  GDP400     -0.2175
     15  C2'       44.1210   26.4560   38.7360 C.3   400  GDP400      0.2310
     16  O2'       44.3710   27.6380   39.4830 O.3   400  GDP400     -0.2158
     17  C1'       42.6800   26.2070   38.3810 C.3   400  GDP400      0.2293
     18  N9        41.8570   25.7010   39.4780 N.pl3 400  GDP400     -0.2354
     19  C8        42.1520   24.6310   40.2600 C.3   400  GDP400      0.2246
     20  N7        41.1830   24.4530   41.1590 N.2   400  GDP400     -0.2322
     21  C5        40.2600   25.4330   40.9350 C.2   400  GDP400      0.2182
     22  C6        38.9790   25.8070   41.5440 C.1   400  GDP400      0.2372
     23  O6        38.4870   25.1880   42.5040 O.2   400  GDP400     -0.2069
     24  N1        38.3400   26.8970   40.9980 N.2   400  GDP400     -0.2485
     25  C2        38.8040   27.6320   39.9490 C.1   400  GDP400      0.2531
     26  N2        38.0620   28.6790   39.5160 N.pl3 400  GDP400     -0.0226
     27  N3        39.9850   27.3550   39.3260 N.2   400  GDP400     -0.3074
     28  C4        40.6940   26.2580   39.8180 C.2   400  GDP400      0.2300
@<TRIPOS>BOND
     1     3     1    2
     2    10    11    1
     3    10     9    1
     4    11    13    1
     5    11    12    1
     6    14    13    1
     7     1     4    1
     8     1     5    1
     9     1     2    1
    10     7     6    2
    11    13    15    1
    12    12    17    1
    13     5     6    1
    14     9     6    1
    15     6     8    1
    16    17    15    1
    17    17    18    1
    18    15    16    1
    19    27    28    2
    20    27    25    2
    21    18    28    1
    22    18    19    1
    23    26    25    1
    24    28    21    1
    25    25    24    2
    26    19    20    1
    27    21    20    2
    28    21    22    1
    29    24    22    2
    30    22    23    2
