@<TRIPOS>MOLECULE
4arz_GTP_A_1.pdb
 32 34 0 0 0
SMALL
GASTEIGER

@<TRIPOS>ATOM
      1  PG        28.1270   46.2410   33.4040 P.3   400  GTP400      0.5373
      2  O1G       26.7650   46.8880   33.4190 O.3   400  GTP400     -0.1143
      3  O2G       28.4210   45.2780   32.2760 O.2   400  GTP400     -0.2221
      4  O3G       28.3990   47.2860   32.3600 O.3   400  GTP400     -0.1143
      5  O3B       29.4060   46.8710   34.1180 O.3   400  GTP400     -0.2258
      6  PB        29.9500   46.3190   35.5200 P.3   400  GTP400      0.2277
      7  O1B       28.9070   46.4430   36.5780 O.3   400  GTP400     -0.4368
      8  O2B       31.1620   47.1280   35.8990 O.2   400  GTP400     -0.5168
      9  O3A       30.3250   44.7860   35.2910 O.3   400  GTP400     -0.2700
     10  PA        30.4130   43.7450   36.5420 P.3   400  GTP400      0.2189
     11  O1A       29.0730   43.0720   36.6390 O.2   400  GTP400     -0.5170
     12  O2A       30.7900   44.3100   37.8720 O.3   400  GTP400     -0.4371
     13  O5'       31.4490   42.6450   36.0620 O.3   400  GTP400     -0.3112
     14  C5'       32.8070   42.7340   35.8380 C.3   400  GTP400      0.1813
     15  C4'       33.4430   41.4700   36.3280 C.3   400  GTP400      0.1799
     16  O4'       34.6830   41.8670   36.8800 O.3   400  GTP400     -0.3326
     17  C3'       32.8700   40.3810   37.2530 C.3   400  GTP400      0.2158
     18  O3'       32.9780   39.3050   36.3380 O.3   400  GTP400     -0.2175
     19  C2'       33.9040   40.2270   38.3670 C.3   400  GTP400      0.2310
     20  O2'       34.4500   38.9460   38.5320 O.3   400  GTP400     -0.2158
     21  C1'       35.0420   41.1950   38.0550 C.3   400  GTP400      0.2293
     22  N9        35.3420   42.1150   39.1280 N.pl3 400  GTP400     -0.2354
     23  C8        34.4860   42.9620   39.7950 C.3   400  GTP400      0.2246
     24  N7        35.2210   43.6120   40.7240 N.2   400  GTP400     -0.2322
     25  C5        36.5120   43.1980   40.6560 C.2   400  GTP400      0.2182
     26  C6        37.7000   43.5100   41.3610 C.1   400  GTP400      0.2372
     27  O6        37.6550   44.3380   42.2560 O.2   400  GTP400     -0.2069
     28  N1        38.9390   42.9190   41.0860 N.2   400  GTP400     -0.2485
     29  C2        39.0180   41.9830   40.0870 C.1   400  GTP400      0.2531
     30  N2        40.1450   41.3600   39.7500 N.pl3 400  GTP400     -0.0226
     31  N3        37.8280   41.6910   39.4050 N.2   400  GTP400     -0.3074
     32  C4        36.5930   42.2560   39.6510 C.2   400  GTP400      0.2300
@<TRIPOS>BOND
     1     3     1    2
     2     4     1    1
     3     1     2    1
     4     1     5    1
     5     5     6    1
     6     9     6    1
     7     9    10    1
     8     6     8    2
     9     6     7    1
    10    14    13    1
    11    14    15    1
    12    13    10    1
    13    15    16    1
    14    15    17    1
    15    18    17    1
    16    10    11    2
    17    10    12    1
    18    16    21    1
    19    17    19    1
    20    21    19    1
    21    21    22    1
    22    19    20    1
    23    22    32    1
    24    22    23    1
    25    31    32    2
    26    31    29    2
    27    32    25    1
    28    30    29    1
    29    23    24    1
    30    29    28    2
    31    25    24    2
    32    25    26    1
    33    28    26    2
    34    26    27    2
