@<TRIPOS>MOLECULE
4as0_RPS_A_1.pdb
 29 35 0 0 0
SMALL
GASTEIGER

@<TRIPOS>ATOM
      1  O47      -23.1650  -35.5710    2.3090 O.2   1306  RPS1306     0.0000
      2  C45      -23.1500  -36.2550    1.2130 C.1   1306  RPS1306     0.0000
      3  C26      -22.8970  -35.6430   -0.1410 C.ar  1306  RPS1306     0.0000
      4  N46      -23.3740  -37.5810    1.1940 N.2   1306  RPS1306     0.0000
      5  C27      -23.2720  -37.8870   -0.1240 C.1   1306  RPS1306     0.0000
      6  O28      -23.4170  -39.0950   -0.5730 O.2   1306  RPS1306     0.0000
      7  C29      -22.9790  -36.7180   -1.0180 C.ar  1306  RPS1306     0.0000
      8  C30      -22.8070  -36.5630   -2.3920 C.ar  1306  RPS1306     0.0000
      9  C32      -22.4490  -35.2900   -2.8400 C.ar  1306  RPS1306     0.0000
     10  C34      -22.4560  -34.2160   -1.9770 C.ar  1306  RPS1306     0.0000
     11  C25      -22.6280  -34.3570   -0.5990 C.ar  1306  RPS1306     0.0000
     12  C35      -22.1880  -32.9680   -2.6980 C.3   1306  RPS1306     0.0000
     13  N49      -22.0490  -33.0480   -4.0610 N.pl3 1306  RPS1306     0.0000
     14  C40      -21.8060  -31.9460   -4.7600 C.2   1306  RPS1306     0.0000
     15  C39      -21.7010  -30.7250   -4.0760 C.2   1306  RPS1306     0.0000
     16  C38      -21.8220  -30.6240   -2.6940 C.2   1306  RPS1306     0.0000
     17  C37      -22.0740  -31.7850   -1.9800 C.2   1306  RPS1306     0.0000
     18 RU1       -22.3000  -34.7020   -4.6780 Ru    1306  RPS1306     0.0000
     19  S2       -24.5580  -34.3540   -4.7690 S.3   1306  RPS1306     0.0000
     20  C7       -25.1610  -35.8880   -4.6930 C.3   1306  RPS1306     0.0000
     21  C8       -24.2410  -36.9600   -5.3300 C.3   1306  RPS1306     0.0000
     22  S9       -22.5950  -36.6010   -5.3350 S.3   1306  RPS1306     0.0000
     23  C10      -22.1500  -36.6650   -6.9500 C.3   1306  RPS1306     0.0000
     24  C6       -22.4930  -35.3730   -7.6660 C.3   1306  RPS1306     0.0000
     25  O3       -19.4300  -35.0910   -4.6610 O.3   1306  RPS1306     0.0000
     26  S5       -22.2100  -34.0600   -6.6830 S.3   1306  RPS1306     0.0000
     27  C15      -20.5540  -34.9590   -4.6300 C.3   1306  RPS1306     0.0000
     28  C4       -23.5830  -33.1280   -6.9750 C.3   1306  RPS1306     0.0000
     29  C3       -24.8570  -33.6180   -6.2330 C.3   1306  RPS1306     0.0000
@<TRIPOS>UNITY_ATOM_ATTR
18 1
charge 3
@<TRIPOS>BOND
     1    24    23    1
     2    24    26    1
     3    28    26    1
     4    28    29    1
     5    23    22    1
     6    26    18    1
     7    29    19    1
     8    22    21    1
     9    22    18    1
    10    21    20    1
    11    19    20    1
    12    19    18    1
    13    14    15    2
    14    14    13    1
    15    18    27    1
    16    18    13    1
    17    18     9    1
    18    25    27    1
    19    15    16    1
    20    13    12    1
    21     9     8   ar
    22     9    10   ar
    23    12    17    1
    24    12    10    1
    25    16    17    2
    26     8     7   ar
    27    10    11   ar
    28     7     3   ar
    29     7     5    1
    30    11     3   ar
    31     6     5    2
    32     3     2    1
    33     5     4    2
    34     4     2    2
    35     2     1    2
