@<TRIPOS>MOLECULE
4as2_BTB_A_1.pdb
 14 13 0 0 0
SMALL
GASTEIGER

@<TRIPOS>ATOM
      1  C1        28.2230   48.0300   41.8110 C.3   1333  BTB1333     0.2017
      2  O1        29.2490   47.9280   40.8550 O.3   1333  BTB1333    -0.2188
      3  C2        27.5080   46.6970   41.7200 C.3   1333  BTB1333     0.1378
      4  C3        26.8250   46.6930   40.3470 C.3   1333  BTB1333     0.2017
      5  O3        26.0600   45.5170   40.2030 O.3   1333  BTB1333    -0.2188
      6  C4        28.5450   45.5330   41.7760 C.3   1333  BTB1333     0.2017
      7  O4        29.2530   45.6550   43.0080 O.3   1333  BTB1333    -0.2188
      8  N         26.6100   46.6940   42.9200 N.3   1333  BTB1333    -0.2641
      9  C5        25.9770   45.3690   43.1540 C.3   1333  BTB1333     0.1082
     10  C6        26.1900   44.8730   44.5780 C.3   1333  BTB1333     0.1993
     11  O6        26.8990   45.8540   45.3390 O.3   1333  BTB1333    -0.2189
     12  C7        25.5860   47.7770   42.7800 C.3   1333  BTB1333     0.1082
     13  C8        25.4550   48.5450   44.1320 C.3   1333  BTB1333     0.1993
     14  O8        26.7870   48.8930   44.5910 O.3   1333  BTB1333    -0.2189
@<TRIPOS>BOND
     1     5     4    1
     2     4     3    1
     3     2     1    1
     4     3     6    1
     5     3     1    1
     6     3     8    1
     7     6     7    1
     8    12     8    1
     9    12    13    1
    10     8     9    1
    11     9    10    1
    12    13    14    1
    13    10    11    1
