@<TRIPOS>MOLECULE
4as3_BTB_A_1.pdb
 14 13 0 0 0
SMALL
GASTEIGER

@<TRIPOS>ATOM
      1  C1        69.6450   50.0620   48.6320 C.3   1330  BTB1330     0.2017
      2  O1        69.7390   49.2640   47.4950 O.3   1330  BTB1330    -0.2188
      3  C2        70.8960   49.7700   49.3310 C.3   1330  BTB1330     0.1378
      4  C3        71.9190   50.5090   48.4950 C.3   1330  BTB1330     0.2017
      5  O3        73.2440   50.0360   48.7890 O.3   1330  BTB1330    -0.2188
      6  C4        70.8810   50.4100   50.7060 C.3   1330  BTB1330     0.2017
      7  O4        71.7510   49.6450   51.5220 O.3   1330  BTB1330    -0.2188
      8  N         71.2030   48.3330   49.2870 N.3   1330  BTB1330    -0.2641
      9  C5        70.1180   47.3760   49.6980 C.3   1330  BTB1330     0.1082
     10  C6        70.0650   46.3570   48.5490 C.3   1330  BTB1330     0.1993
     11  O6        70.7360   46.9760   47.4140 O.3   1330  BTB1330    -0.2189
     12  C7        72.4530   48.0040   50.0230 C.3   1330  BTB1330     0.1082
     13  C8        73.3030   47.1480   49.0650 C.3   1330  BTB1330     0.1993
     14  O8        72.7460   45.8200   49.0840 O.3   1330  BTB1330    -0.2189
@<TRIPOS>BOND
     1    11    10    1
     2     2     1    1
     3     4     5    1
     4     4     3    1
     5    10     9    1
     6     1     3    1
     7    13    14    1
     8    13    12    1
     9     8     3    1
    10     8     9    1
    11     8    12    1
    12     3     6    1
    13     6     7    1
