@<TRIPOS>MOLECULE
4asd_BAX_A_1.pdb
 32 34 0 0 0
SMALL
GASTEIGER

@<TRIPOS>ATOM
      1  C1       -28.0550   -1.7890   -7.5940 C.ar  1500  BAX1500     0.0214
      2  C2       -28.2850   -2.8510   -8.4880 C.ar  1500  BAX1500     0.0750
      3  C3       -28.9910   -3.9770   -8.0560 C.ar  1500  BAX1500     0.0175
      4  C4       -29.4670   -4.0490   -6.7420 C.ar  1500  BAX1500     0.0127
      5  C13      -26.7470   -2.0750  -10.2510 C.2   1500  BAX1500     0.3477
      6  C16      -25.3410   -1.7590  -12.2560 C.ar  1500  BAX1500     0.0752
      7  C17      -25.4650   -1.3400  -13.5760 C.ar  1500  BAX1500     0.0198
      8  C18      -24.3430   -0.8720  -14.2610 C.ar  1500  BAX1500     0.0388
      9  C19      -23.1120   -0.8220  -13.6040 C.ar  1500  BAX1500     0.1454
     10  C20      -22.9590   -1.2340  -12.2870 C.ar  1500  BAX1500     0.0388
     11  C21      -24.0840   -1.7010  -11.6170 C.ar  1500  BAX1500     0.0198
     12  O22      -22.0130   -0.3720  -14.2990 O.3   1500  BAX1500    -0.4534
     13  C24      -22.5430    2.0480  -13.9900 C.ar  1500  BAX1500     0.0582
     14  C25      -21.9920    3.3280  -14.1160 C.ar  1500  BAX1500     0.1021
     15  C27      -19.9370    2.4950  -14.8610 C.ar  1500  BAX1500     0.1392
     16  C28      -20.3980    1.1840  -14.7780 C.ar  1500  BAX1500     0.0613
     17  N30      -18.0330    3.9880  -15.4040 N.am  1500  BAX1500    -0.1985
     18  C31      -16.6770    4.2420  -15.8730 C.3   1500  BAX1500     0.1389
     19  C5       -29.2370   -2.9750   -5.8670 C.ar  1500  BAX1500     0.0616
     20  C6       -28.5180   -1.8380   -6.2740 C.ar  1500  BAX1500     0.0833
     21  C7       -28.2400   -0.6760   -5.3510 C.3   1500  BAX1500     0.4194
     22  F8       -27.4630   -1.0490   -4.3100 F     1500  BAX1500    -0.1658
     23  F9       -29.3580   -0.1020   -4.8300 F     1500  BAX1500    -0.1658
     24  F10      -27.5590    0.3410   -5.9330 F     1500  BAX1500    -0.1658
     25 CL11      -29.8410   -3.1030   -4.2550 Cl    1500  BAX1500    -0.0823
     26  N12      -27.8280   -2.8300   -9.8150 N.am  1500  BAX1500    -0.1607
     27  N14      -26.5060   -2.2230  -11.6110 N.am  1500  BAX1500    -0.1607
     28  O15      -26.0690   -1.3750   -9.5210 O.2   1500  BAX1500    -0.2484
     29  C23      -21.7060    0.9720  -14.3350 C.ar  1500  BAX1500     0.1485
     30  N26      -20.7260    3.5610  -14.5500 N.ar  1500  BAX1500    -0.2390
     31  C29      -18.5340    2.7020  -15.3410 C.2   1500  BAX1500     0.2827
     32  O32      -17.8770    1.7200  -15.6900 O.2   1500  BAX1500    -0.2667
@<TRIPOS>BOND
     1    18    17    1
     2    32    31    2
     3    17    31   am
     4    31    15    1
     5    15    16   ar
     6    15    30   ar
     7    16    29   ar
     8    30    14   ar
     9    29    12    1
    10    29    13   ar
    11    12     9    1
    12     8     9   ar
    13     8     7   ar
    14    14    13   ar
    15     9    10   ar
    16     7     6   ar
    17    10    11   ar
    18     6    11   ar
    19     6    27    1
    20    27     5   am
    21     5    26   am
    22     5    28    2
    23    26     2    1
    24     2     3   ar
    25     2     1   ar
    26     3     4   ar
    27     1    20   ar
    28     4    19   ar
    29    20    19   ar
    30    20    21    1
    31    24    21    1
    32    19    25    1
    33    21    23    1
    34    21    22    1
