@<TRIPOS>MOLECULE
4ase_AV9_A_1.pdb
 32 35 0 0 0
SMALL
GASTEIGER

@<TRIPOS>ATOM
      1  C1       -17.6300    2.7790  -15.3340 C.ar  3169  AV93169     0.1739
      2  C2       -18.7140    3.6850  -15.0630 C.ar  3169  AV93169     0.0592
      3  C3       -19.9790    3.2350  -14.6380 C.ar  3169  AV93169     0.0875
      4  C4       -20.1900    1.8090  -14.4750 C.ar  3169  AV93169     0.0554
      5  C5       -19.1140    0.9040  -14.7440 C.ar  3169  AV93169     0.0446
      6  C6       -17.8320    1.3680  -15.1690 C.ar  3169  AV93169     0.1726
      7  N7       -20.9640    4.1450  -14.3900 N.ar  3169  AV93169    -0.2435
      8  C8       -22.1890    3.7070  -13.9770 C.ar  3169  AV93169     0.1020
      9  C9       -22.5090    2.3630  -13.7890 C.ar  3169  AV93169     0.0581
     10  C10      -21.4930    1.3840  -14.0430 C.ar  3169  AV93169     0.1483
     11  O11      -21.6430   -0.0170  -13.9100 O.3   3169  AV93169    -0.4534
     12  C12      -22.7290   -0.5670  -13.2810 C.ar  3169  AV93169     0.1462
     13  C13      -24.0170   -0.6440  -13.9300 C.ar  3169  AV93169     0.0502
     14  C15      -24.9190   -1.7030  -11.8990 C.ar  3169  AV93169     0.0857
     15  C16      -23.6200   -1.6130  -11.2920 C.ar  3169  AV93169     0.0206
     16  C17      -22.5350   -1.0490  -11.9750 C.ar  3169  AV93169     0.0389
     17  O25      -29.2290   -2.9650   -6.3980 O.2   3169  AV93169    -0.3565
     18  C11      -25.1120   -1.2140  -13.2280 C.ar  3169  AV93169     0.0760
     19  N28      -26.0060   -2.2720  -11.1880 N.am  3169  AV93169    -0.1598
     20  O33      -16.7350    0.5530  -15.4410 O.3   3169  AV93169    -0.4684
     21  O34      -16.3620    3.1560  -15.7510 O.3   3169  AV93169    -0.4683
     22  C35      -26.2770   -1.9530   -9.8480 C.2   3169  AV93169     0.3492
     23  O36      -25.6070   -1.1620   -9.1850 O.2   3169  AV93169    -0.2484
     24  N37      -27.3930   -2.6630   -9.3840 N.am  3169  AV93169    -0.1384
     25  C38      -27.9190   -2.5710   -8.0880 C.ar  3169  AV93169     0.1972
     26  C40      -28.4190   -1.5800   -4.5830 C.3   3169  AV93169     0.0754
     27  C30      -28.3170   -2.0510   -5.9750 C.ar  3169  AV93169     0.1563
     28  C43      -27.4700   -1.7670   -6.9950 C.ar  3169  AV93169     0.0752
     29  N21      -28.9850   -3.2950   -7.7250 N.ar  3169  AV93169    -0.0603
     30 CL4       -26.6600   -1.2990  -14.0030 Cl    3169  AV93169    -0.0808
     31  C49      -16.8610   -0.8680  -15.2910 C.3   3169  AV93169     0.2526
     32  C53      -16.0740    4.5530  -15.9390 C.3   3169  AV93169     0.2526
@<TRIPOS>BOND
     1    32    21    1
     2    21     1    1
     3    20    31    1
     4    20     6    1
     5     1     6   ar
     6     1     2   ar
     7     6     5   ar
     8     2     3   ar
     9     5     4   ar
    10     3     4   ar
    11     3     7   ar
    12     4    10   ar
    13     7     8   ar
    14    10    11    1
    15    10     9   ar
    16    30    18    1
    17     8     9   ar
    18    13    12   ar
    19    13    18   ar
    20    11    12    1
    21    12    16   ar
    22    18    14   ar
    23    16    15   ar
    24    14    15   ar
    25    14    19    1
    26    19    22   am
    27    22    24   am
    28    22    23    2
    29    24    25    1
    30    25    29   ar
    31    25    28   ar
    32    29    17   ar
    33    28    27   ar
    34    17    27   ar
    35    27    26    1
