@<TRIPOS>MOLECULE
4asj_N6A_A_1.pdb
 27 29 0 0 0
SMALL
GASTEIGER

@<TRIPOS>ATOM
      1  CAW       38.1180    5.5880   12.1920 C.ar  1294  N6A1294    -0.0003
      2  CAX       37.5080    6.5860   12.9740 C.ar  1294  N6A1294    -0.0002
      3  CBA       37.0900    7.7710   12.3780 C.ar  1294  N6A1294    -0.0000
      4  CAZ       37.2620    7.9580   11.0050 C.ar  1294  N6A1294    -0.0002
      5  CAY       37.8640    6.9550   10.2440 C.ar  1294  N6A1294    -0.0003
      6  CAV       38.2950    5.7510   10.8100 C.ar  1294  N6A1294     0.0256
      7  CAU       38.9090    4.7630   10.0030 C.3   1294  N6A1294     0.2482
      8  NAN       38.1210    3.5230   10.0060 N.am  1294  N6A1294    -0.0751
      9  CAO       37.1590    3.2850    9.0820 C.2   1294  N6A1294     0.4069
     10  NAP       36.8410    4.1550    8.1290 N.pl3 1294  N6A1294     0.2133
     11  CAM       38.3860    2.6030   10.9410 C.1   1294  N6A1294     0.3744
     12  OAL       39.2700    2.7930   11.7660 O.2   1294  N6A1294    -0.1670
     13  NAD       37.6700    1.4300   11.0540 N.2   1294  N6A1294    -0.2253
     14  CAE       36.6600    1.1530   10.1650 C.1   1294  N6A1294     0.2406
     15  OAA       36.0680    0.0950   10.2780 O.2   1294  N6A1294    -0.2069
     16  CAF       36.4050    2.0990    9.1690 C.2   1294  N6A1294     0.2500
     17  NAG       35.5110    1.7820    8.2680 N.pl3 1294  N6A1294    -0.1708
     18  CAB       35.9810    0.7290    7.3430 C.3   1294  N6A1294     0.1403
     19  SAH       33.9550    2.2450    8.3060 S.O2  1294  N6A1294     0.0774
     20  OAQ       33.7890    3.7420    8.2950 O.2   1294  N6A1294    -0.1497
     21  OAC       33.2920    1.7320    7.0680 O.2   1294  N6A1294    -0.1497
     22  CAJ       32.3670    0.3400    9.6470 C.ar  1294  N6A1294     0.0202
     23  CAI       33.1730    1.4560    9.7940 C.ar  1294  N6A1294     0.1254
     24  CAR       33.3280    1.9950   11.0620 C.ar  1294  N6A1294     0.0202
     25  CAS       32.7320    1.4000   12.1730 C.ar  1294  N6A1294     0.0014
     26  CAT       31.9710    0.2630   12.0140 C.ar  1294  N6A1294     0.0001
     27  CAK       31.7860   -0.2730   10.7450 C.ar  1294  N6A1294     0.0014
@<TRIPOS>BOND
     1    21    19    2
     2    18    17    1
     3    10     9    1
     4    17    19    1
     5    17    16    1
     6    20    19    2
     7    19    23    1
     8     9    16    2
     9     9     8    1
    10    16    14    1
    11    22    23   ar
    12    22    27   ar
    13    23    24   ar
    14     7     8    1
    15     7     6    1
    16     8    11   am
    17    14    15    2
    18    14    13    2
    19     5     6   ar
    20     5     4   ar
    21    27    26   ar
    22     6     1   ar
    23    11    13    2
    24    11    12    2
    25     4     3   ar
    26    24    25   ar
    27    26    25   ar
    28     1     2   ar
    29     3     2   ar
