@<TRIPOS>MOLECULE
4ask_K0I_A_1.pdb
 29 32 0 0 0
SMALL
GASTEIGER

@<TRIPOS>ATOM
      1  O2        47.7830   19.3300  -21.8310 O.co2 2639  K0I2639    -0.2456
      2  C1        48.9660   19.6350  -21.8470 C.2   2639  K0I2639     0.3667
      3  O1        49.5290   20.3580  -22.8130 O.co2 2639  K0I2639    -0.2456
      4  C2        49.9300   19.2240  -20.7590 C.3   2639  K0I2639     0.1374
      5  C3        49.7830   17.7690  -20.3450 C.3   2639  K0I2639     0.1264
      6  N1        50.4600   17.4790  -19.0920 N.pl3 2639  K0I2639    -0.2117
      7  C4        50.4570   16.2390  -18.5450 C.2   2639  K0I2639     0.1970
      8  N3        51.2090   16.0710  -17.4480 N.2   2639  K0I2639    -0.3260
      9  C7        51.2000   14.8370  -16.8940 C.1   2639  K0I2639     0.1582
     10  C8        52.0400   14.6320  -15.6830 C.ar  2639  K0I2639     0.1663
     11  N4        52.7060   15.7050  -15.2170 N.ar  2639  K0I2639    -0.2318
     12  C12       53.4840   15.5340  -14.1440 C.ar  2639  K0I2639     0.0997
     13  C11       53.6230   14.3250  -13.4760 C.ar  2639  K0I2639     0.0207
     14  C10       52.9260   13.2320  -13.9630 C.ar  2639  K0I2639     0.0039
     15  C9        52.1220   13.3710  -15.0790 C.ar  2639  K0I2639     0.0315
     16  N2        50.5060   13.7770  -17.3420 N.2   2639  K0I2639    -0.3274
     17  C6        49.7810   13.9730  -18.4460 C.2   2639  K0I2639     0.1812
     18  C5        49.7150   15.2090  -19.0770 C.3   2639  K0I2639     0.1528
     19  N5        49.0270   12.8880  -18.8750 N.pl3 2639  K0I2639    -0.2852
     20  C22       48.1710   12.9280  -20.0620 C.3   2639  K0I2639     0.0975
     21  C21       46.8740   13.5550  -19.5460 C.3   2639  K0I2639     0.0475
     22  C20       45.9530   12.5770  -18.8320 C.ar  2639  K0I2639    -0.0244
     23  C15       46.3640   11.8330  -17.7160 C.ar  2639  K0I2639    -0.0244
     24  C14       47.7490   11.9360  -17.1090 C.3   2639  K0I2639     0.0475
     25  C13       48.9310   11.6860  -18.0540 C.3   2639  K0I2639     0.0975
     26  C19       44.6450   12.4490  -19.3190 C.ar  2639  K0I2639    -0.0045
     27  C18       43.7460   11.5870  -18.7060 C.ar  2639  K0I2639    -0.0003
     28  C17       44.1420   10.8450  -17.6000 C.ar  2639  K0I2639    -0.0003
     29  C16       45.4410   10.9720  -17.1070 C.ar  2639  K0I2639    -0.0045
@<TRIPOS>BOND
     1     3     2   ar
     2     2     1   ar
     3     2     4    1
     4     4     5    1
     5     5     6    1
     6    20    21    1
     7    20    19    1
     8    21    22    1
     9    26    22   ar
    10    26    27   ar
    11     6     7    1
    12    18     7    1
    13    18    17    1
    14    19    17    1
    15    19    25    1
    16    22    23   ar
    17    27    28   ar
    18     7     8    2
    19    17    16    2
    20    25    24    1
    21    23    24    1
    22    23    29   ar
    23    28    29   ar
    24     8     9    2
    25    16     9    2
    26     9    10    1
    27    10    11   ar
    28    10    15   ar
    29    11    12   ar
    30    15    14   ar
    31    12    13   ar
    32    14    13   ar
