@<TRIPOS>MOLECULE
4asl_NGA_A_1.pdb
 14 14 0 0 0
SMALL
GASTEIGER

@<TRIPOS>ATOM
      1  C1        59.8060    8.2170   -3.9220 C.3   1270  NGA1270     0.2892
      2  C2        58.4510    7.9560   -3.2890 C.3   1270  NGA1270     0.1569
      3  C3        57.9460    9.2320   -2.6370 C.3   1270  NGA1270     0.0625
      4  C4        59.0010    9.7960   -1.7040 C.3   1270  NGA1270     0.1835
      5  C5        60.3640    9.9420   -2.3620 C.3   1270  NGA1270     0.1809
      6  C6        61.3610   10.4050   -1.3150 C.3   1270  NGA1270     0.2141
      7  C7        56.7950    6.3430   -4.0880 C.2   1270  NGA1270     0.2420
      8  C8        55.9090    5.8870   -5.2130 C.3   1270  NGA1270     0.0964
      9  N2        57.5070    7.4650   -4.2840 N.am  1270  NGA1270    -0.2018
     10  O3        60.2490    6.9870   -4.5060 O.3   1270  NGA1270    -0.1880
     11  O4        59.1110    8.9010   -0.5930 O.3   1270  NGA1270    -0.2204
     12  O5        60.7070    8.6770   -2.9060 O.3   1270  NGA1270    -0.3244
     13  O6        62.4520   11.1020   -1.9270 O.3   1270  NGA1270    -0.2176
     14  O7        56.8550    5.7080   -3.0460 O.2   1270  NGA1270    -0.2733
@<TRIPOS>BOND
     1     8     7    1
     2    10     1    1
     3     9     7   am
     4     9     2    1
     5     7    14    2
     6     1     2    1
     7     1    12    1
     8     2     3    1
     9    12     5    1
    10     3     4    1
    11     5     4    1
    12     5     6    1
    13    13     6    1
    14     4    11    1
