@<TRIPOS>MOLECULE
4asl_GAL_A_1.pdb
 12 12 0 0 0
SMALL
GASTEIGER

@<TRIPOS>ATOM
      1  C1        55.4190    9.2180   -2.6870 C.3   1269  GAL1269     0.3024
      2  C2        54.3370    9.1100   -1.6390 C.3   1269  GAL1269     0.2434
      3  C3        52.9940    9.3520   -2.2590 C.3   1269  GAL1269     0.2199
      4  C4        52.9940   10.6150   -3.1190 C.3   1269  GAL1269     0.2144
      5  C5        54.1660   10.5940   -4.0910 C.3   1269  GAL1269     0.1836
      6  C6        54.2620   11.8730   -4.8970 C.3   1269  GAL1269     0.2142
      7  O1        56.6660    9.0910   -2.0050 O.3   1269  GAL1269    -0.1869
      8  O2        54.3550    7.7880   -1.1060 O.3   1269  GAL1269    -0.2148
      9  O3        52.0710    9.4970   -1.1990 O.3   1269  GAL1269    -0.2174
     10  O4        53.0300   11.7730   -2.2680 O.3   1269  GAL1269    -0.2176
     11  O5        55.3830   10.4410   -3.3910 O.3   1269  GAL1269    -0.3236
     12  O6        55.2880   11.7520   -5.8920 O.3   1269  GAL1269    -0.2176
@<TRIPOS>BOND
     1    12     6    1
     2     6     5    1
     3     5    11    1
     4     5     4    1
     5    11     1    1
     6     4    10    1
     7     4     3    1
     8     1     7    1
     9     1     2    1
    10     3     2    1
    11     3     9    1
    12     2     8    1
