@<TRIPOS>MOLECULE
4asq_III_P_1.pdb
 25 26 0 0 0
SMALL
GASTEIGER

@<TRIPOS>ATOM
      1  N        -13.7470   22.3860  -12.1290 N.3     1  ARG1       -0.1231
      2  CA       -14.3090   22.5100  -10.7550 C.3     1  ARG1        0.1679
      3  C        -15.8300   22.5030  -10.8520 C.2     1  ARG1        0.2434
      4  O        -16.3850   23.0580  -11.8040 O.2     1  ARG1       -0.2733
      5  CB       -13.8120   23.7910  -10.0810 C.3     1  ARG1        0.0321
      6  CG       -12.3100   23.8210   -9.8780 C.3     1  ARG1        0.0489
      7  CD       -11.8150   25.1750   -9.4020 C.3     1  ARG1        0.2205
      8  NE       -10.4630   25.4280   -9.8990 N.pl3   1  ARG1       -0.0865
      9  CZ        -9.5550   26.1910   -9.2960 C.cat   1  ARG1        0.5346
     10  NH1       -9.8270   26.7910   -8.1410 N.pl3   1  ARG1        0.1354
     11  NH2       -8.3590   26.3440   -9.8490 N.pl3   1  ARG1        0.1354
     12  N        -16.5150   21.8630   -9.8830 N.am    2  PRO2       -0.2718
     13  CA       -17.9720   21.8740   -9.9370 C.3     2  PRO2        0.1520
     14  C        -18.4810   23.3060   -9.8390 C.2     2  PRO2        0.2440
     15  O        -17.8270   24.1380   -9.2060 O.2     2  PRO2       -0.2731
     16  CB       -18.3850   21.0920   -8.6830 C.3     2  PRO2        0.0310
     17  CG       -17.1780   20.3850   -8.2320 C.3     2  PRO2        0.0237
     18  CD       -16.0200   21.2090   -8.6610 C.3     2  PRO2        0.0939
     19  N        -19.6300   23.6010  -10.4720 N.am    3  PRO3       -0.2727
     20  CA       -20.2460   24.9200  -10.3290 C.3     3  PRO3        0.1402
     21  C        -20.5150   25.2630   -8.8630 C.2     3  PRO3        0.2269
     22  O        -20.6330   26.4290   -8.4970 O.2     3  PRO3       -0.2865
     23  CB       -21.5710   24.7760  -11.0860 C.3     3  PRO3        0.0296
     24  CG       -21.7880   23.3090  -11.2430 C.3     3  PRO3        0.0237
     25  CD       -20.4210   22.7280  -11.3560 C.3     3  PRO3        0.0939
@<TRIPOS>BOND
     1     1     2    1
     2     4     3    2
     3    25    24    1
     4    25    19    1
     5    24    23    1
     6    23    20    1
     7     3     2    1
     8     3    12   am
     9     2     5    1
    10    19    20    1
    11    19    14   am
    12    20    21    1
    13     5     6    1
    14    13    12    1
    15    13    14    1
    16    13    16    1
    17     8     7    1
    18     8     9    2
    19    12    18    1
    20     6     7    1
    21    11     9    1
    22    14    15    2
    23     9    10    1
    24    21    22    2
    25    16    17    1
    26    18    17    1
