@<TRIPOS>MOLECULE
4asr_III_P_1.pdb
 25 26 0 0 0
SMALL
GASTEIGER

@<TRIPOS>ATOM
      1  N         26.2860   -0.7380   46.1310 N.3     1  ARG1       -0.1231
      2  CA        26.6820   -1.1690   44.7600 C.3     1  ARG1        0.1679
      3  C         27.4440   -2.4830   44.8750 C.2     1  ARG1        0.2434
      4  O         28.2280   -2.6560   45.8110 O.2     1  ARG1       -0.2733
      5  CB        27.5360   -0.0980   44.0790 C.3     1  ARG1        0.0321
      6  CG        26.8530    1.2570   43.9980 C.3     1  ARG1        0.0489
      7  CD        27.7590    2.3370   43.4390 C.3     1  ARG1        0.2205
      8  NE        27.4080    3.6400   44.0020 N.pl3   1  ARG1       -0.0865
      9  CZ        27.5990    4.8120   43.4010 C.cat   1  ARG1        0.5346
     10  NH1       28.1340    4.8770   42.1860 N.pl3   1  ARG1        0.1354
     11  NH2       27.2380    5.9290   44.0190 N.pl3   1  ARG1        0.1354
     12  N         27.1980   -3.4310   43.9490 N.am    2  PRO2       -0.2718
     13  CA        27.9470   -4.6780   44.0380 C.3     2  PRO2        0.1520
     14  C         29.4430   -4.4090   43.8940 C.2     2  PRO2        0.2440
     15  O         29.8260   -3.4380   43.2340 O.2     2  PRO2       -0.2731
     16  CB        27.4230   -5.5020   42.8520 C.3     2  PRO2        0.0310
     17  CG        26.7670   -4.5340   41.9470 C.3     2  PRO2        0.0237
     18  CD        26.2610   -3.4290   42.8130 C.3     2  PRO2        0.0939
     19  N         30.2860   -5.2440   44.5270 N.am    3  PRO3       -0.2727
     20  CA        31.7300   -5.0860   44.3640 C.3     3  PRO3        0.1402
     21  C         32.1480   -5.1900   42.8980 C.2     3  PRO3        0.2269
     22  O         33.2280   -4.7510   42.5190 O.2     3  PRO3       -0.2865
     23  CB        32.3080   -6.2570   45.1650 C.3     3  PRO3        0.0296
     24  CG        31.1810   -7.2030   45.3720 C.3     3  PRO3        0.0237
     25  CD        29.9590   -6.3520   45.4400 C.3     3  PRO3        0.0939
@<TRIPOS>BOND
     1    17    18    1
     2    17    16    1
     3    10     9    1
     4    22    21    2
     5    18    12    1
     6    16    13    1
     7    21    20    1
     8    15    14    2
     9     9     8    2
    10     9    11    1
    11     7     6    1
    12     7     8    1
    13    14    13    1
    14    14    19   am
    15    12    13    1
    16    12     3   am
    17     6     5    1
    18     5     2    1
    19    20    19    1
    20    20    23    1
    21    19    25    1
    22     2     3    1
    23     2     1    1
    24     3     4    2
    25    23    24    1
    26    24    25    1
