@<TRIPOS>MOLECULE
4asu_ADP_A_1.pdb
 27 29 0 0 0
SMALL
GASTEIGER

@<TRIPOS>ATOM
      1  PB       -35.0950   24.2450   37.7630 P.3   600  ADP600      0.5373
      2  O1B      -36.2380   23.6790   36.9570 O.2   600  ADP600     -0.2221
      3  O2B      -34.4090   25.4280   37.1250 O.3   600  ADP600     -0.1143
      4  O3B      -34.1550   23.2110   38.3360 O.3   600  ADP600     -0.1143
      5  PA       -36.5290   26.2800   39.1110 P.3   600  ADP600      0.2231
      6  O1A      -37.4730   26.3890   37.9370 O.2   600  ADP600     -0.5169
      7  O2A      -35.4690   27.3340   39.3220 O.3   600  ADP600     -0.4370
      8  O3A      -35.8240   24.8320   39.0720 O.3   600  ADP600     -0.2261
      9  O5'      -37.3870   26.1650   40.4680 O.3   600  ADP600     -0.3111
     10  C5'      -38.5840   25.3890   40.5340 C.3   600  ADP600      0.1813
     11  C4'      -39.5140   25.9820   41.5890 C.3   600  ADP600      0.1821
     12  O4'      -38.8510   25.9850   42.8550 O.3   600  ADP600     -0.3135
     13  C3'      -39.9040   27.4210   41.2700 C.3   600  ADP600      0.2184
     14  O3'      -41.3290   27.5420   41.2290 O.3   600  ADP600     -0.2174
     15  C2'      -39.3200   28.2680   42.3860 C.3   600  ADP600      0.2570
     16  O2'      -40.2690   29.2220   42.8770 O.3   600  ADP600     -0.2130
     17  C1'      -38.9510   27.2710   43.4760 C.3   600  ADP600      0.3186
     18  N9       -37.6750   27.6490   44.1410 N.pl3 600  ADP600     -0.1439
     19  C8       -36.4300   27.3930   43.6920 C.3   600  ADP600      0.3377
     20  N7       -35.4900   27.8750   44.5460 N.2   600  ADP600     -0.2095
     21  C5       -36.1370   28.4530   45.5750 C.2   600  ADP600      0.2526
     22  C6       -35.7570   29.1570   46.8270 C.2   600  ADP600      0.4393
     23  N6       -34.4570   29.3440   47.1570 N.pl3 600  ADP600      0.2180
     24  N1       -36.7520   29.6070   47.6290 N.2   600  ADP600      0.0021
     25  C2       -38.0530   29.4310   47.3180 C.3   600  ADP600      0.5254
     26  N3       -38.4690   28.8030   46.2010 N.2   600  ADP600     -0.0055
     27  C4       -37.5780   28.3000   45.3050 C.2   600  ADP600      0.3518
@<TRIPOS>BOND
     1     2     1    2
     2     3     1    1
     3     1     4    1
     4     1     8    1
     5     6     5    2
     6     8     5    1
     7     5     7    1
     8     5     9    1
     9     9    10    1
    10    10    11    1
    11    14    13    1
    12    13    11    1
    13    13    15    1
    14    11    12    1
    15    15    16    1
    16    15    17    1
    17    12    17    1
    18    17    18    1
    19    19    18    1
    20    19    20    1
    21    18    27    1
    22    20    21    2
    23    27    21    1
    24    27    26    2
    25    21    22    1
    26    26    25    1
    27    22    23    1
    28    22    24    2
    29    25    24    1
