@<TRIPOS>MOLECULE
4asx_6OJ_A_1.pdb
 17 19 0 0 0
SMALL
GASTEIGER

@<TRIPOS>ATOM
      1  C01      -40.2480   44.4360    9.5390 C.3   1487  6OJ1487     0.1311
      2  N02      -39.0510   45.1040    9.1020 N.ar  1487  6OJ1487    -0.3155
      3  C03      -38.1800   45.7300    9.9110 C.ar  1487  6OJ1487     0.1445
      4  C04      -38.1870   45.9600   11.3870 C.1   1487  6OJ1487     0.1708
      5  N05      -37.0160   46.5770   11.7610 N.2   1487  6OJ1487    -0.1735
      6  C06      -35.7840   47.0350   11.1950 C.2   1487  6OJ1487     0.1112
      7  C07      -35.8850   47.0370    9.6530 C.2   1487  6OJ1487     0.0237
      8  C08      -37.0950   46.2480    9.0710 C.ar  1487  6OJ1487     0.0301
      9  C09      -37.3680   45.8510    7.7540 C.ar  1487  6OJ1487     0.0189
     10  C10      -36.6740   46.1120    6.5680 C.ar  1487  6OJ1487     0.0024
     11  C11      -37.2130   45.6450    5.3730 C.ar  1487  6OJ1487     0.0123
     12  C12      -38.4350   44.9360    5.4060 C.ar  1487  6OJ1487     0.0696
     13  C13      -39.1270   44.6870    6.5850 C.ar  1487  6OJ1487     0.0839
     14  C14      -38.5820   45.1640    7.7790 C.ar  1487  6OJ1487     0.0720
     15 CL1       -40.6480   43.8370    6.5670 Cl    1487  6OJ1487    -0.0799
     16 CL2       -39.0450   44.3580    3.9200 Cl    1487  6OJ1487    -0.0813
     17  O17      -39.1110   45.7040   12.1350 O.2   1487  6OJ1487    -0.2204
@<TRIPOS>BOND
     1    16    12    1
     2    11    12   ar
     3    11    10   ar
     4    12    13   ar
     5    15    13    1
     6    10     9   ar
     7    13    14   ar
     8     9    14   ar
     9     9     8   ar
    10    14     2   ar
    11     8     7    1
    12     8     3   ar
    13     2     1    1
    14     2     3   ar
    15     7     6    2
    16     3     4    1
    17     6     5    1
    18     4     5    2
    19     4    17    2
