@<TRIPOS>MOLECULE
4asy_N5Y_A_1.pdb
 26 28 0 0 0
SMALL
GASTEIGER

@<TRIPOS>ATOM
      1  CAY       13.4760   -0.1410    3.1730 C.ar  1294  N5Y1294    -0.0003
      2  CAZ       14.4790    0.8030    2.9490 C.ar  1294  N5Y1294    -0.0002
      3  CBA       15.6340    0.7780    3.7270 C.ar  1294  N5Y1294    -0.0000
      4  CAX       15.7760   -0.2020    4.7010 C.ar  1294  N5Y1294    -0.0002
      5  CAW       14.7810   -1.1470    4.9300 C.ar  1294  N5Y1294    -0.0003
      6  CAV       13.6130   -1.1150    4.1740 C.ar  1294  N5Y1294     0.0256
      7  CAU       12.5490   -2.0280    4.3110 C.3   1294  N5Y1294     0.2482
      8  NAN       12.3810   -2.8770    5.5620 N.am  1294  N5Y1294    -0.0751
      9  CAO       11.4100   -2.5800    6.4510 C.2   1294  N5Y1294     0.4058
     10  NAP       10.6350   -1.4870    6.3140 N.pl3 1294  N5Y1294     0.2132
     11  CAM       13.1230   -4.0010    5.7270 C.1   1294  N5Y1294     0.3744
     12  OAL       13.9910   -4.2800    4.8940 O.2   1294  N5Y1294    -0.1670
     13  NAD       12.9440   -4.8520    6.8430 N.2   1294  N5Y1294    -0.2253
     14  CAE       11.9570   -4.5400    7.8060 C.1   1294  N5Y1294     0.2395
     15  OAA       11.8020   -5.2620    8.7960 O.2   1294  N5Y1294    -0.2069
     16  CAF       11.2050   -3.3680    7.5970 C.2   1294  N5Y1294     0.2375
     17  NAG       10.2030   -3.0410    8.4400 N.am  1294  N5Y1294    -0.2374
     18  OAC        9.2810   -2.5090   10.4160 O.2   1294  N5Y1294    -0.2696
     19  CA0       10.2980   -2.7160    9.7520 C.2   1294  N5Y1294     0.2535
     20  CAT       11.5410   -2.5870   10.3840 C.ar  1294  N5Y1294     0.0539
     21  CAS       12.6490   -1.9760    9.7780 C.ar  1294  N5Y1294     0.0045
     22  CAR       13.8470   -1.8470   10.4830 C.ar  1294  N5Y1294     0.0001
     23  CAI       13.9350   -2.3200   11.7890 C.ar  1294  N5Y1294     0.0000
     24  CAJ       12.8410   -2.9050   12.4000 C.ar  1294  N5Y1294     0.0001
     25  CAA        8.8290   -3.1820    7.9170 C.3   1294  N5Y1294     0.1213
     26  CAK       11.6460   -3.0410   11.7040 C.ar  1294  N5Y1294     0.0045
@<TRIPOS>BOND
     1     2     1   ar
     2     2     3   ar
     3     1     6   ar
     4     3     4   ar
     5     6     7    1
     6     6     5   ar
     7     7     8    1
     8     4     5   ar
     9    12    11    2
    10     8    11   am
    11     8     9    1
    12    11    13    2
    13    10     9    1
    14     9    16    2
    15    13    14    2
    16    16    14    1
    17    16    17    1
    18    14    15    2
    19    25    17    1
    20    17    19   am
    21    19    20    1
    22    19    18    2
    23    21    20   ar
    24    21    22   ar
    25    20    26   ar
    26    22    23   ar
    27    26    24   ar
    28    23    24   ar
