@<TRIPOS>MOLECULE
4at1_ATP_B_1.pdb
 31 34 0 0 0
SMALL
GASTEIGER

@<TRIPOS>ATOM
      1  PG         5.5350   80.8660   26.2420 P.3   155  ATP155      0.5373
      2  O1G        5.0490   80.7120   27.7050 O.3   155  ATP155     -0.1143
      3  O2G        5.6510   82.2740   25.9320 O.3   155  ATP155     -0.1143
      4  O3G        4.4840   80.4130   25.4850 O.2   155  ATP155     -0.2221
      5  PB         8.0840   79.5270   25.4010 P.3   155  ATP155      0.2277
      6  O1B        7.7990   79.7410   23.8360 O.2   155  ATP155     -0.5168
      7  O2B        8.5540   78.2170   25.8920 O.3   155  ATP155     -0.4368
      8  O3B        6.9130   80.2220   26.3810 O.3   155  ATP155     -0.2258
      9  PA        10.1140   81.6610   24.8800 P.3   155  ATP155      0.2189
     10  O1A       10.7180   81.0090   23.6430 O.2   155  ATP155     -0.5170
     11  O2A        8.9600   82.7170   24.7060 O.3   155  ATP155     -0.4371
     12  O3A        9.3910   80.5630   25.6860 O.3   155  ATP155     -0.2700
     13  O5'       11.2500   82.0690   25.7350 O.3   155  ATP155     -0.3112
     14  C5'       11.2540   82.0290   27.3030 C.3   155  ATP155      0.1813
     15  C4'       12.6850   81.6810   27.8380 C.3   155  ATP155      0.1821
     16  O4'       13.6180   82.3360   26.7900 O.3   155  ATP155     -0.3135
     17  C3'       13.0640   82.4110   28.9510 C.3   155  ATP155      0.2184
     18  O3'       14.0430   81.5100   29.7080 O.3   155  ATP155     -0.2173
     19  C2'       13.7130   83.8210   28.6860 C.3   155  ATP155      0.2569
     20  O2'       14.5500   82.9610   29.6410 O.3   155  ATP155     -0.2132
     21  C1'       14.5270   83.2710   27.4670 C.3   155  ATP155      0.3186
     22  N9        14.6050   84.3480   26.4290 N.pl3 155  ATP155     -0.1439
     23  C8        13.5540   84.8250   25.6470 C.3   155  ATP155      0.3377
     24  N7        13.8670   85.9560   25.0220 N.2   155  ATP155     -0.2095
     25  C5        15.1660   86.1900   25.3710 C.2   155  ATP155      0.2526
     26  C6        16.0630   87.2760   25.0660 C.2   155  ATP155      0.4393
     27  N6        15.7530   88.2850   24.2810 N.pl3 155  ATP155      0.2180
     28  N1        17.2620   87.2180   25.7100 N.2   155  ATP155      0.0021
     29  C2        17.6310   86.1770   26.5030 C.3   155  ATP155      0.5254
     30  N3        16.8720   85.1580   26.8260 N.2   155  ATP155     -0.0055
     31  C4        15.6520   85.2330   26.2730 C.2   155  ATP155      0.3518
@<TRIPOS>BOND
     1    10     9    2
     2     6     5    2
     3    27    26    1
     4    11     9    1
     5     9    12    1
     6     9    13    1
     7    24    25    2
     8    24    23    1
     9    26    25    1
    10    26    28    2
    11    25    31    1
    12     5    12    1
    13     5     7    1
    14     5     8    1
    15     4     1    2
    16    23    22    1
    17    28    29    1
    18    13    14    1
    19     3     1    1
    20     1     8    1
    21     1     2    1
    22    31    22    1
    23    31    30    2
    24    22    21    1
    25    29    30    1
    26    16    21    1
    27    16    15    1
    28    14    15    1
    29    21    19    1
    30    15    17    1
    31    19    17    1
    32    19    20    1
    33    17    18    1
    34    20    18    1
