@<TRIPOS>MOLECULE
4at2_ASD_A_1.pdb
 21 24 0 0 0
SMALL
GASTEIGER

@<TRIPOS>ATOM
      1  C1        35.3640   19.3750   40.4280 C.3   1490  ASD1490     0.0118
      2  C10       34.9590   18.0320   41.0620 C.3   1490  ASD1490     0.0157
      3  C11       33.5940   17.3790   38.9650 C.3   1490  ASD1490     0.0007
      4  C12       32.2790   16.8520   38.3400 C.3   1490  ASD1490     0.0069
      5  C13       31.7360   15.6750   39.1450 C.3   1490  ASD1490     0.0515
      6  C14       31.5730   16.1110   40.6000 C.3   1490  ASD1490     0.0070
      7  C15       30.6330   15.0760   41.2360 C.3   1490  ASD1490     0.0082
      8  C16       29.5890   14.8150   40.1370 C.3   1490  ASD1490     0.0645
      9  C17       30.3200   15.2590   38.8800 C.2   1490  ASD1490     0.1498
     10  C18       32.5710   14.4100   38.9190 C.3   1490  ASD1490     0.0073
     11  C19       36.0280   16.9770   40.7660 C.3   1490  ASD1490     0.0041
     12  C2        36.6460   19.9990   41.0210 C.3   1490  ASD1490     0.0694
     13  C3        36.6780   19.9100   42.5320 C.2   1490  ASD1490     0.1725
     14  C4        35.6580   19.0880   43.2310 C.2   1490  ASD1490     0.0289
     15  C5        34.8970   18.1810   42.5740 C.2   1490  ASD1490    -0.0420
     16  C6        34.0110   17.2660   43.4100 C.3   1490  ASD1490     0.0221
     17  C7        32.6790   16.9600   42.7270 C.3   1490  ASD1490     0.0044
     18  C8        32.8960   16.4750   41.2940 C.3   1490  ASD1490     0.0010
     19  C9        33.5780   17.6140   40.4940 C.3   1490  ASD1490     0.0035
     20  O1        37.5200   20.5340   43.1770 O.2   1490  ASD1490    -0.2914
     21  O2        29.8220   15.2580   37.7610 O.2   1490  ASD1490    -0.2961
@<TRIPOS>BOND
     1    21     9    2
     2     4     3    1
     3     4     5    1
     4     9     5    1
     5     9     8    1
     6    10     5    1
     7     3    19    1
     8     5     6    1
     9     8     7    1
    10     1    12    1
    11     1     2    1
    12    19     2    1
    13    19    18    1
    14     6     7    1
    15     6    18    1
    16    11     2    1
    17    12    13    1
    18     2    15    1
    19    18    17    1
    20    13    20    2
    21    13    14    1
    22    15    14    2
    23    15    16    1
    24    17    16    1
