@<TRIPOS>MOLECULE
4at3_LTI_A_1.pdb
 24 26 0 0 0
SMALL
GASTEIGER

@<TRIPOS>ATOM
      1  C22       13.3220  -25.5450  -17.7510 C.ar  1839  LTI1839    -0.0003
      2  C21       12.0560  -24.9430  -17.8780 C.ar  1839  LTI1839    -0.0003
      3  C23       13.4100  -26.9620  -17.7420 C.ar  1839  LTI1839    -0.0046
      4  C20       10.8950  -25.7770  -17.9850 C.ar  1839  LTI1839    -0.0037
      5  C5         8.2370  -27.5110  -14.1870 C.ar  1839  LTI1839     0.1036
      6  C18       12.2720  -27.7940  -17.8540 C.ar  1839  LTI1839    -0.0253
      7  C19       10.9900  -27.1960  -17.9800 C.ar  1839  LTI1839    -0.0160
      8  C1         8.2630  -27.6670  -15.6210 C.ar  1839  LTI1839     0.1211
      9  C4         7.3380  -26.4760  -13.8760 C.ar  1839  LTI1839     0.1284
     10  C10        8.9480  -28.2450  -13.1180 C.2   1839  LTI1839     0.2880
     11  C7         6.1130  -25.0490  -12.2380 C.2   1839  LTI1839     0.3637
     12  C17       12.4860  -29.2770  -17.8230 C.3   1839  LTI1839     0.0261
     13  C16       12.0320  -29.9220  -19.1090 C.3   1839  LTI1839     0.0047
     14  C15       10.5490  -30.2020  -19.0960 C.3   1839  LTI1839     0.0016
     15  C14        9.7540  -28.9280  -19.3110 C.3   1839  LTI1839     0.0156
     16  C13        9.7150  -27.9930  -18.0920 C.3   1839  LTI1839     0.0752
     17  N2         7.4910  -26.8530  -16.3430 N.ar  1839  LTI1839    -0.2015
     18  N12        9.9860  -29.0250  -13.5250 N.am  1839  LTI1839    -0.0836
     19  N9         6.0130  -24.8860  -10.8790 N.am  1839  LTI1839    -0.0676
     20  N6         7.0030  -26.0360  -12.5910 N.am  1839  LTI1839    -0.1513
     21  O11        8.6470  -28.1510  -11.9300 O.2   1839  LTI1839    -0.2665
     22  O8         5.4600  -24.3810  -13.0240 O.2   1839  LTI1839    -0.2470
     23  S3         6.6570  -25.8130  -15.3220 S.2   1839  LTI1839     0.0306
     24  S24        9.2060  -28.8400  -16.5220 S.3   1839  LTI1839    -0.0905
@<TRIPOS>BOND
     1    15    14    1
     2    15    16    1
     3    13    14    1
     4    13    12    1
     5    16     7    1
     6    16    24    1
     7     4     7   ar
     8     4     2   ar
     9     7     6   ar
    10     2     1   ar
    11     6    12    1
    12     6     3   ar
    13     1     3   ar
    14    24     8    1
    15    17     8   ar
    16    17    23   ar
    17     8     5   ar
    18    23     9   ar
    19     5     9   ar
    20     5    10    1
    21     9    20    1
    22    18    10   am
    23    10    21    2
    24    22    11    2
    25    20    11   am
    26    11    19   am
