@<TRIPOS>MOLECULE
4at4_T6E_A_1.pdb
 31 34 0 0 0
SMALL
GASTEIGER

@<TRIPOS>ATOM
      1  C4        52.9060   28.6960   15.3230 C.2   1839  T6E1839     0.3986
      2  C5        52.0530   28.3980   16.4690 C.3   1839  T6E1839     0.1825
      3  C6        50.8210   27.7030   16.1800 C.2   1839  T6E1839     0.1031
      4  N1        50.4080   27.3150   14.9240 N.2   1839  T6E1839    -0.2156
      5  N3        52.5210   28.3140   14.0220 N.2   1839  T6E1839    -0.0325
      6  NBF       54.0990   29.3550   15.4090 N.pl3 1839  T6E1839     0.2114
      7  C2        51.3100   27.6400   13.9130 C.3   1839  T6E1839     0.3919
      8  CBB       52.1560   28.6440   17.8690 C.2   1839  T6E1839     0.0019
      9  CAZ       53.2580   29.2750   18.5370 C.ar  1839  T6E1839    -0.0025
     10  CAO       53.2260   30.5790   19.1240 C.ar  1839  T6E1839     0.0011
     11  CAM       54.3920   31.0800   19.7780 C.ar  1839  T6E1839     0.0166
     12  CAN       54.4370   28.4740   18.5830 C.ar  1839  T6E1839     0.0011
     13  CAL       55.5880   28.9590   19.2270 C.ar  1839  T6E1839     0.0166
     14  CAX       55.5870   30.2810   19.8280 C.ar  1839  T6E1839     0.0750
     15  NAT       56.7420   30.8180   20.5000 N.am  1839  T6E1839    -0.1607
     16  CAV       58.0810   30.3500   20.5270 C.2   1839  T6E1839     0.3478
     17  OAD       58.4690   29.3570   19.9430 O.2   1839  T6E1839    -0.2484
     18  NAU       58.9450   31.1410   21.3110 N.am  1839  T6E1839    -0.1584
     19  CAY       60.1970   30.6950   21.8080 C.ar  1839  T6E1839     0.1023
     20  CAP       61.1920   30.1110   20.9630 C.ar  1839  T6E1839     0.0228
     21  CAJ       60.4830   30.8460   23.2130 C.ar  1839  T6E1839     0.1554
     22  CAH       61.7320   30.4230   23.7630 C.ar  1839  T6E1839     0.0309
     23  CAK       62.6990   29.8350   22.8990 C.ar  1839  T6E1839     0.0062
     24  CBA       62.4180   29.6820   21.5110 C.ar  1839  T6E1839     0.0729
     25  CBG       63.4610   29.0530   20.6080 C.3   1839  T6E1839     0.4186
     26  FAF       64.3100   29.8940   20.0380 F     1839  T6E1839    -0.1659
     27  FAG       62.9270   28.3790   19.5790 F     1839  T6E1839    -0.1659
     28  FAE       64.2400   28.1640   21.2110 F     1839  T6E1839    -0.1659
     29  F1        59.5760   31.3910   24.0080 F     1839  T6E1839    -0.2028
     30  S         49.9080   27.4120   17.6000 S.3   1839  T6E1839    -0.0715
     31  C8        51.0980   28.1730   18.5590 C.2   1839  T6E1839     0.0333
@<TRIPOS>BOND
     1     7     5    1
     2     7     4    1
     3     5     1    2
     4     4     3    2
     5     1     6    1
     6     1     2    1
     7     3     2    1
     8     3    30    1
     9     2     8    1
    10    30    31    1
    11     8     9    1
    12     8    31    2
    13     9    12   ar
    14     9    10   ar
    15    12    13   ar
    16    10    11   ar
    17    13    14   ar
    18    27    25    1
    19    11    14   ar
    20    14    15    1
    21    17    16    2
    22    26    25    1
    23    15    16   am
    24    16    18   am
    25    25    28    1
    26    25    24    1
    27    20    24   ar
    28    20    19   ar
    29    18    19    1
    30    24    23   ar
    31    19    21   ar
    32    23    22   ar
    33    21    22   ar
    34    21    29    1
