@<TRIPOS>MOLECULE
4at5_MUJ_A_1.pdb
 27 29 0 0 0
SMALL
GASTEIGER

@<TRIPOS>ATOM
      1  N1        -9.2660   27.1160  -13.5870 N.2   1839  MUJ1839    -0.3170
      2  C2        -8.7370   27.1420  -15.9480 C.2   1839  MUJ1839     0.0500
      3  C3        -9.4160   27.6670  -14.8070 C.2   1839  MUJ1839     0.2297
      4  C4        -7.9340   26.0530  -15.7100 C.2   1839  MUJ1839     0.1118
      5  C5        -8.4470   26.0470  -13.4930 C.1   1839  MUJ1839     0.1877
      6  N6        -7.7640   25.4820  -14.5130 N.2   1839  MUJ1839    -0.1675
      7  C7        -8.8860   27.7420  -17.3330 C.3   1839  MUJ1839     0.0584
      8  C8       -10.3170   27.9800  -17.7750 C.ar  1839  MUJ1839    -0.0144
      9  C9       -12.0360   29.4680  -18.5870 C.ar  1839  MUJ1839     0.0397
     10  C10      -10.7350   29.2380  -18.1820 C.ar  1839  MUJ1839    -0.0006
     11  C11      -12.9450   28.4260  -18.5890 C.ar  1839  MUJ1839     0.1727
     12  C12      -11.2350   26.9370  -17.7780 C.ar  1839  MUJ1839     0.0361
     13  C13      -12.5380   27.1480  -18.1800 C.ar  1839  MUJ1839     0.1721
     14  O14      -13.5060   26.1830  -18.2150 O.3   1839  MUJ1839    -0.4684
     15  C15      -13.1420   24.8680  -17.8090 C.3   1839  MUJ1839     0.2526
     16  O16      -14.2540   28.5460  -18.9700 O.3   1839  MUJ1839    -0.4676
     17  C17      -14.7340   29.8590  -19.2850 C.3   1839  MUJ1839     0.2321
     18  C18      -16.2290   29.8190  -19.3970 C.ar  1839  MUJ1839     0.0214
     19  C19      -18.2210   29.3830  -20.6830 C.ar  1839  MUJ1839     0.0367
     20  C20      -16.8440   29.4230  -20.5740 C.ar  1839  MUJ1839     0.0024
     21  C21      -19.0050   29.7420  -19.6030 C.ar  1839  MUJ1839     0.1387
     22  C22      -17.0320   30.1760  -18.3250 C.ar  1839  MUJ1839     0.0024
     23  C23      -18.4100   30.1400  -18.4210 C.ar  1839  MUJ1839     0.0367
     24  O24      -20.3690   29.7050  -19.7040 O.3   1839  MUJ1839    -0.4714
     25  C25      -20.9270   29.2870  -20.9460 C.3   1839  MUJ1839     0.2525
     26  N26      -10.2270   28.7230  -14.8930 N.pl3 1839  MUJ1839    -0.0924
     27  N27       -8.3010   25.5040  -12.2830 N.pl3 1839  MUJ1839    -0.0345
@<TRIPOS>BOND
     1    25    24    1
     2    19    20   ar
     3    19    21   ar
     4    20    18   ar
     5    24    21    1
     6    21    23   ar
     7    18    17    1
     8    18    22   ar
     9    17    16    1
    10    16    11    1
    11    11     9   ar
    12    11    13   ar
    13     9    10   ar
    14    23    22   ar
    15    14    13    1
    16    14    15    1
    17    10     8   ar
    18    13    12   ar
    19    12     8   ar
    20     8     7    1
    21     7     2    1
    22     2     4    2
    23     2     3    1
    24     4     6    1
    25    26     3    1
    26     3     1    2
    27     6     5    2
    28     1     5    2
    29     5    27    1
