@<TRIPOS>MOLECULE
4at8_ATP_A_1.pdb
 31 33 0 0 0
SMALL
GASTEIGER

@<TRIPOS>ATOM
      1  PG         1.3360   -1.5420  -70.3910 P.3   1362  ATP1362     0.5373
      2  O1G        0.8400   -0.3460  -71.1780 O.2   1362  ATP1362    -0.2221
      3  O2G        0.2880   -2.6330  -70.5620 O.3   1362  ATP1362    -0.1143
      4  O3G        2.6910   -2.0110  -70.9500 O.3   1362  ATP1362    -0.1143
      5  PB         2.4230   -1.7480  -67.8420 P.3   1362  ATP1362     0.2277
      6  O1B        3.1910   -2.9260  -68.4890 O.2   1362  ATP1362    -0.5168
      7  O2B        1.7090   -2.2180  -66.5880 O.3   1362  ATP1362    -0.4368
      8  O3B        1.4300   -1.1310  -68.8760 O.3   1362  ATP1362    -0.2258
      9  PA         4.7800   -0.4160  -68.3040 P.3   1362  ATP1362     0.2189
     10  O1A        4.8990   -1.4270  -69.4350 O.2   1362  ATP1362    -0.5170
     11  O2A        4.8350    1.0000  -68.8620 O.3   1362  ATP1362    -0.4371
     12  O3A        3.4610   -0.6690  -67.4760 O.3   1362  ATP1362    -0.2700
     13  O5'        5.9920   -0.7000  -67.3170 O.3   1362  ATP1362    -0.3112
     14  C5'        6.0680   -1.9270  -66.6520 C.3   1362  ATP1362     0.1813
     15  C4'        6.3830   -1.8730  -65.2450 C.3   1362  ATP1362     0.1821
     16  O4'        7.0510   -0.5990  -65.0050 O.3   1362  ATP1362    -0.3135
     17  C3'        5.1390   -1.8600  -64.4580 C.3   1362  ATP1362     0.2184
     18  O3'        5.1290   -2.9010  -63.5990 O.3   1362  ATP1362    -0.2174
     19  C2'        5.1070   -0.5960  -63.7110 C.3   1362  ATP1362     0.2570
     20  O2'        4.9970   -0.8630  -62.4030 O.3   1362  ATP1362    -0.2130
     21  C1'        6.4040    0.0850  -63.9640 C.3   1362  ATP1362     0.3186
     22  N9         6.3620    1.5010  -64.2880 N.pl3 1362  ATP1362    -0.1439
     23  C8         6.4020    2.0260  -65.5320 C.3   1362  ATP1362     0.3377
     24  N7         6.3790    3.3670  -65.4230 N.2   1362  ATP1362    -0.2095
     25  C5         6.3290    3.7030  -64.1160 C.2   1362  ATP1362     0.2526
     26  C6         6.2890    4.9160  -63.4280 C.2   1362  ATP1362     0.4393
     27  N6         6.2990    6.1530  -64.1430 N.pl3 1362  ATP1362     0.2180
     28  N1         6.2430    4.9040  -62.0840 N.2   1362  ATP1362     0.0021
     29  C2         6.2370    3.7440  -61.4010 C.3   1362  ATP1362     0.5254
     30  N3         6.2740    2.5610  -62.0370 N.2   1362  ATP1362    -0.0055
     31  C4         6.3200    2.5070  -63.3790 C.2   1362  ATP1362     0.3518
@<TRIPOS>BOND
     1     2     1    2
     2     4     1    1
     3     3     1    1
     4     1     8    1
     5    10     9    2
     6     8     5    1
     7    11     9    1
     8     6     5    2
     9     9    12    1
    10     9    13    1
    11     5    12    1
    12     5     7    1
    13    13    14    1
    14    14    15    1
    15    23    24    1
    16    23    22    1
    17    24    25    2
    18    15    16    1
    19    15    17    1
    20    16    21    1
    21    17    19    1
    22    17    18    1
    23    22    21    1
    24    22    31    1
    25    27    26    1
    26    25    26    1
    27    25    31    1
    28    21    19    1
    29    19    20    1
    30    26    28    2
    31    31    30    2
    32    28    29    1
    33    30    29    1
