@<TRIPOS>MOLECULE
4at9_UTP_A_1.pdb
 29 30 0 0 0
SMALL
GASTEIGER

@<TRIPOS>ATOM
      1  PA        42.6580  -29.3810  -34.5810 P.3   1362  UTP1362     0.2189
      2  O1A       41.3280  -29.0880  -35.2360 O.3   1362  UTP1362    -0.4371
      3  O2A       43.9070  -29.7080  -35.4970 O.2   1362  UTP1362    -0.5170
      4  O3A       42.4860  -30.6300  -33.5330 O.3   1362  UTP1362    -0.2700
      5  O5'       43.0280  -28.1880  -33.5580 O.3   1362  UTP1362    -0.3112
      6  PB        43.8070  -31.4210  -32.9740 P.3   1362  UTP1362     0.2277
      7  O1B       43.7330  -31.4180  -31.4900 O.3   1362  UTP1362    -0.4368
      8  O2B       45.0240  -30.8930  -33.6430 O.2   1362  UTP1362    -0.5168
      9  O3B       43.4890  -32.9630  -33.4820 O.3   1362  UTP1362    -0.2258
     10  PG        43.6250  -33.3180  -35.0540 P.3   1362  UTP1362     0.5373
     11  O1G       44.5580  -32.2630  -35.6250 O.2   1362  UTP1362    -0.2221
     12  O2G       44.3000  -34.7120  -35.0370 O.3   1362  UTP1362    -0.1143
     13  O3G       42.2100  -33.2740  -35.6110 O.3   1362  UTP1362    -0.1143
     14  C5'       43.3140  -26.9080  -34.1150 C.3   1362  UTP1362     0.1813
     15  C4'       43.6910  -25.9660  -32.9810 C.3   1362  UTP1362     0.1799
     16  O4'       44.1490  -24.7460  -33.5360 O.3   1362  UTP1362    -0.3320
     17  C1'       43.3360  -23.6260  -33.0840 C.3   1362  UTP1362     0.2401
     18  C2'       42.1840  -24.1480  -32.2160 C.3   1362  UTP1362     0.2319
     19  O2'       42.3200  -23.5680  -30.8670 O.3   1362  UTP1362    -0.2157
     20  C3'       42.4340  -25.6550  -32.1560 C.3   1362  UTP1362     0.2158
     21  O3'       42.7500  -26.0580  -30.7600 O.3   1362  UTP1362    -0.2175
     22  N1        42.7460  -22.9130  -34.2360 N.am  1362  UTP1362    -0.1766
     23  C6        42.6840  -21.5700  -34.2500 C.2   1362  UTP1362     0.0929
     24  C2        42.2480  -23.6680  -35.3310 C.1   1362  UTP1362     0.2845
     25  O2        42.3080  -24.9150  -35.3170 O.2   1362  UTP1362    -0.1918
     26  N3        41.7090  -23.0600  -36.4100 N.2   1362  UTP1362    -0.2452
     27  C4        41.6580  -21.6990  -36.4210 C.1   1362  UTP1362     0.2182
     28  O4        41.1750  -21.1210  -37.4350 O.2   1362  UTP1362    -0.2085
     29  C5        42.1310  -20.9220  -35.3490 C.2   1362  UTP1362     0.1242
@<TRIPOS>BOND
     1    28    27    2
     2    27    26    2
     3    27    29    1
     4    26    24    2
     5    11    10    2
     6    13    10    1
     7     3     1    2
     8    29    23    2
     9    24    25    2
    10    24    22   am
    11     2     1    1
    12    10    12    1
    13    10     9    1
    14     1     5    1
    15     1     4    1
    16    23    22    1
    17    22    17    1
    18    14     5    1
    19    14    15    1
    20     8     6    2
    21    16    17    1
    22    16    15    1
    23     4     6    1
    24     9     6    1
    25    17    18    1
    26    15    20    1
    27     6     7    1
    28    18    20    1
    29    18    19    1
    30    20    21    1
