@<TRIPOS>MOLECULE
4atb_CTP_A_1.pdb
 29 30 0 0 0
SMALL
GASTEIGER

@<TRIPOS>ATOM
      1  N1       -10.3780   -0.0480  -73.3800 N.am  1363  CTP1363    -0.1778
      2  C2       -11.2210   -1.0610  -73.1460 C.1   1363  CTP1363     0.2756
      3  N3       -11.2480   -2.1150  -73.9360 N.2   1363  CTP1363    -0.3024
      4  C4       -10.4190   -2.2320  -75.0310 C.2   1363  CTP1363     0.2346
      5  C5        -9.5380   -1.2290  -75.3140 C.2   1363  CTP1363     0.0687
      6  C6        -9.5560   -0.1150  -74.4460 C.2   1363  CTP1363     0.0836
      7  O2       -11.9370   -1.0370  -72.2550 O.2   1363  CTP1363    -0.1925
      8  N4       -10.4580   -3.3530  -75.8890 N.pl3 1363  CTP1363    -0.0921
      9  C1'      -10.3000    1.1210  -72.5710 C.3   1363  CTP1363     0.2400
     10  C2'       -9.8510    0.8110  -71.2180 C.3   1363  CTP1363     0.2319
     11  O2'      -10.2620    1.7690  -70.2980 O.3   1363  CTP1363    -0.2157
     12  C3'       -8.3910    0.9090  -71.2260 C.3   1363  CTP1363     0.2158
     13  C4'       -8.0890    1.3800  -72.5510 C.3   1363  CTP1363     0.1799
     14  O4'       -9.2990    2.0000  -73.0350 O.3   1363  CTP1363    -0.3320
     15  O3'       -8.0080    1.7890  -70.2870 O.3   1363  CTP1363    -0.2175
     16  C5'       -6.9900    2.3360  -72.5780 C.3   1363  CTP1363     0.1813
     17  O5'       -5.9750    2.0480  -73.6130 O.3   1363  CTP1363    -0.3112
     18  PA        -4.9880    0.7920  -73.4560 P.3   1363  CTP1363     0.2189
     19  O1A       -3.8600    1.0120  -74.3530 O.2   1363  CTP1363    -0.5170
     20  O2A       -5.7300   -0.5070  -73.7550 O.3   1363  CTP1363    -0.4371
     21  O3A       -4.4880    0.8240  -72.0390 O.3   1363  CTP1363    -0.2700
     22  PB        -3.6480    2.1500  -71.5900 P.3   1363  CTP1363     0.2277
     23  O1B       -4.3950    2.8280  -70.5210 O.3   1363  CTP1363    -0.4368
     24  O2B       -3.3610    2.9850  -72.6780 O.2   1363  CTP1363    -0.5168
     25  O3B       -2.2990    1.6010  -70.8780 O.3   1363  CTP1363    -0.2258
     26  PG        -0.8580    1.6150  -71.6010 P.3   1363  CTP1363     0.5373
     27  O1G        0.1620    1.7900  -70.5920 O.3   1363  CTP1363    -0.1143
     28  O2G       -0.6530    0.3820  -72.4010 O.3   1363  CTP1363    -0.1143
     29  O3G       -0.8580    2.9060  -72.5790 O.2   1363  CTP1363    -0.2221
@<TRIPOS>BOND
     1     8     4    1
     2     5     4    1
     3     5     6    2
     4     4     3    2
     5     6     1    1
     6    19    18    2
     7     3     2    2
     8    20    18    1
     9    17    18    1
    10    17    16    1
    11    18    21    1
    12     1     2   am
    13     1     9    1
    14     2     7    2
    15    14     9    1
    16    14    13    1
    17    24    22    2
    18    29    26    2
    19    16    13    1
    20     9    10    1
    21    13    12    1
    22    28    26    1
    23    21    22    1
    24    26    25    1
    25    26    27    1
    26    22    25    1
    27    22    23    1
    28    12    10    1
    29    12    15    1
    30    10    11    1
