@<TRIPOS>MOLECULE
4atf_GAL_A_1.pdb
 11 11 0 0 0
SMALL
GASTEIGER

@<TRIPOS>ATOM
      1  C1        41.1720   -7.1940   18.8060 C.3   1355  GAL1355     0.1777
      2  C2        42.4660   -6.5420   19.3230 C.3   1355  GAL1355     0.2141
      3  C3        43.6700   -7.4870   19.1120 C.3   1355  GAL1355     0.2173
      4  C4        43.3710   -8.8920   19.6810 C.3   1355  GAL1355     0.2142
      5  C5        42.0190   -9.4170   19.1560 C.3   1355  GAL1355     0.1810
      6  C6        41.8550  -10.7890   19.7780 C.3   1355  GAL1355     0.2141
      7  O2        42.7100   -5.2410   18.7450 O.3   1355  GAL1355    -0.2176
      8  O3        44.7500   -6.9570   19.8480 O.3   1355  GAL1355    -0.2175
      9  O4        43.1630   -8.7570   21.0770 O.3   1355  GAL1355    -0.2176
     10  O5        40.9490   -8.4690   19.4700 O.3   1355  GAL1355    -0.3481
     11  O6        40.7210  -11.2190   19.1080 O.3   1355  GAL1355    -0.2176
@<TRIPOS>BOND
     1     7     2    1
     2     1     2    1
     3     1    10    1
     4    11     6    1
     5     3     2    1
     6     3     4    1
     7     3     8    1
     8     5    10    1
     9     5     4    1
    10     5     6    1
    11     4     9    1
