@<TRIPOS>MOLECULE
4atf_AAL_A_1.pdb
 10 11 0 0 0
SMALL
GASTEIGER

@<TRIPOS>ATOM
      1  C1        35.9570   -6.1700   18.2410 C.3   1356  AAL1356     0.1776
      2  C2        36.4680   -7.4330   18.9950 C.3   1356  AAL1356     0.2109
      3  C3        37.8410   -7.0790   19.6560 C.3   1356  AAL1356     0.1807
      4  C4        38.8820   -6.5250   18.7540 C.3   1356  AAL1356     0.2109
      5  C5        38.2270   -5.2450   18.2880 C.3   1356  AAL1356     0.1775
      6  C6        37.8690   -4.6540   19.6810 C.3   1356  AAL1356     0.1743
      7  O2        36.6330   -8.5030   18.0670 O.3   1356  AAL1356    -0.2177
      8  O3        37.6700   -5.8660   20.4810 O.3   1356  AAL1356    -0.3482
      9  O4        40.1720   -6.2830   19.2380 O.3   1356  AAL1356    -0.2177
     10  O5        37.0260   -5.4460   17.4940 O.3   1356  AAL1356    -0.3482
@<TRIPOS>BOND
     1    10     1    1
     2    10     5    1
     3     7     2    1
     4     1     2    1
     5     5     4    1
     6     5     6    1
     7     4     9    1
     8     4     3    1
     9     2     3    1
    10     3     8    1
    11     6     8    1
