@<TRIPOS>MOLECULE
4atj_HEM_A_1.pdb
 43 50 0 0 0
SMALL
GASTEIGER

@<TRIPOS>ATOM
      1 FE         -1.9620    0.7430   31.2810 Fe    350  HEM350      0.0000
      2  CHA        1.3300    1.6900   31.6320 C.2   350  HEM350      0.0000
      3  CHB       -2.8040    2.7530   33.9670 C.2   350  HEM350      0.0000
      4  CHC       -5.2600    0.0010   30.7680 C.2   350  HEM350      0.0000
      5  CHD       -1.0680   -1.1290   28.4850 C.2   350  HEM350      0.0000
      6  NA        -0.9730    1.9890   32.4810 N.2   350  HEM350      0.0000
      7  C1A        0.3990    2.2510   32.4930 C.2   350  HEM350      0.0000
      8  C2A        0.7610    3.0870   33.6280 C.2   350  HEM350      0.0000
      9  C3A       -0.3720    3.3300   34.3350 C.2   350  HEM350      0.0000
     10  C4A       -1.4640    2.7060   33.5870 C.2   350  HEM350      0.0000
     11  CMA       -0.4290    4.0030   35.7040 C.3   350  HEM350      0.0000
     12  CAA        2.1500    3.6070   33.9780 C.3   350  HEM350      0.0000
     13  CBA        2.4580    5.0220   33.5230 C.3   350  HEM350      0.0000
     14  CGA        3.8850    5.4190   33.8300 C.2   350  HEM350      0.0000
     15  O1A        4.4480    6.2550   33.0960 O.co2 350  HEM350      0.0000
     16  O2A        4.4440    4.8920   34.8110 O.co2 350  HEM350      0.0000
     17  NB        -3.6600    1.2630   32.1830 N.ar  350  HEM350      0.0000
     18  C1B       -3.8330    2.0790   33.3060 C.ar  350  HEM350      0.0000
     19  C2B       -5.2140    2.0540   33.7510 C.ar  350  HEM350      0.0000
     20  C3B       -5.9090    1.2290   32.9110 C.ar  350  HEM350      0.0000
     21  C4B       -4.9520    0.7920   31.8880 C.ar  350  HEM350      0.0000
     22  CMB       -5.8210    2.9020   34.8610 C.3   350  HEM350      0.0000
     23  CAB       -7.2690    0.9320   33.0120 C.3   350  HEM350      0.0000
     24  CBB       -7.8030   -0.4130   33.1880 C.3   350  HEM350      0.0000
     25  NC        -2.9430   -0.2540   29.8790 N.2   350  HEM350      0.0000
     26  C1C       -4.3190   -0.4710   29.8260 C.2   350  HEM350      0.0000
     27  C2C       -4.6600   -1.2190   28.6430 C.2   350  HEM350      0.0000
     28  C3C       -3.5090   -1.4560   27.9470 C.2   350  HEM350      0.0000
     29  C4C       -2.4320   -0.9160   28.7470 C.2   350  HEM350      0.0000
     30  CMC       -6.0800   -1.6050   28.2120 C.3   350  HEM350      0.0000
     31  CAC       -3.4300   -1.9130   26.6330 C.3   350  HEM350      0.0000
     32  CBC       -3.3470   -3.2990   26.2860 C.3   350  HEM350      0.0000
     33  ND        -0.2500    0.2830   30.3390 N.ar  350  HEM350      0.0000
     34  C1D       -0.0320   -0.6060   29.2660 C.ar  350  HEM350      0.0000
     35  C2D        1.4070   -0.8350   29.0610 C.ar  350  HEM350      0.0000
     36  C3D        2.0580    0.0270   29.9100 C.ar  350  HEM350      0.0000
     37  C4D        1.0390    0.7350   30.6660 C.ar  350  HEM350      0.0000
     38  CMD        2.0450   -1.9030   28.1640 C.3   350  HEM350      0.0000
     39  CAD        3.5570    0.2380   30.0840 C.3   350  HEM350      0.0000
     40  CBD        4.1030    0.9760   28.8840 C.3   350  HEM350      0.0000
     41  CGD        5.5900    1.2370   28.9880 C.2   350  HEM350      0.0000
     42  O1D        6.0890    2.1050   28.2360 O.co2 350  HEM350      0.0000
     43  O2D        6.2570    0.5750   29.8170 O.co2 350  HEM350      0.0000
@<TRIPOS>BOND
     1    32    31    1
     2    31    28    1
     3    28    27    2
     4    28    29    1
     5    38    35    1
     6    30    27    1
     7    42    41   ar
     8     5    29    1
     9     5    34    2
    10    27    26    1
    11    29    25    2
    12    40    41    1
    13    40    39    1
    14    41    43   ar
    15    35    34   ar
    16    35    36   ar
    17    34    33   ar
    18    26    25    1
    19    26     4    2
    20    25     1    1
    21    36    39    1
    22    36    37   ar
    23    33    37   ar
    24    33     1    1
    25    37     2    2
    26     4    21    1
    27     1    17    1
    28     1     6    1
    29     2     7    1
    30    21    17   ar
    31    21    20   ar
    32    17    18   ar
    33     6     7    2
    34     6    10    1
    35     7     8    1
    36    20    23    1
    37    20    19   ar
    38    23    24    1
    39    15    14   ar
    40    18    19   ar
    41    18     3    1
    42    13    14    1
    43    13    12    1
    44    10     3    2
    45    10     9    1
    46     8    12    1
    47     8     9    2
    48    19    22    1
    49    14    16   ar
    50     9    11    1
