@<TRIPOS>MOLECULE
4atj_BHO_A_1.pdb
 10 10 0 0 0
SMALL
GASTEIGER

@<TRIPOS>ATOM
      1  C1        -3.1040    6.7790   32.9460 C.ar  353  BHO353      0.0227
      2  C2        -4.0920    7.7070   33.4080 C.ar  353  BHO353      0.0019
      3  C3        -3.7620    8.6270   34.4180 C.ar  353  BHO353      0.0001
      4  C4        -2.5310    8.5410   35.0800 C.ar  353  BHO353      0.0000
      5  C5        -1.5770    7.5890   34.6790 C.ar  353  BHO353      0.0001
      6  C6        -1.8280    6.7390   33.5920 C.ar  353  BHO353      0.0019
      7  C         -3.3940    5.8920   31.7820 C.2   353  BHO353      0.1101
      8  O1        -2.4410    5.1160   31.3520 O.2   353  BHO353     -0.5359
      9  N         -4.5690    5.8790   31.2290 N.am  353  BHO353     -0.1984
     10  O2        -4.8790    4.8960   30.2470 O.3   353  BHO353     -0.4024
@<TRIPOS>BOND
     1    10     9    1
     2     9     7   am
     3     8     7    2
     4     7     1    1
     5     1     2   ar
     6     1     6   ar
     7     2     3   ar
     8     6     5   ar
     9     3     4   ar
    10     5     4   ar
