@<TRIPOS>MOLECULE
4atl_BGC_A_1.pdb
 12 12 0 0 0
SMALL
GASTEIGER

@<TRIPOS>ATOM
      1  C2        84.8860   46.3700   34.0070 C.3   1513  BGC1513     0.2434
      2  C3        85.8160   46.0250   32.8490 C.3   1513  BGC1513     0.2199
      3  C4        86.4090   44.6260   33.0790 C.3   1513  BGC1513     0.2144
      4  C5        85.2510   43.6270   33.1910 C.3   1513  BGC1513     0.1836
      5  C6        85.6300   42.1590   33.4000 C.3   1513  BGC1513     0.2142
      6  C1        83.9210   45.2190   34.2760 C.3   1513  BGC1513     0.3024
      7  O1        83.3650   45.4280   35.5360 O.3   1513  BGC1513    -0.1869
      8  O2        84.1360   47.5420   33.7280 O.3   1513  BGC1513    -0.2148
      9  O3        86.7680   47.0710   32.7570 O.3   1513  BGC1513    -0.2174
     10  O4        87.2720   44.2630   32.0330 O.3   1513  BGC1513    -0.2176
     11  O5        84.5540   43.9750   34.3510 O.3   1513  BGC1513    -0.3236
     12  O6        86.0180   41.9740   34.7450 O.3   1513  BGC1513    -0.2176
@<TRIPOS>BOND
     1    10     3    1
     2     9     2    1
     3     2     3    1
     4     2     1    1
     5     3     4    1
     6     4     5    1
     7     4    11    1
     8     5    12    1
     9     8     1    1
    10     1     6    1
    11     6    11    1
    12     6     7    1
