@<TRIPOS>MOLECULE
4atp_PLP_A_1.pdb
 15 15 0 0 0
SMALL
GASTEIGER

@<TRIPOS>ATOM
      1  N1        78.2760   28.1590   46.5390 N.ar  500  PLP500     -0.2452
      2  C2        77.3470   28.8450   45.9050 C.ar  500  PLP500      0.0978
      3  C2A       76.8430   28.2800   44.6080 C.3   500  PLP500      0.0555
      4  C3        76.8420   30.1240   46.4550 C.ar  500  PLP500      0.2049
      5  O3        75.8760   30.8170   45.7740 O.3   500  PLP500     -0.2857
      6  C4        77.3990   30.6650   47.7140 C.ar  500  PLP500      0.0182
      7  C4A       76.7830   31.8610   48.4160 C.3   500  PLP500      0.0342
      8  C5        78.3930   29.7690   48.3470 C.ar  500  PLP500      0.0261
      9  C6        78.7750   28.5960   47.6950 C.ar  500  PLP500      0.0965
     10  C5A       79.0920   30.1100   49.6300 C.3   500  PLP500      0.1815
     11  O4P       78.1990   30.2020   50.7160 O.3   500  PLP500     -0.2653
     12  P         78.5820   31.0230   52.0560 P.3   500  PLP500      0.5329
     13  O1P       77.4960   30.5450   52.9270 O.3   500  PLP500     -0.1145
     14  O2P       79.9290   30.5250   52.4880 O.3   500  PLP500     -0.1145
     15  O3P       78.5600   32.4890   51.6810 O.2   500  PLP500     -0.2224
@<TRIPOS>BOND
     1     3     2    1
     2     5     4    1
     3     2     4   ar
     4     2     1   ar
     5     4     6   ar
     6     1     9   ar
     7     9     8   ar
     8     6     8   ar
     9     6     7    1
    10     8    10    1
    11    10    11    1
    12    11    12    1
    13    15    12    2
    14    12    14    1
    15    12    13    1
