@<TRIPOS>MOLECULE
4atq_PLP_A_1.pdb
 15 15 0 0 0
SMALL
GASTEIGER

@<TRIPOS>ATOM
      1  N1        78.8010   28.1900   47.1880 N.2   1456  PLP1456    -0.2716
      2  C2        78.0230   29.0620   46.5250 C.2   1456  PLP1456     0.0661
      3  C2A       77.4040   28.6820   45.3010 C.3   1456  PLP1456     0.0498
      4  C3        77.8710   30.3600   47.0260 C.3   1456  PLP1456     0.2051
      5  O3        77.0900   31.1980   46.2640 O.3   1456  PLP1456    -0.2125
      6  C4        78.4830   30.8340   48.2020 C.2   1456  PLP1456    -0.0124
      7  C4A       78.3050   32.1540   48.7190 C.3   1456  PLP1456     0.0288
      8  C5        79.2450   29.9070   48.8690 C.2   1456  PLP1456     0.0046
      9  C6        79.3850   28.6140   48.3600 C.3   1456  PLP1456     0.1488
     10  C5A       79.9120   30.2090   50.0200 C.3   1456  PLP1456     0.1774
     11  O4P       79.0300   30.1650   51.1190 O.3   1456  PLP1456    -0.2656
     12  P         79.2790   30.9790   52.5430 P.3   1456  PLP1456     0.5329
     13  O1P       80.6170   30.3900   53.1690 O.3   1456  PLP1456    -0.1145
     14  O2P       79.6230   32.5200   52.2180 O.2   1456  PLP1456    -0.2224
     15  O3P       78.1220   30.8170   53.4420 O.3   1456  PLP1456    -0.1145
@<TRIPOS>BOND
     1     3     2    1
     2     5     4    1
     3     2     4    1
     4     2     1    2
     5     4     6    1
     6     1     9    1
     7     6     7    1
     8     6     8    2
     9     9     8    1
    10     8    10    1
    11    10    11    1
    12    11    12    1
    13    14    12    2
    14    12    13    1
    15    12    15    1
