@<TRIPOS>MOLECULE
4atu_GDP_A_1.pdb
 28 30 0 0 0
SMALL
GASTEIGER

@<TRIPOS>ATOM
      1  PB       322.9180  190.1830  453.6080 P.3   600  GDP600      0.5373
      2  O1B      322.6140  189.2420  454.9110 O.3   600  GDP600     -0.1143
      3  O2B      322.6550  191.5390  453.8150 O.3   600  GDP600     -0.1143
      4  O3B      322.2750  189.5670  452.4330 O.2   600  GDP600     -0.2221
      5  O3A      324.4690  190.1190  453.3400 O.3   600  GDP600     -0.2261
      6  PA       325.6010  191.3480  453.2770 P.3   600  GDP600      0.2231
      7  O1A      325.5580  192.0320  454.6340 O.3   600  GDP600     -0.4370
      8  O2A      325.3070  192.2220  452.1080 O.2   600  GDP600     -0.5169
      9  O5'      326.8980  190.5420  452.9810 O.3   600  GDP600     -0.3111
     10  C5'      328.2140  191.0630  453.3360 C.3   600  GDP600      0.1813
     11  C4'      329.1400  191.1970  452.2230 C.3   600  GDP600      0.1799
     12  O4'      328.5980  192.2000  451.2770 O.3   600  GDP600     -0.3326
     13  C3'      330.5320  191.8320  452.5810 C.3   600  GDP600      0.2158
     14  O3'      331.5220  191.1150  451.7590 O.3   600  GDP600     -0.2175
     15  C2'      330.5350  193.3210  452.1570 C.3   600  GDP600      0.2310
     16  O2'      331.7660  193.9180  451.7130 O.3   600  GDP600     -0.2158
     17  C1'      329.5100  193.3570  451.0270 C.3   600  GDP600      0.2293
     18  N9       328.6930  194.5700  450.9850 N.pl3 600  GDP600     -0.2354
     19  C8       327.6610  194.7940  452.0550 C.3   600  GDP600      0.2246
     20  N7       327.2320  196.0130  451.5030 N.2   600  GDP600     -0.2322
     21  C5       327.7930  196.4930  450.3980 C.2   600  GDP600      0.2182
     22  C6       327.8150  197.5500  449.4620 C.1   600  GDP600      0.2372
     23  O6       326.9240  198.5340  449.6620 O.2   600  GDP600     -0.2069
     24  N1       328.6360  197.6090  448.3890 N.2   600  GDP600     -0.2485
     25  C2       329.6040  196.5000  448.1810 C.1   600  GDP600      0.2531
     26  N2       330.3060  196.7760  447.1040 N.pl3 600  GDP600     -0.0226
     27  N3       329.6500  195.5310  448.9980 N.2   600  GDP600     -0.3074
     28  C4       328.7880  195.4970  450.0310 C.2   600  GDP600      0.2300
@<TRIPOS>BOND
     1    26    25    1
     2    25    24    2
     3    25    27    2
     4    24    22    2
     5    27    28    2
     6    22    23    2
     7    22    21    1
     8    28    21    1
     9    28    18    1
    10    21    20    2
    11    18    17    1
    12    18    19    1
    13    17    12    1
    14    17    15    1
    15    12    11    1
    16    20    19    1
    17    16    15    1
    18    14    13    1
    19     8     6    2
    20    15    13    1
    21    11    13    1
    22    11    10    1
    23     4     1    2
    24     9     6    1
    25     9    10    1
    26     6     5    1
    27     6     7    1
    28     5     1    1
    29     1     3    1
    30     1     2    1
