@<TRIPOS>MOLECULE
4atu_GTP_B_1.pdb
 32 34 0 0 0
SMALL
GASTEIGER

@<TRIPOS>ATOM
      1  PG       322.5070  189.8020  413.5110 P.3   500  GTP500      0.5373
      2  O1G      323.6940  188.9430  414.1330 O.3   500  GTP500     -0.1143
      3  O2G      321.2870  188.9130  414.0540 O.2   500  GTP500     -0.2221
      4  O3G      322.4650  191.1270  414.4380 O.3   500  GTP500     -0.1143
      5  O3B      322.5820  190.2220  412.1210 O.3   500  GTP500     -0.2258
      6  PB       323.7390  191.1710  411.4260 P.3   500  GTP500      0.2277
      7  O1B      323.2190  192.5040  411.1580 O.3   500  GTP500     -0.4368
      8  O2B      324.2770  190.3550  410.2610 O.2   500  GTP500     -0.5168
      9  O3A      324.8950  191.1630  412.4260 O.3   500  GTP500     -0.2700
     10  PA       326.1700  191.9770  412.6260 P.3   500  GTP500      0.2189
     11  O1A      326.8420  191.4610  413.8540 O.3   500  GTP500     -0.4371
     12  O2A      325.9070  193.4280  412.5970 O.2   500  GTP500     -0.5170
     13  O5'      327.1090  191.5240  411.3540 O.3   500  GTP500     -0.3112
     14  C5'      328.3710  192.1740  411.3420 C.3   500  GTP500      0.1813
     15  C4'      329.2870  191.8080  410.2190 C.3   500  GTP500      0.1799
     16  O4'      329.0430  192.6550  409.0670 O.3   500  GTP500     -0.3326
     17  C3'      330.7090  192.0980  410.6520 C.3   500  GTP500      0.2158
     18  O3'      331.6020  191.2800  409.9340 O.3   500  GTP500     -0.2175
     19  C2'      330.8420  193.5760  410.3190 C.3   500  GTP500      0.2310
     20  O2'      332.2180  193.8880  410.0850 O.3   500  GTP500     -0.2158
     21  C1'      329.9830  193.7430  409.0570 C.3   500  GTP500      0.2293
     22  N9       329.2210  194.9990  408.9660 N.pl3 500  GTP500     -0.2354
     23  C8       328.2980  195.4760  409.8670 C.3   500  GTP500      0.2246
     24  N7       327.7800  196.6230  409.5240 N.2   500  GTP500     -0.2322
     25  C5       328.4010  196.9390  408.3410 C.2   500  GTP500      0.2182
     26  C6       328.2590  198.0530  407.5130 C.1   500  GTP500      0.2372
     27  O6       327.5030  199.0040  407.6930 O.2   500  GTP500     -0.2069
     28  N1       329.0800  198.0060  406.3640 N.2   500  GTP500     -0.2485
     29  C2       329.9540  196.9810  406.0670 C.1   500  GTP500      0.2531
     30  N2       330.6450  197.1050  404.9720 N.pl3 500  GTP500     -0.0226
     31  N3       330.1090  195.9140  406.8510 N.2   500  GTP500     -0.3074
     32  C4       329.3060  195.9420  407.9650 C.2   500  GTP500      0.2300
@<TRIPOS>BOND
     1    30    29    1
     2    29    28    2
     3    29    31    2
     4    28    26    2
     5    31    32    2
     6    26    27    2
     7    26    25    1
     8    32    25    1
     9    32    22    1
    10    25    24    2
    11    22    21    1
    12    22    23    1
    13    21    16    1
    14    21    19    1
    15    16    15    1
    16    24    23    1
    17    18    17    1
    18    20    19    1
    19    15    17    1
    20    15    14    1
    21     8     6    2
    22    19    17    1
    23     7     6    1
    24    14    13    1
    25    13    10    1
    26     6     5    1
    27     6     9    1
    28     5     1    1
    29     9    10    1
    30    12    10    2
    31    10    11    1
    32     1     3    2
    33     1     2    1
    34     1     4    1
