@<TRIPOS>MOLECULE
4atx_GDP_A_1.pdb
 28 30 0 0 0
SMALL
GASTEIGER

@<TRIPOS>ATOM
      1  PB       324.4820  191.2810  410.6050 P.3   600  GDP600      0.5373
      2  O1B      323.8470  190.6550  409.4300 O.2   600  GDP600     -0.2221
      3  O2B      324.1980  192.6340  410.8100 O.3   600  GDP600     -0.1143
      4  O3B      324.1940  190.3380  411.9080 O.3   600  GDP600     -0.1143
      5  O3A      326.0330  191.2420  410.3340 O.3   600  GDP600     -0.2261
      6  PA       327.1470  192.4860  410.2700 P.3   600  GDP600      0.2231
      7  O1A      326.8380  193.3550  409.1000 O.2   600  GDP600     -0.5169
      8  O2A      327.0940  193.1720  411.6260 O.3   600  GDP600     -0.4370
      9  O5'      328.4550  191.7000  409.9720 O.3   600  GDP600     -0.3111
     10  C5'      329.7640  192.2420  410.3250 C.3   600  GDP600      0.1813
     11  C4'      330.6850  192.3900  409.2120 C.3   600  GDP600      0.1799
     12  O4'      330.1280  193.3830  408.2650 O.3   600  GDP600     -0.3326
     13  C3'      332.0680  193.0460  409.5670 C.3   600  GDP600      0.2158
     14  O3'      333.0690  192.3420  408.7450 O.3   600  GDP600     -0.2175
     15  C2'      332.0490  194.5330  409.1430 C.3   600  GDP600      0.2310
     16  O2'      333.2700  195.1490  408.6970 O.3   600  GDP600     -0.2158
     17  C1'      331.0220  194.5530  408.0140 C.3   600  GDP600      0.2293
     18  N9       330.1860  195.7540  407.9720 N.pl3 600  GDP600     -0.2354
     19  C8       329.1530  195.9630  409.0430 C.3   600  GDP600      0.2246
     20  N7       328.7040  197.1750  408.4900 N.2   600  GDP600     -0.2322
     21  C5       329.2570  197.6630  407.3850 C.2   600  GDP600      0.2182
     22  C6       329.2620  198.7180  406.4480 C.1   600  GDP600      0.2372
     23  O6       328.3560  199.6900  406.6470 O.2   600  GDP600     -0.2069
     24  N1       330.0800  198.7900  405.3740 N.2   600  GDP600     -0.2485
     25  C2       331.0650  197.6950  405.1650 C.1   600  GDP600      0.2531
     26  N2       331.7610  197.9810  404.0870 N.pl3 600  GDP600     -0.0226
     27  N3       331.1270  196.7270  405.9820 N.2   600  GDP600     -0.3074
     28  C4       330.2670  196.6820  407.0170 C.2   600  GDP600      0.2300
@<TRIPOS>BOND
     1    26    25    1
     2    25    24    2
     3    25    27    2
     4    24    22    2
     5    27    28    2
     6    22    23    2
     7    22    21    1
     8    28    21    1
     9    28    18    1
    10    21    20    2
    11    18    17    1
    12    18    19    1
    13    17    12    1
    14    17    15    1
    15    12    11    1
    16    20    19    1
    17    16    15    1
    18    14    13    1
    19     7     6    2
    20    15    13    1
    21    11    13    1
    22    11    10    1
    23     2     1    2
    24     9     6    1
    25     9    10    1
    26     6     5    1
    27     6     8    1
    28     5     1    1
    29     1     3    1
    30     1     4    1
