@<TRIPOS>MOLECULE
4atx_GTP_B_1.pdb
 32 34 0 0 0
SMALL
GASTEIGER

@<TRIPOS>ATOM
      1  PG       324.0350  190.8620  370.5080 P.3   500  GTP500      0.5373
      2  O1G      323.9730  192.1870  371.4340 O.3   500  GTP500     -0.1143
      3  O2G      322.8290  189.9550  371.0530 O.2   500  GTP500     -0.2221
      4  O3G      325.2350  190.0210  371.1300 O.3   500  GTP500     -0.1143
      5  O3B      324.1020  191.2820  369.1180 O.3   500  GTP500     -0.2258
      6  PB       325.2440  192.2470  368.4200 P.3   500  GTP500      0.2277
      7  O1B      325.7930  191.4380  367.2560 O.2   500  GTP500     -0.5168
      8  O2B      324.7030  193.5720  368.1520 O.3   500  GTP500     -0.4368
      9  O3A      326.4000  192.2590  369.4190 O.3   500  GTP500     -0.2700
     10  PA       327.6640  193.0910  369.6180 P.3   500  GTP500      0.2189
     11  O1A      327.3780  194.5380  369.5880 O.2   500  GTP500     -0.5170
     12  O2A      328.3440  192.5870  370.8450 O.3   500  GTP500     -0.4371
     13  O5'      328.6080  192.6510  368.3450 O.3   500  GTP500     -0.3112
     14  C5'      329.8590  193.3210  368.3310 C.3   500  GTP500      0.1813
     15  C4'      330.7790  192.9680  367.2080 C.3   500  GTP500      0.1799
     16  O4'      330.5210  193.8110  366.0550 O.3   500  GTP500     -0.3326
     17  C3'      332.1970  193.2800  367.6380 C.3   500  GTP500      0.2158
     18  O3'      333.1020  192.4740  366.9210 O.3   500  GTP500     -0.2175
     19  C2'      332.3070  194.7600  367.3040 C.3   500  GTP500      0.2310
     20  O2'      333.6780  195.0930  367.0690 O.3   500  GTP500     -0.2158
     21  C1'      331.4440  194.9130  366.0430 C.3   500  GTP500      0.2293
     22  N9       330.6640  196.1580  365.9520 N.pl3 500  GTP500     -0.2354
     23  C8       329.7340  196.6210  366.8530 C.3   500  GTP500      0.2246
     24  N7       329.1980  197.7600  366.5110 N.2   500  GTP500     -0.2322
     25  C5       329.8130  198.0840  365.3250 C.2   500  GTP500      0.2182
     26  C6       329.6540  199.1940  364.4980 C.1   500  GTP500      0.2372
     27  O6       328.8840  200.1340  364.6770 O.2   500  GTP500     -0.2069
     28  N1       330.4750  199.1590  363.3480 N.2   500  GTP500     -0.2485
     29  C2       331.3630  198.1470  363.0510 C.1   500  GTP500      0.2531
     30  N2       332.0510  198.2810  361.9540 N.pl3 500  GTP500     -0.0226
     31  N3       331.5350  197.0830  363.8360 N.2   500  GTP500     -0.3074
     32  C4       330.7330  197.1000  364.9490 C.2   500  GTP500      0.2300
@<TRIPOS>BOND
     1    30    29    1
     2    29    28    2
     3    29    31    2
     4    28    26    2
     5    31    32    2
     6    26    27    2
     7    26    25    1
     8    32    25    1
     9    32    22    1
    10    25    24    2
    11    22    21    1
    12    22    23    1
    13    21    16    1
    14    21    19    1
    15    16    15    1
    16    24    23    1
    17    18    17    1
    18    20    19    1
    19    15    17    1
    20    15    14    1
    21     7     6    2
    22    19    17    1
    23     8     6    1
    24    14    13    1
    25    13    10    1
    26     6     5    1
    27     6     9    1
    28     5     1    1
    29     9    10    1
    30    11    10    2
    31    10    12    1
    32     1     3    2
    33     1     4    1
    34     1     2    1
