@<TRIPOS>MOLECULE
4au0_XZZ_A_1.pdb
 14 15 0 0 0
SMALL
GASTEIGER

@<TRIPOS>ATOM
      1  C5        12.7490   -7.5630  -12.6080 C.ar  600  XZZ600      0.0173
      2 CL         10.1280   -8.3100  -12.2810 Cl    600  XZZ600     -0.0789
      3  C6        11.6620   -7.7670  -11.7480 C.ar  600  XZZ600      0.0967
      4  C7        11.7530   -7.5450  -10.3860 C.ar  600  XZZ600      0.2092
      5  C2        16.3010   -6.2440  -10.9580 C.ar  600  XZZ600      0.3456
      6  C3        16.2740   -6.4600  -12.3280 C.ar  600  XZZ600      0.0781
      7  C4        15.0920   -6.9120  -12.9000 C.ar  600  XZZ600     -0.0124
      8  O2        17.4290   -5.8130  -10.3720 O.2   600  XZZ600     -0.2445
      9  O1        15.2320   -6.4750  -10.1580 O.2   600  XZZ600     -0.4209
     10  CM4       15.0680   -7.1130  -14.2830 C.3   600  XZZ600      0.0313
     11  C4A       13.9720   -7.1280  -12.0850 C.ar  600  XZZ600      0.0320
     12  C8A       14.0510   -6.8980  -10.7010 C.ar  600  XZZ600      0.1516
     13  C8        12.9630   -7.1030   -9.8590 C.ar  600  XZZ600      0.0805
     14  O7        10.6170   -7.7530   -9.6440 O.3   600  XZZ600     -0.2856
@<TRIPOS>BOND
     1    10     7    1
     2     7     6   ar
     3     7    11   ar
     4     1    11   ar
     5     1     3   ar
     6     6     5   ar
     7     2     3    1
     8    11    12   ar
     9     3     4   ar
    10     5     8    2
    11     5     9   ar
    12    12     9   ar
    13    12    13   ar
    14     4    13   ar
    15     4    14    1
