@<TRIPOS>MOLECULE
4au0_BGC_A_1.pdb
 11 11 0 0 0
SMALL
GASTEIGER

@<TRIPOS>ATOM
      1  C2        10.2470   -6.4200   -7.6540 C.3   601  BGC601      0.2141
      2  C3        10.0980   -6.4900   -6.1390 C.3   601  BGC601      0.2173
      3  C4         9.3180   -7.7510   -5.6830 C.3   601  BGC601      0.2142
      4  C5         9.8430   -9.0070   -6.4080 C.3   601  BGC601      0.1810
      5  C6         8.9740  -10.2200   -6.0540 C.3   601  BGC601      0.2141
      6  C1        10.7400   -7.7670   -8.2220 C.3   601  BGC601      0.1777
      7  O2        11.1900   -5.3930   -7.9480 O.3   601  BGC601     -0.2176
      8  O3         9.4150   -5.3120   -5.6970 O.3   601  BGC601     -0.2175
      9  O4         9.5360   -7.9410   -4.2840 O.3   601  BGC601     -0.2176
     10  O5         9.8330   -8.7970   -7.8230 O.3   601  BGC601     -0.3481
     11  O6         9.7050  -11.4380   -6.2570 O.3   601  BGC601     -0.2176
@<TRIPOS>BOND
     1     6    10    1
     2     6     1    1
     3     7     1    1
     4    10     4    1
     5     1     2    1
     6     4     5    1
     7     4     3    1
     8    11     5    1
     9     2     8    1
    10     2     3    1
    11     3     9    1
