@<TRIPOS>MOLECULE
4au0_MAN_A_1.pdb
 11 11 0 0 0
SMALL
GASTEIGER

@<TRIPOS>ATOM
      1  C1       -23.2020    9.4290   -1.9430 C.3   503  MAN503      0.1777
      2  C2       -23.7810   10.8470   -1.8620 C.3   503  MAN503      0.2141
      3  C3       -25.2040   10.8580   -1.2920 C.3   503  MAN503      0.2173
      4  C4       -26.0810    9.7620   -1.8960 C.3   503  MAN503      0.2142
      5  C5       -25.3710    8.4080   -1.8050 C.3   503  MAN503      0.1810
      6  C6       -26.1950    7.2420   -2.3560 C.3   503  MAN503      0.2141
      7  O2       -23.7490   11.4630   -3.1340 O.3   503  MAN503     -0.2176
      8  O3       -25.8030   12.1250   -1.4850 O.3   503  MAN503     -0.2175
      9  O4       -27.3050    9.7100   -1.2000 O.3   503  MAN503     -0.2176
     10  O5       -24.1230    8.4840   -2.4800 O.3   503  MAN503     -0.3481
     11  O6       -26.6810    7.5340   -3.6490 O.3   503  MAN503     -0.2176
@<TRIPOS>BOND
     1    11     6    1
     2     7     2    1
     3    10     1    1
     4    10     5    1
     5     6     5    1
     6     1     2    1
     7     4     5    1
     8     4     3    1
     9     4     9    1
    10     2     3    1
    11     8     3    1
