@<TRIPOS>MOLECULE
4au9_HEM_A_1.pdb
 43 50 0 0 0
SMALL
GASTEIGER

@<TRIPOS>ATOM
      1  CHA      -16.2620   -3.0370  -60.6530 C.2   550  HEM550      0.0000
      2  CHB      -13.5980   -7.0310  -59.8320 C.2   550  HEM550      0.0000
      3  CHC      -17.4120   -9.1190  -57.7050 C.2   550  HEM550      0.0000
      4  CHD      -20.2000   -5.3000  -58.7450 C.2   550  HEM550      0.0000
      5  C1A      -15.2070   -3.9270  -60.6250 C.ar  550  HEM550      0.0000
      6  C2A      -13.8790   -3.7190  -61.1980 C.ar  550  HEM550      0.0000
      7  C3A      -13.1410   -4.8020  -60.9330 C.ar  550  HEM550      0.0000
      8  C4A      -13.9760   -5.7480  -60.1910 C.ar  550  HEM550      0.0000
      9  CMA      -11.6740   -5.0430  -61.3360 C.3   550  HEM550      0.0000
     10  CAA      -13.3570   -2.4140  -61.8620 C.3   550  HEM550      0.0000
     11  CBA      -12.9990   -1.4290  -60.7450 C.3   550  HEM550      0.0000
     12  CGA      -13.9390   -0.2470  -60.7120 C.2   550  HEM550      0.0000
     13  O1A      -14.6260    0.0110  -61.7400 O.co2 550  HEM550      0.0000
     14  O2A      -13.9920    0.4510  -59.6600 O.co2 550  HEM550      0.0000
     15  C1B      -14.3940   -7.9650  -59.1820 C.2   550  HEM550      0.0000
     16  C2B      -14.0140   -9.3120  -58.7910 C.2   550  HEM550      0.0000
     17  C3B      -15.0460   -9.8790  -58.1330 C.2   550  HEM550      0.0000
     18  C4B      -16.1460   -8.9250  -58.1880 C.2   550  HEM550      0.0000
     19  CMB      -12.5970   -9.8780  -59.0700 C.3   550  HEM550      0.0000
     20  CAB      -15.2020  -11.3320  -57.5950 C.2   550  HEM550      0.0000
     21  CBB      -14.1900  -12.0070  -56.9900 C.2   550  HEM550      0.0000
     22  C1C      -18.5200   -8.2840  -57.8300 C.ar  550  HEM550      0.0000
     23  C2C      -19.8970   -8.5980  -57.4390 C.ar  550  HEM550      0.0000
     24  C3C      -20.6980   -7.5740  -57.8120 C.ar  550  HEM550      0.0000
     25  C4C      -19.8170   -6.5390  -58.3210 C.ar  550  HEM550      0.0000
     26  CMC      -20.3490   -9.9260  -56.7860 C.3   550  HEM550      0.0000
     27  CAC      -22.2020   -7.3680  -57.5200 C.2   550  HEM550      0.0000
     28  CBC      -23.1400   -8.2970  -57.7900 C.2   550  HEM550      0.0000
     29  C1D      -19.3510   -4.2970  -59.2080 C.2   550  HEM550      0.0000
     30  C2D      -19.7930   -2.9680  -59.5720 C.2   550  HEM550      0.0000
     31  C3D      -18.6020   -2.2820  -60.2120 C.2   550  HEM550      0.0000
     32  C4D      -17.5550   -3.2740  -60.2290 C.2   550  HEM550      0.0000
     33  CMD      -21.1680   -2.3380  -59.3440 C.3   550  HEM550      0.0000
     34  CAD      -18.5350   -0.8190  -60.6760 C.3   550  HEM550      0.0000
     35  CBD      -19.0130   -0.7620  -62.1310 C.3   550  HEM550      0.0000
     36  CGD      -19.2020    0.6850  -62.5070 C.2   550  HEM550      0.0000
     37  O1D      -19.0480    0.9970  -63.7080 O.co2 550  HEM550      0.0000
     38  O2D      -19.5800    1.5030  -61.6100 O.co2 550  HEM550      0.0000
     39  NA       -15.2620   -5.2040  -60.1020 N.ar  550  HEM550      0.0000
     40  NB       -15.7120   -7.8070  -58.8820 N.2   550  HEM550      0.0000
     41  NC       -18.5550   -7.0770  -58.4890 N.ar  550  HEM550      0.0000
     42  ND       -18.0730   -4.4610  -59.7030 N.2   550  HEM550      0.0000
     43 FE        -16.9170   -6.1460  -59.3540 Fe    550  HEM550      0.0000
@<TRIPOS>UNITY_ATOM_ATTR
43 1
charge 3
@<TRIPOS>BOND
     1    37    36   ar
     2    36    35    1
     3    36    38   ar
     4    35    34    1
     5    10     6    1
     6    10    11    1
     7    13    12   ar
     8     9     7    1
     9     6     7   ar
    10     6     5   ar
    11     7     8   ar
    12    11    12    1
    13    12    14   ar
    14    34    31    1
    15     1     5    2
    16     1    32    1
    17     5    39   ar
    18    32    31    1
    19    32    42    2
    20    31    30    2
    21     8    39   ar
    22     8     2    2
    23    39    43    1
    24     2    15    1
    25    42    43    1
    26    42    29    1
    27    30    33    1
    28    30    29    1
    29    43    40    1
    30    43    41    1
    31    29     4    2
    32    15    40    2
    33    15    16    1
    34    19    16    1
    35    40    18    1
    36    16    17    2
    37     4    25    1
    38    41    25   ar
    39    41    22   ar
    40    25    24   ar
    41    18    17    1
    42    18     3    2
    43    17    20    1
    44    22     3    1
    45    22    23   ar
    46    24    27    1
    47    24    23   ar
    48    28    27    2
    49    20    21    2
    50    23    26    1
