@<TRIPOS>MOLECULE
4aua_4AU_A_1.pdb
 25 27 0 0 0
SMALL
GASTEIGER

@<TRIPOS>ATOM
      1  C1        19.7440   36.7150  -11.4760 C.2   1302  4AU1302    -0.0731
      2  C2        20.4400   36.6030  -10.2840 C.3   1302  4AU1302     0.0455
      3  C3        21.4400   35.6510  -10.1810 C.2   1302  4AU1302     0.1225
      4  C4        21.7230   34.8270  -11.2590 C.2   1302  4AU1302     0.0674
      5  C5        21.0180   34.9280  -12.4450 C.2   1302  4AU1302    -0.0380
      6  C6        20.0240   35.8810  -12.5420 C.2   1302  4AU1302    -0.0632
      7  C8        23.0510   34.3110   -9.5830 C.2   1302  4AU1302     0.2241
      8  N17       22.2870   35.3350   -9.1040 N.2   1302  4AU1302    -0.3866
      9  C10       24.1190   33.6000   -8.8790 C.2   1302  4AU1302     0.2539
     10  C11       24.4020   33.9030   -7.4640 C.ar  1302  4AU1302     0.0911
     11  C12       23.7880   34.7400   -6.5310 C.ar  1302  4AU1302    -0.0331
     12  C13       24.4830   34.6160   -5.3330 C.ar  1302  4AU1302    -0.0437
     13  C14       25.5190   33.7020   -5.5510 C.ar  1302  4AU1302     0.0023
     14  N7        25.4550   33.2800   -6.8380 N.ar  1302  4AU1302    -0.3580
     15  N9        22.7300   33.9910  -10.8730 N.pl3 1302  4AU1302    -0.2842
     16  O16       24.7450   32.7690   -9.4960 O.2   1302  4AU1302    -0.2809
     17  H21       26.0570   32.6450   -7.2500 H     1302  4AU1302     0.1654
     18  H23       22.9270   35.3650   -6.7090 H     1302  4AU1302     0.0640
     19  H24       24.2670   35.1330   -4.4100 H     1302  4AU1302     0.0633
     20  H25       26.2600   33.3690   -4.8380 H     1302  4AU1302     0.0807
     21  H26       23.1440   33.3090  -11.4090 H     1302  4AU1302     0.1547
     22  H1        18.9640   37.4550  -11.5690 H     1302  4AU1302     0.0579
     23  H2        20.2090   37.2590   -9.4580 H     1302  4AU1302     0.0427
     24  H6        19.4690   35.9850  -13.4630 H     1302  4AU1302     0.0615
     25  H5        21.2400   34.2890  -13.2790 H     1302  4AU1302     0.0637
@<TRIPOS>BOND
     1    24     6    1
     2    25     5    1
     3     6     5    1
     4     6     1    2
     5     5     4    2
     6    22     1    1
     7     1     2    1
     8    21    15    1
     9     4    15    1
    10     4     3    1
    11    15     7    1
    12     2     3    1
    13     2    23    1
    14     3     8    2
    15     7     8    2
    16     7     9    1
    17    16     9    2
    18     9    10    1
    19    10    14   ar
    20    10    11   ar
    21    17    14    1
    22    14    13   ar
    23    18    11    1
    24    11    12   ar
    25    13    12   ar
    26    13    20    1
    27    12    19    1
