@<TRIPOS>MOLECULE
4aub_FLC_A_1.pdb
 13 12 0 0 0
SMALL
GASTEIGER

@<TRIPOS>ATOM
      1  CAC      -44.0120  -29.8540  -11.8760 C.2   501  FLC501      0.3680
      2  CA       -44.6310  -28.9550  -12.9230 C.3   501  FLC501      0.1560
      3  CB       -43.5780  -28.1250  -13.6340 C.3   501  FLC501      0.2402
      4  CBC      -42.7610  -27.3070  -12.6180 C.2   501  FLC501      0.3927
      5  CG       -44.3140  -27.1870  -14.6070 C.3   501  FLC501      0.1560
      6  CGC      -43.3900  -26.0740  -15.0510 C.2   501  FLC501      0.3680
      7  OA1      -44.1270  -31.0920  -12.0330 O.co2 501  FLC501     -0.2455
      8  OA2      -43.4330  -29.3230  -10.8970 O.co2 501  FLC501     -0.2455
      9  OB1      -43.3170  -26.7300  -11.6510 O.co2 501  FLC501     -0.2429
     10  OB2      -41.5260  -27.2020  -12.7650 O.co2 501  FLC501     -0.2429
     11  OG1      -42.3090  -26.4830  -15.5100 O.co2 501  FLC501     -0.2455
     12  OG2      -43.6770  -24.8270  -14.9840 O.co2 501  FLC501     -0.2455
     13  OHB      -42.7530  -29.0860  -14.3570 O.3   501  FLC501     -0.2129
@<TRIPOS>BOND
     1    11     6   ar
     2     6    12   ar
     3     6     5    1
     4     5     3    1
     5    13     3    1
     6     3     2    1
     7     3     4    1
     8     2     1    1
     9    10     4   ar
    10     4     9   ar
    11     7     1   ar
    12     1     8   ar
