@<TRIPOS>MOLECULE
4aub_NAP_A_1.pdb
 48 52 0 0 0
SMALL
GASTEIGER

@<TRIPOS>ATOM
      1  PA       -40.0440  -26.2740  -25.8040 P.3   500  NAP500      0.2189
      2  O1A      -39.7050  -24.9060  -26.5750 O.2   500  NAP500     -0.5170
      3  O2A      -41.3380  -27.1710  -25.7510 O.3   500  NAP500     -0.4371
      4  O5B      -38.7130  -27.2620  -25.7820 O.3   500  NAP500     -0.3112
      5  C5B      -37.4530  -26.6750  -25.3810 C.3   500  NAP500      0.1813
      6  C4B      -36.3370  -27.6620  -25.6040 C.3   500  NAP500      0.1820
      7  O4B      -36.4470  -28.1770  -26.9510 O.3   500  NAP500     -0.3136
      8  C3B      -34.9480  -27.0300  -25.4620 C.3   500  NAP500      0.2157
      9  O3B      -34.4180  -27.0540  -24.1220 O.3   500  NAP500     -0.2175
     10  C2B      -34.1510  -27.8520  -26.4620 C.3   500  NAP500      0.2314
     11  O2B      -33.7830  -29.0800  -25.8280 O.3   500  NAP500     -0.2630
     12  C1B      -35.1560  -28.1410  -27.5830 C.3   500  NAP500      0.3158
     13  N9A      -35.0990  -27.1120  -28.6710 N.pl3 500  NAP500     -0.1439
     14  C8A      -35.3790  -25.7890  -28.5640 C.3   500  NAP500      0.3377
     15  N7A      -35.2000  -25.1810  -29.7680 N.2   500  NAP500     -0.2095
     16  C5A      -34.7990  -26.1090  -30.6680 C.2   500  NAP500      0.2526
     17  C6A      -34.4350  -26.1530  -32.1120 C.2   500  NAP500      0.4393
     18  N6A      -34.4640  -25.0520  -32.8740 N.pl3 500  NAP500      0.2180
     19  N1A      -34.0620  -27.3250  -32.6610 N.2   500  NAP500      0.0021
     20  C2A      -34.0100  -28.4610  -31.9380 C.3   500  NAP500      0.5254
     21  N3A      -34.3350  -28.5020  -30.6250 N.2   500  NAP500     -0.0055
     22  C4A      -34.7330  -27.3850  -29.9400 C.2   500  NAP500      0.3518
     23  O3       -39.8560  -25.6680  -24.3080 O.3   500  NAP500     -0.2703
     24  PN       -39.8580  -26.4090  -22.8650 P.3   500  NAP500      0.2189
     25  O1N      -38.4210  -26.2670  -22.3250 O.3   500  NAP500     -0.4371
     26  O2N      -40.6310  -27.7420  -23.0010 O.2   500  NAP500     -0.5170
     27  O5D      -40.8140  -25.2650  -22.2150 O.3   500  NAP500     -0.3112
     28  C5D      -40.6060  -23.9150  -22.5880 C.3   500  NAP500      0.1813
     29  C4D      -40.6020  -23.0240  -21.3610 C.3   500  NAP500      0.1799
     30  O4D      -41.9900  -23.0100  -21.0160 O.3   500  NAP500     -0.3327
     31  C3D      -39.9020  -23.4790  -20.0910 C.3   500  NAP500      0.2158
     32  O3D      -38.5300  -23.1230  -20.0170 O.3   500  NAP500     -0.2175
     33  C2D      -40.8060  -22.9440  -18.9320 C.3   500  NAP500      0.2309
     34  O2D      -40.4800  -21.6590  -18.2720 O.3   500  NAP500     -0.2158
     35  C1D      -42.2060  -22.9520  -19.5960 C.3   500  NAP500      0.2263
     36  N1N      -43.0690  -24.0570  -19.0860 N.pl3 500  NAP500     -0.2787
     37  C2N      -44.0630  -23.7180  -18.2360 C.3   500  NAP500      0.1244
     38  C3N      -44.9210  -24.6740  -17.6420 C.2   500  NAP500      0.0544
     39  C7N      -46.0660  -24.2660  -16.7220 C.2   500  NAP500      0.2818
     40  O7N      -46.7060  -25.1700  -16.1720 O.2   500  NAP500     -0.2670
     41  N7N      -46.3410  -22.9760  -16.5190 N.am  500  NAP500     -0.0839
     42  C4N      -44.6850  -26.0380  -17.9810 C.2   500  NAP500      0.0033
     43  C5N      -43.6370  -26.3440  -18.8370 C.2   500  NAP500      0.0157
     44  C6N      -42.8300  -25.3490  -19.3480 C.2   500  NAP500      0.0633
     45  P2B      -32.4730  -30.0040  -26.0610 P.3   500  NAP500      0.5328
     46  O1X      -32.8860  -31.2590  -25.3230 O.3   500  NAP500     -0.1145
     47  O2X      -32.2700  -30.1510  -27.5620 O.2   500  NAP500     -0.2224
     48  O3X      -31.4220  -29.1660  -25.3890 O.3   500  NAP500     -0.1145
@<TRIPOS>BOND
     1    18    17    1
     2    19    17    2
     3    19    20    1
     4    17    16    1
     5    20    21    1
     6    16    22    1
     7    16    15    2
     8    21    22    2
     9    22    13    1
    10    15    14    1
    11    13    14    1
    12    13    12    1
    13    12     7    1
    14    12    10    1
    15    47    45    2
    16     7     6    1
    17     2     1    2
    18    10    11    1
    19    10     8    1
    20    45    11    1
    21    45    48    1
    22    45    46    1
    23     1     4    1
    24     1     3    1
    25     1    23    1
    26     4     5    1
    27     6     8    1
    28     6     5    1
    29     8     9    1
    30    23    24    1
    31    26    24    2
    32    24    25    1
    33    24    27    1
    34    28    27    1
    35    28    29    1
    36    29    30    1
    37    29    31    1
    38    30    35    1
    39    31    32    1
    40    31    33    1
    41    35    36    1
    42    35    33    1
    43    44    36    1
    44    44    43    2
    45    36    37    1
    46    33    34    1
    47    43    42    1
    48    37    38    1
    49    42    38    2
    50    38    39    1
    51    39    41   am
    52    39    40    2
