@<TRIPOS>MOLECULE
4aue_HDD_A_1.pdb
 44 52 0 0 0
SMALL
GASTEIGER

@<TRIPOS>ATOM
      1 FE         54.2000   67.6910   29.1060 Fe    900  HDD900      0.0000
      2  CHA       57.4390   67.2170   29.3850 C.2   900  HDD900      0.0000
      3  CHB       54.3130   70.2650   31.5470 C.2   900  HDD900      0.0000
      4  CHC       50.8120   68.5290   28.5700 C.2   900  HDD900      0.0000
      5  CHD       53.9070   65.1300   26.9940 C.2   900  HDD900      0.0000
      6  NA        55.6050   68.6130   30.3140 N.2   900  HDD900      0.0000
      7  C1A       56.9050   68.2700   30.2760 C.2   900  HDD900      0.0000
      8  C2A       57.7620   69.0680   31.1700 C.2   900  HDD900      0.0000
      9  C3A       56.8270   69.9970   31.8170 C.2   900  HDD900      0.0000
     10  C4A       55.5450   69.6160   31.1860 C.2   900  HDD900      0.0000
     11  CMA       57.0620   71.0350   32.8660 C.3   900  HDD900      0.0000
     12  CAA       59.2250   68.9120   31.3650 C.3   900  HDD900      0.0000
     13  CBA       59.4650   68.2730   32.7080 C.3   900  HDD900      0.0000
     14  CGA       60.9630   68.3400   32.8600 C.2   900  HDD900      0.0000
     15  O1A       61.4950   69.4340   33.2180 O.co2 900  HDD900      0.0000
     16  O2A       61.5910   67.2880   32.6140 O.co2 900  HDD900      0.0000
     17  NB        52.8670   69.1160   29.8900 N.ar  900  HDD900      0.0000
     18  C1B       53.0550   70.0360   30.8670 C.ar  900  HDD900      0.0000
     19  C2B       51.8840   70.8590   31.2600 C.ar  900  HDD900      0.0000
     20  C3B       50.8820   70.3300   30.3610 C.ar  900  HDD900      0.0000
     21  C4B       51.5570   69.2790   29.5830 C.ar  900  HDD900      0.0000
     22  CMB       51.7330   71.9580   32.2750 C.3   900  HDD900      0.0000
     23  CAB       49.4740   70.7750   30.2770 C.2   900  HDD900      0.0000
     24  CBB       48.6640   70.3070   31.2030 C.2   900  HDD900      0.0000
     25  NC        52.5950   66.9760   27.9840 N.2   900  HDD900      0.0000
     26  C1C       51.3240   67.3780   27.8490 C.2   900  HDD900      0.0000
     27  C2C       50.4760   66.5720   26.9330 C.2   900  HDD900      0.0000
     28  C3C       51.4340   65.5680   26.4980 C.2   900  HDD900      0.0000
     29  C4C       52.6840   65.9070   27.1820 C.2   900  HDD900      0.0000
     30  CMC       49.0310   66.7230   26.5530 C.3   900  HDD900      0.0000
     31  CAC       51.2200   64.4620   25.5610 C.2   900  HDD900      0.0000
     32  CBC       50.0200   63.9160   25.4680 C.2   900  HDD900      0.0000
     33  ND        55.4220   66.4530   28.3350 N.pl3 900  HDD900      0.0000
     34  C1D       55.1010   65.4180   27.5020 C.2   900  HDD900      0.0000
     35  C2D       56.2570   64.4660   27.2180 C.2   900  HDD900      0.0000
     36  C3D       57.3800   65.1190   28.0480 C.2   900  HDD900      0.0000
     37  C4D       56.7400   66.3710   28.6310 C.2   900  HDD900      0.0000
     38  CMD       56.5570   64.2260   25.7500 C.3   900  HDD900      0.0000
     39  CAD       58.6870   65.3970   27.3170 C.3   900  HDD900      0.0000
     40  CBD       59.8350   64.7740   28.1290 C.3   900  HDD900      0.0000
     41  CGD       59.1420   64.2410   29.3390 C.2   900  HDD900      0.0000
     42  O1D       57.7330   64.2620   29.1340 O.3   900  HDD900      0.0000
     43  O2D       59.6520   63.8630   30.3880 O.2   900  HDD900      0.0000
     44  OND       55.8970   63.1660   27.7180 O.2   900  HDD900      0.0000
@<TRIPOS>BOND
     1    32    31    2
     2    31    28    1
     3    38    35    1
     4    28    27    2
     5    28    29    1
     6    30    27    1
     7    27    26    1
     8     5    29    1
     9     5    34    2
    10    29    25    2
    11    35    34    1
    12    35    44    1
    13    35    36    2
    14    39    36    1
    15    39    40    1
    16    34    33    1
    17    26    25    1
    18    26     4    2
    19    25     1    1
    20    36    37    1
    21    36    42    1
    22    40    41    1
    23    33    37    1
    24    33     1    1
    25     4    21    1
    26    37     2    2
    27     1    17    1
    28     1     6    1
    29    42    41    1
    30    41    43    2
    31     2     7    1
    32    21    17   ar
    33    21    20   ar
    34    17    18   ar
    35     7     6    2
    36     7     8    1
    37    23    20    1
    38    23    24    2
    39     6    10    1
    40    20    19   ar
    41    18    19   ar
    42    18     3    1
    43     8    12    1
    44     8     9    2
    45    10     3    2
    46    10     9    1
    47    19    22    1
    48    12    13    1
    49     9    11    1
    50    16    14   ar
    51    13    14    1
    52    14    15   ar
