@<TRIPOS>MOLECULE
4aui_ATP_A_1.pdb
 31 33 0 0 0
SMALL
GASTEIGER

@<TRIPOS>ATOM
      1  PG        19.4770   -3.4740   43.5930 P.3   400  ATP400      0.5373
      2  O1G       18.4670   -4.2680   44.3930 O.3   400  ATP400     -0.1143
      3  O2G       20.9180   -3.6230   44.0140 O.3   400  ATP400     -0.1143
      4  O3G       19.2480   -3.4640   42.1000 O.2   400  ATP400     -0.2221
      5  PB        19.3680   -1.6130   45.5980 P.3   400  ATP400      0.2277
      6  O1B       18.2580   -2.2870   46.3750 O.3   400  ATP400     -0.4368
      7  O2B       20.8200   -1.9030   45.9170 O.2   400  ATP400     -0.5168
      8  O3B       19.1740   -1.9760   44.0490 O.3   400  ATP400     -0.2258
      9  PA        18.5590    0.9380   46.6990 P.3   400  ATP400      0.2189
     10  O1A       18.3100    2.2940   46.0820 O.2   400  ATP400     -0.5170
     11  O2A       17.4670    0.2260   47.4680 O.3   400  ATP400     -0.4371
     12  O3A       19.0940   -0.0190   45.5100 O.3   400  ATP400     -0.2700
     13  O5'       19.8480    1.0890   47.6410 O.3   400  ATP400     -0.3112
     14  C5'       21.0810    0.4890   47.2610 C.3   400  ATP400      0.1813
     15  C4'       22.0610    1.6340   47.1070 C.3   400  ATP400      0.1821
     16  O4'       23.3150    1.3280   47.7200 O.3   400  ATP400     -0.3135
     17  C3'       22.3590    1.9550   45.6530 C.3   400  ATP400      0.2184
     18  O3'       21.4100    2.8800   45.1070 O.3   400  ATP400     -0.2174
     19  C2'       23.7310    2.5790   45.7560 C.3   400  ATP400      0.2570
     20  O2'       23.5210    3.9840   45.9110 O.3   400  ATP400     -0.2130
     21  C1'       24.3550    2.0340   47.0400 C.3   400  ATP400      0.3186
     22  N9        25.4820    1.0930   46.7800 N.pl3 400  ATP400     -0.1439
     23  C8        25.3760   -0.2440   46.8300 C.3   400  ATP400      0.3377
     24  N7        26.5650   -0.8320   46.5540 N.2   400  ATP400     -0.2095
     25  C5        27.4740    0.1330   46.3240 C.2   400  ATP400      0.2526
     26  C6        28.9210    0.1930   45.9740 C.2   400  ATP400      0.4393
     27  N6        29.6650   -0.9280   45.8150 N.pl3 400  ATP400      0.2180
     28  N1        29.4890    1.4080   45.8190 N.2   400  ATP400      0.0021
     29  C2        28.7700    2.5330   45.9760 C.3   400  ATP400      0.5254
     30  N3        27.4580    2.5510   46.2940 N.2   400  ATP400     -0.0055
     31  C4        26.7540    1.4060   46.4800 C.2   400  ATP400      0.3518
@<TRIPOS>BOND
     1     4     1    2
     2     1     3    1
     3     1     8    1
     4     1     2    1
     5     8     5    1
     6    18    17    1
     7    12     5    1
     8    12     9    1
     9     5     7    2
    10     5     6    1
    11    17    19    1
    12    17    15    1
    13    19    20    1
    14    19    21    1
    15    27    26    1
    16    28    26    2
    17    28    29    1
    18    26    25    1
    19    29    30    1
    20    10     9    2
    21    30    31    2
    22    25    31    1
    23    25    24    2
    24    31    22    1
    25    24    23    1
    26     9    11    1
    27     9    13    1
    28    22    23    1
    29    22    21    1
    30    21    16    1
    31    15    14    1
    32    15    16    1
    33    14    13    1
