@<TRIPOS>MOLECULE
4aul_HEM_A_1.pdb
 43 50 0 0 0
SMALL
GASTEIGER

@<TRIPOS>ATOM
      1  CHA       48.7960  -22.3920  -23.2160 C.2   754  HEM754      0.0000
      2  CHB       46.2380  -26.4880  -21.8680 C.2   754  HEM754      0.0000
      3  CHC       47.5790  -28.6460  -26.0140 C.2   754  HEM754      0.0000
      4  CHD       50.7570  -24.9310  -26.9260 C.2   754  HEM754      0.0000
      5  C1A       47.9200  -23.3210  -22.5490 C.2   754  HEM754      0.0000
      6  C2A       47.2060  -22.9560  -21.3150 C.2   754  HEM754      0.0000
      7  C3A       46.4860  -24.1310  -20.9680 C.2   754  HEM754      0.0000
      8  C4A       46.7310  -25.1340  -21.9890 C.2   754  HEM754      0.0000
      9  CMA       45.6260  -24.2520  -19.7490 C.3   754  HEM754      0.0000
     10  CAA       47.2610  -21.6670  -20.5680 C.3   754  HEM754      0.0000
     11  CBA       48.2250  -21.7580  -19.3610 C.3   754  HEM754      0.0000
     12  CGA       48.1610  -20.3940  -18.7370 C.2   754  HEM754      0.0000
     13  O1A       49.1150  -19.5660  -18.8070 O.co2 754  HEM754      0.0000
     14  O2A       47.0800  -20.1250  -18.1700 O.co2 754  HEM754      0.0000
     15  C1B       46.4110  -27.4890  -22.8840 C.ar  754  HEM754      0.0000
     16  C2B       45.6950  -28.7420  -22.8350 C.ar  754  HEM754      0.0000
     17  C3B       46.1030  -29.3530  -24.0740 C.ar  754  HEM754      0.0000
     18  C4B       47.0190  -28.3980  -24.7070 C.ar  754  HEM754      0.0000
     19  CMB       44.7750  -29.1980  -21.7290 C.3   754  HEM754      0.0000
     20  CAB       45.6640  -30.6650  -24.6190 C.2   754  HEM754      0.0000
     21  CBB       45.6720  -31.7650  -23.8840 C.2   754  HEM754      0.0000
     22  C1C       48.5990  -27.8330  -26.6350 C.2   754  HEM754      0.0000
     23  C2C       49.4030  -28.3100  -27.8010 C.2   754  HEM754      0.0000
     24  C3C       50.3450  -27.2090  -27.9970 C.2   754  HEM754      0.0000
     25  C4C       50.0130  -26.1650  -26.9950 C.2   754  HEM754      0.0000
     26  CMC       49.2990  -29.6440  -28.5130 C.3   754  HEM754      0.0000
     27  CAC       51.4240  -27.0740  -28.9880 C.2   754  HEM754      0.0000
     28  CBC       51.9990  -28.1080  -29.5740 C.2   754  HEM754      0.0000
     29  C1D       50.3940  -23.8910  -25.9890 C.ar  754  HEM754      0.0000
     30  C2D       51.0900  -22.6280  -26.0970 C.ar  754  HEM754      0.0000
     31  C3D       50.5390  -21.8740  -24.9940 C.ar  754  HEM754      0.0000
     32  C4D       49.5960  -22.8000  -24.3550 C.ar  754  HEM754      0.0000
     33  CMD       52.1190  -22.2380  -27.1150 C.3   754  HEM754      0.0000
     34  CAD       50.8240  -20.4930  -24.5400 C.3   754  HEM754      0.0000
     35  CBD       51.6970  -20.8040  -23.2920 C.3   754  HEM754      0.0000
     36  CGD       52.4220  -19.5970  -22.7690 C.2   754  HEM754      0.0000
     37  O1D       52.5660  -18.5420  -23.4500 O.co2 754  HEM754      0.0000
     38  O2D       52.8410  -19.7280  -21.5780 O.co2 754  HEM754      0.0000
     39  NA        47.5930  -24.6400  -23.0160 N.2   754  HEM754      0.0000
     40  NB        47.1350  -27.2400  -24.0130 N.ar  754  HEM754      0.0000
     41  NC        48.8630  -26.4870  -26.1790 N.2   754  HEM754      0.0000
     42  ND        49.4950  -23.9960  -24.9530 N.ar  754  HEM754      0.0000
     43 FE         48.5300  -25.7300  -24.3860 Fe    754  HEM754      0.0000
@<TRIPOS>BOND
     1    28    27    2
     2    27    24    1
     3    26    23    1
     4    24    23    2
     5    24    25    1
     6    23    22    1
     7    33    30    1
     8    25     4    1
     9    25    41    2
    10     4    29    2
    11    22    41    1
    12    22     3    2
    13    41    43    1
    14    30    29   ar
    15    30    31   ar
    16     3    18    1
    17    29    42   ar
    18    31    34    1
    19    31    32   ar
    20    42    43    1
    21    42    32   ar
    22    18    17   ar
    23    18    40   ar
    24    20    17    1
    25    20    21    2
    26    34    35    1
    27    43    40    1
    28    43    39    1
    29    32     1    2
    30    17    16   ar
    31    40    15   ar
    32    37    36   ar
    33    35    36    1
    34     1     5    1
    35    39     5    2
    36    39     8    1
    37    15    16   ar
    38    15     2    1
    39    16    19    1
    40    36    38   ar
    41     5     6    1
    42     8     2    2
    43     8     7    1
    44     6     7    2
    45     6    10    1
    46     7     9    1
    47    10    11    1
    48    11    12    1
    49    13    12   ar
    50    12    14   ar
