@<TRIPOS>MOLECULE
4aum_HDD_A_1.pdb
 44 52 0 0 0
SMALL
GASTEIGER

@<TRIPOS>ATOM
      1 FE         48.6700  -25.7550  -24.3730 Fe    900  HDD900      0.0000
      2  CHA       49.1070  -22.5780  -23.2340 C.2   900  HDD900      0.0000
      3  CHB       46.4040  -26.4330  -21.8870 C.2   900  HDD900      0.0000
      4  CHC       47.8510  -28.7430  -25.9360 C.2   900  HDD900      0.0000
      5  CHD       51.0140  -25.1010  -26.7930 C.2   900  HDD900      0.0000
      6  NA        47.7930  -24.6420  -22.9120 N.2   900  HDD900      0.0000
      7  C1A       48.1360  -23.3990  -22.5070 C.2   900  HDD900      0.0000
      8  C2A       47.4260  -22.9790  -21.3050 C.2   900  HDD900      0.0000
      9  C3A       46.6220  -24.1090  -20.9210 C.2   900  HDD900      0.0000
     10  C4A       46.9550  -25.0870  -21.9530 C.2   900  HDD900      0.0000
     11  CMA       45.7060  -24.2320  -19.7400 C.3   900  HDD900      0.0000
     12  CAA       47.4900  -21.6640  -20.5850 C.3   900  HDD900      0.0000
     13  CBA       48.4640  -21.7520  -19.3900 C.3   900  HDD900      0.0000
     14  CGA       48.3560  -20.3930  -18.7040 C.2   900  HDD900      0.0000
     15  O1A       47.2890  -20.1240  -18.0960 O.co2 900  HDD900      0.0000
     16  O2A       49.3100  -19.5730  -18.8250 O.co2 900  HDD900      0.0000
     17  NB        47.3770  -27.3220  -23.9620 N.ar  900  HDD900      0.0000
     18  C1B       46.5890  -27.4640  -22.8880 C.ar  900  HDD900      0.0000
     19  C2B       45.9170  -28.7540  -22.7740 C.ar  900  HDD900      0.0000
     20  C3B       46.3420  -29.3900  -23.9890 C.ar  900  HDD900      0.0000
     21  C4B       47.2170  -28.4560  -24.6740 C.ar  900  HDD900      0.0000
     22  CMB       45.0210  -29.2570  -21.6960 C.3   900  HDD900      0.0000
     23  CAB       45.9950  -30.7590  -24.4630 C.2   900  HDD900      0.0000
     24  CBB       45.9010  -31.7810  -23.6110 C.2   900  HDD900      0.0000
     25  NC        49.2390  -26.7120  -26.1080 N.2   900  HDD900      0.0000
     26  C1C       48.8660  -27.9320  -26.5650 C.2   900  HDD900      0.0000
     27  C2C       49.5760  -28.3860  -27.7480 C.2   900  HDD900      0.0000
     28  C3C       50.5230  -27.3340  -27.9730 C.2   900  HDD900      0.0000
     29  C4C       50.2630  -26.3610  -26.9110 C.2   900  HDD900      0.0000
     30  CMC       49.3610  -29.6680  -28.5030 C.3   900  HDD900      0.0000
     31  CAC       51.5610  -27.2240  -29.0070 C.2   900  HDD900      0.0000
     32  CBC       52.2430  -28.2810  -29.4270 C.2   900  HDD900      0.0000
     33  ND        49.8550  -24.2120  -24.8340 N.pl3 900  HDD900      0.0000
     34  C1D       50.7760  -24.1480  -25.8580 C.2   900  HDD900      0.0000
     35  C2D       51.6850  -22.9250  -25.8520 C.2   900  HDD900      0.0000
     36  C3D       51.1180  -22.1160  -24.6790 C.2   900  HDD900      0.0000
     37  C4D       49.9240  -22.9800  -24.2340 C.2   900  HDD900      0.0000
     38  CMD       51.7650  -22.2080  -27.1900 C.3   900  HDD900      0.0000
     39  CAD       50.8410  -20.5970  -24.8750 C.3   900  HDD900      0.0000
     40  CBD       51.2830  -19.8950  -23.5880 C.3   900  HDD900      0.0000
     41  CGD       52.1480  -20.9110  -22.9100 C.2   900  HDD900      0.0000
     42  O1D       52.1030  -22.1490  -23.5940 O.3   900  HDD900      0.0000
     43  O2D       52.8020  -20.7590  -21.8890 O.2   900  HDD900      0.0000
     44  OND       53.0590  -23.2880  -25.5240 O.2   900  HDD900      0.0000
@<TRIPOS>BOND
     1    32    31    2
     2    31    28    1
     3    30    27    1
     4    28    27    2
     5    28    29    1
     6    27    26    1
     7    38    35    1
     8    29     5    1
     9    29    25    2
    10     5    34    2
    11    26    25    1
    12    26     4    2
    13    25     1    1
    14     4    21    1
    15    34    35    1
    16    34    33    1
    17    35    44    1
    18    35    36    2
    19    39    36    1
    20    39    40    1
    21    33     1    1
    22    33    37    1
    23    36    37    1
    24    36    42    1
    25    21    20   ar
    26    21    17   ar
    27    23    20    1
    28    23    24    2
    29     1    17    1
    30     1     6    1
    31    37     2    2
    32    20    19   ar
    33    17    18   ar
    34    42    41    1
    35    40    41    1
    36     2     7    1
    37     6     7    2
    38     6    10    1
    39    41    43    2
    40    18    19   ar
    41    18     3    1
    42    19    22    1
    43     7     8    1
    44    10     3    2
    45    10     9    1
    46     8     9    2
    47     8    12    1
    48     9    11    1
    49    12    13    1
    50    13    14    1
    51    16    14   ar
    52    14    15   ar
