@<TRIPOS>MOLECULE
4aun_HDD_A_1.pdb
 44 52 0 0 0
SMALL
GASTEIGER

@<TRIPOS>ATOM
      1 FE         58.6100   84.4600  -13.8690 Fe    900  HDD900      0.0000
      2  CHA       59.5030   81.3040  -14.3570 C.2   900  HDD900      0.0000
      3  CHB       59.6130   85.3040  -17.0870 C.2   900  HDD900      0.0000
      4  CHC       57.0280   87.5490  -13.5710 C.2   900  HDD900      0.0000
      5  CHD       57.9950   83.7930  -10.6590 C.2   900  HDD900      0.0000
      6  NA        59.2930   83.3980  -15.5370 N.ar  900  HDD900      0.0000
      7  C1A       59.8890   82.1920  -15.4720 C.ar  900  HDD900      0.0000
      8  C2A       60.3430   81.6810  -16.7890 C.ar  900  HDD900      0.0000
      9  C3A       60.3510   82.8940  -17.6110 C.ar  900  HDD900      0.0000
     10  C4A       59.7270   83.8900  -16.7130 C.ar  900  HDD900      0.0000
     11  CMA       60.8220   83.0610  -19.0250 C.3   900  HDD900      0.0000
     12  CAA       60.9140   80.3410  -17.1580 C.3   900  HDD900      0.0000
     13  CBA       62.4310   80.3790  -16.9990 C.3   900  HDD900      0.0000
     14  CGA       62.9670   79.0860  -17.5690 C.2   900  HDD900      0.0000
     15  O1A       63.4090   78.2080  -16.7910 O.co2 900  HDD900      0.0000
     16  O2A       62.8970   78.9360  -18.8050 O.co2 900  HDD900      0.0000
     17  NB        58.3790   86.1490  -15.1110 N.2   900  HDD900      0.0000
     18  C1B       58.8850   86.3470  -16.3530 C.2   900  HDD900      0.0000
     19  C2B       58.6370   87.6830  -16.9590 C.2   900  HDD900      0.0000
     20  C3B       57.8320   88.3090  -15.9020 C.2   900  HDD900      0.0000
     21  C4B       57.8090   87.3330  -14.7950 C.2   900  HDD900      0.0000
     22  CMB       59.1360   88.2270  -18.2700 C.3   900  HDD900      0.0000
     23  CAB       57.2920   89.6860  -15.8490 C.2   900  HDD900      0.0000
     24  CBB       58.1100   90.7060  -16.0460 C.2   900  HDD900      0.0000
     25  NC        57.5280   85.4690  -12.3890 N.ar  900  HDD900      0.0000
     26  C1C       57.1930   86.7760  -12.3360 C.ar  900  HDD900      0.0000
     27  C2C       56.5670   87.2050  -11.0610 C.ar  900  HDD900      0.0000
     28  C3C       57.0290   86.1350  -10.1720 C.ar  900  HDD900      0.0000
     29  C4C       57.4330   85.0700  -11.1060 C.ar  900  HDD900      0.0000
     30  CMC       56.0090   88.5590  -10.7050 C.3   900  HDD900      0.0000
     31  CAC       56.5930   85.8980   -8.7770 C.2   900  HDD900      0.0000
     32  CBC       56.7540   86.8240   -7.8510 C.2   900  HDD900      0.0000
     33  ND        58.8220   82.9330  -12.7410 N.2   900  HDD900      0.0000
     34  C1D       58.4920   82.8370  -11.4360 C.2   900  HDD900      0.0000
     35  C2D       58.9230   81.5370  -10.7900 C.2   900  HDD900      0.0000
     36  C3D       59.6040   80.8220  -11.9390 C.2   900  HDD900      0.0000
     37  C4D       59.3540   81.7450  -13.1080 C.2   900  HDD900      0.0000
     38  CMD       57.7260   80.7810  -10.2230 C.3   900  HDD900      0.0000
     39  CAD       59.0530   79.4090  -12.1570 C.2   900  HDD900      0.0000
     40  CBD       60.2230   78.4260  -12.1840 C.2   900  HDD900      0.0000
     41  CGD       61.4140   79.3040  -11.9150 C.2   900  HDD900      0.0000
     42  O1D       61.0160   80.6820  -11.7230 O.3   900  HDD900      0.0000
     43  O2D       62.5790   78.9230  -11.9370 O.2   900  HDD900      0.0000
     44  OND       59.8580   81.7550   -9.7190 O.2   900  HDD900      0.0000
@<TRIPOS>BOND
     1    11     9    1
     2    16    14   ar
     3    22    19    1
     4     9     8   ar
     5     9    10   ar
     6    14    13    1
     7    14    15   ar
     8    12    13    1
     9    12     8    1
    10     3    10    2
    11     3    18    1
    12    19    18    1
    13    19    20    2
    14     8     7   ar
    15    10     6   ar
    16    18    17    2
    17    24    23    2
    18    20    23    1
    19    20    21    1
    20     6     7   ar
    21     6     1    1
    22     7     2    2
    23    17    21    1
    24    17     1    1
    25    21     4    2
    26     2    37    1
    27     1    33    1
    28     1    25    1
    29     4    26    1
    30    37    33    2
    31    37    36    1
    32    33    34    1
    33    25    26   ar
    34    25    29   ar
    35    26    27   ar
    36    40    39    2
    37    40    41    1
    38    39    36    1
    39    36    42    1
    40    36    35    2
    41    43    41    2
    42    41    42    1
    43    34    35    1
    44    34     5    2
    45    29     5    1
    46    29    28   ar
    47    27    30    1
    48    27    28   ar
    49    35    38    1
    50    35    44    1
    51    28    31    1
    52    31    32    2
