@<TRIPOS>MOLECULE
4aux_XTC_A_1.pdb
 33 36 0 0 0
SMALL
GASTEIGER

@<TRIPOS>ATOM
      1  O92       22.7470   44.5170   34.8470 O.2   222  XTC222     -0.1260
      2  N9        23.1250   43.4290   34.4030 N.pl3 222  XTC222      0.0609
      3  O91       24.0240   43.4190   33.5580 O.2   222  XTC222     -0.1260
      4  C9        22.5200   42.2450   34.8700 C.ar  222  XTC222      0.1816
      5  C8        21.6670   42.3400   35.9680 C.ar  222  XTC222      0.0271
      6  C7        21.0410   41.2110   36.4890 C.ar  222  XTC222     -0.0022
      7  C10       22.7350   40.9990   34.2520 C.ar  222  XTC222      0.2206
      8  O10       23.5470   40.8980   33.1540 O.3   222  XTC222     -0.2847
      9  C1A       22.0920   39.8590   34.7720 C.ar  222  XTC222      0.0750
     10  C61       21.2640   39.9830   35.8810 C.ar  222  XTC222     -0.0156
     11  C6        20.6000   38.7740   36.4270 C.3   222  XTC222      0.0308
     12  C11       22.2790   38.5030   34.1510 C.2   222  XTC222      0.1930
     13  O11       22.7580   38.4780   32.9030 O.2   222  XTC222     -0.2871
     14  C1B       21.9680   37.3840   34.8510 C.2   222  XTC222      0.0271
     15  C51       21.5860   37.6160   36.2930 C.3   222  XTC222      0.0284
     16  C5        20.9200   36.4400   36.9590 C.3   222  XTC222      0.0086
     17  C12       22.0310   36.1300   34.3320 C.3   222  XTC222      0.2036
     18  O12       22.6160   35.8760   33.1410 O.3   222  XTC222     -0.2158
     19  C1C       21.5310   34.9160   35.0980 C.3   222  XTC222      0.1876
     20  O1C       22.4210   33.8730   34.6900 O.3   222  XTC222     -0.2200
     21  C1        20.1080   34.5220   34.7950 C.3   222  XTC222      0.1936
     22  O1        19.5000   35.1830   33.8020 O.3   222  XTC222     -0.2198
     23  C41       21.6480   35.1640   36.6120 C.3   222  XTC222      0.0509
     24  C4        21.0410   34.0830   37.5070 C.3   222  XTC222      0.0912
     25  N4        22.0170   33.2430   38.2620 N.3   222  XTC222     -0.2692
     26  C43       22.6460   33.9620   39.4000 C.3   222  XTC222      0.0897
     27  C42       23.0810   32.6090   37.4480 C.3   222  XTC222      0.0897
     28  C3        20.1230   33.2060   36.7120 C.3   222  XTC222      0.1777
     29  O3        19.9660   32.0030   37.2390 O.3   222  XTC222     -0.2211
     30  C2        19.5130   33.5540   35.5510 C.3   222  XTC222      0.1443
     31  C21       18.2480   32.8310   35.1680 C.2   222  XTC222      0.2654
     32  O21       17.8080   31.9030   35.8220 O.2   222  XTC222     -0.2715
     33  N21       17.5210   33.1470   34.0980 N.am  222  XTC222     -0.0877
@<TRIPOS>BOND
     1    13    12    1
     2    18    17    1
     3     8     7    1
     4     3     2    2
     5    22    21    1
     6    33    31   am
     7    12     9    1
     8    12    14    2
     9     7     9   ar
    10     7     4   ar
    11    17    14    1
    12    17    19    1
    13     2     1    2
    14     2     4    1
    15    20    19    1
    16     9    10   ar
    17    21    19    1
    18    21    30    1
    19    14    15    1
    20     4     5   ar
    21    19    23    1
    22    31    30    1
    23    31    32    2
    24    30    28    1
    25    10    11    1
    26    10     6   ar
    27     5     6   ar
    28    15    11    1
    29    15    16    1
    30    23    16    1
    31    23    24    1
    32    28    29    1
    33    28    24    1
    34    27    25    1
    35    24    25    1
    36    25    26    1
