@<TRIPOS>MOLECULE
4auy_HNW_A_1.pdb
 22 23 0 0 0
SMALL
GASTEIGER

@<TRIPOS>ATOM
      1  O6        15.5870  -59.6380   20.9280 O.3   201  HNW201     -0.2176
      2  C6        15.8800  -60.8920   20.3850 C.3   201  HNW201      0.2142
      3  C5        14.9540  -61.9230   20.7340 C.3   201  HNW201      0.1846
      4  O5        14.7350  -61.9160   22.1970 O.3   201  HNW201     -0.3157
      5  C4        13.6110  -61.7360   20.0180 C.3   201  HNW201      0.2145
      6  O4        13.8340  -61.7690   18.6030 O.3   201  HNW201     -0.2176
      7  C3        12.6930  -62.7240   20.4240 C.3   201  HNW201      0.2211
      8  O3        11.4590  -62.4720   19.7490 O.3   201  HNW201     -0.2173
      9  C2        12.4700  -62.6890   21.8880 C.3   201  HNW201      0.2542
     10  O2        11.8970  -61.5230   22.3250 O.3   201  HNW201     -0.2135
     11  O7        21.9120  -68.9520   24.1170 O.3   201  HNW201     -0.2049
     12  C7        21.5270  -67.6050   24.1590 C.3   201  HNW201      0.2578
     13  C8        20.1350  -67.1490   23.6690 C.1   201  HNW201     -0.0506
     14  C9        19.0270  -66.8250   23.2630 C.1   201  HNW201     -0.0618
     15  C10       17.7180  -66.2390   22.9050 C.ar  201  HNW201      0.0419
     16  C15       17.4180  -65.0690   23.4970 C.ar  201  HNW201      0.0113
     17  C14       16.2200  -64.3470   23.3000 C.ar  201  HNW201      0.0376
     18  C13       15.2890  -64.8680   22.4500 C.ar  201  HNW201      0.1414
     19  O1        14.0740  -64.2070   22.2090 O.3   201  HNW201     -0.4505
     20  C1        13.8190  -62.9070   22.5900 C.3   201  HNW201      0.3218
     21  C12       15.5660  -66.0640   21.8640 C.ar  201  HNW201      0.0376
     22  C11       16.7850  -66.7840   22.0560 C.ar  201  HNW201      0.0113
@<TRIPOS>BOND
     1     6     5    1
     2     8     7    1
     3     5     7    1
     4     5     3    1
     5     2     3    1
     6     2     1    1
     7     7     9    1
     8     3     4    1
     9    21    22   ar
    10    21    18   ar
    11     9    10    1
    12     9    20    1
    13    22    15   ar
    14     4    20    1
    15    19    18    1
    16    19    20    1
    17    18    17   ar
    18    15    14    1
    19    15    16   ar
    20    14    13    3
    21    17    16   ar
    22    13    12    1
    23    11    12    1
