@<TRIPOS>MOLECULE
4av0_HNV_A_1.pdb
 23 24 0 0 0
SMALL
GASTEIGER

@<TRIPOS>ATOM
      1  O6       -15.4270   59.5540   20.6540 O.3   201  HNV201     -0.2176
      2  C6       -15.7650   60.8230   20.1990 C.3   201  HNV201      0.2142
      3  C5       -14.8270   61.9190   20.5480 C.3   201  HNV201      0.1835
      4  O5       -14.6460   61.9540   21.9370 O.3   201  HNV201     -0.3256
      5  C4       -13.4800   61.6850   19.8420 C.3   201  HNV201      0.2144
      6  O4       -13.6980   61.5880   18.4320 O.3   201  HNV201     -0.2176
      7  C3       -12.5280   62.6600   20.1980 C.3   201  HNV201      0.2198
      8  O3       -11.2350   62.3750   19.5480 O.3   201  HNV201     -0.2174
      9  C2       -12.3250   62.7320   21.6090 C.3   201  HNV201      0.2406
     10  O2       -11.7080   61.5580   22.1340 O.3   201  HNV201     -0.2149
     11  C1       -13.6310   62.8340   22.3810 C.3   201  HNV201      0.2704
     12  O1       -14.0360   64.1340   22.3570 O.3   201  HNV201     -0.3141
     13  C7       -15.1760   64.4350   23.0710 C.3   201  HNV201      0.2206
     14  C8       -16.1150   65.4820   22.5770 C.1   201  HNV201     -0.0538
     15  C9       -16.9560   66.2860   22.2330 C.1   201  HNV201     -0.0619
     16  C10      -18.0450   67.2120   21.8300 C.ar  201  HNV201      0.0419
     17  C15      -17.7680   68.5490   21.5740 C.ar  201  HNV201      0.0113
     18  C14      -18.8170   69.3780   21.1810 C.ar  201  HNV201      0.0375
     19  C13      -20.1150   68.8900   21.0290 C.ar  201  HNV201      0.1388
     20  O7       -21.1220   69.7520   20.6320 O.3   201  HNV201     -0.4714
     21  C16      -21.2240   70.1820   19.3150 C.3   201  HNV201      0.2525
     22  C12      -20.3830   67.5430   21.2820 C.ar  201  HNV201      0.0375
     23  C11      -19.3390   66.7100   21.6800 C.ar  201  HNV201      0.0113
@<TRIPOS>BOND
     1     6     5    1
     2    21    20    1
     3     8     7    1
     4     5     7    1
     5     5     3    1
     6     7     9    1
     7     2     3    1
     8     2     1    1
     9     3     4    1
    10    20    19    1
    11    19    18   ar
    12    19    22   ar
    13    18    17   ar
    14    22    23   ar
    15    17    16   ar
    16     9    10    1
    17     9    11    1
    18    23    16   ar
    19    16    15    1
    20     4    11    1
    21    15    14    3
    22    12    11    1
    23    12    13    1
    24    14    13    1
