@<TRIPOS>MOLECULE
4av4_FVQ_A_1.pdb
 21 22 0 0 0
SMALL
GASTEIGER

@<TRIPOS>ATOM
      1  O6       -14.6670    3.9780   -9.5890 O.3   201  FVQ201     -0.2176
      2  C6       -15.3850    3.7320  -10.8030 C.3   201  FVQ201      0.2142
      3  C5       -15.2040    2.4900  -11.5060 C.3   201  FVQ201      0.1835
      4  O5       -13.7290    2.2320  -11.5090 O.3   201  FVQ201     -0.3256
      5  C4       -15.9880    1.3950  -10.8580 C.3   201  FVQ201      0.2144
      6  O4       -17.4140    1.7570  -10.8450 O.3   201  FVQ201     -0.2176
      7  C3       -15.6700    0.0890  -11.4380 C.3   201  FVQ201      0.2198
      8  O3       -16.2120   -0.9440  -10.6730 O.3   201  FVQ201     -0.2174
      9  C2       -14.1870   -0.1410  -11.5470 C.3   201  FVQ201      0.2406
     10  O2       -13.6570   -0.3710  -10.2860 O.3   201  FVQ201     -0.2149
     11  C1       -13.4460    1.0100  -12.1480 C.3   201  FVQ201      0.2704
     12  O1       -13.8170    1.0900  -13.4730 O.3   201  FVQ201     -0.3141
     13  C7       -13.0690    2.0180  -14.2870 C.3   201  FVQ201      0.2206
     14  C8       -13.6360    2.1130  -15.6370 C.1   201  FVQ201     -0.0538
     15  C9       -14.1170    2.2930  -16.7220 C.1   201  FVQ201     -0.0604
     16  C10      -14.6980    2.5790  -18.0730 C.ar  201  FVQ201      0.0609
     17  C15      -13.8360    3.1590  -19.0530 C.ar  201  FVQ201      0.0114
     18  C14      -14.3750    3.4500  -20.3120 C.ar  201  FVQ201      0.0213
     19  C13      -15.7250    3.1380  -20.5460 C.ar  201  FVQ201      0.0989
     20  N12      -16.5170    2.5880  -19.5800 N.ar  201  FVQ201     -0.2417
     21  C11      -16.0190    2.3040  -18.3440 C.ar  201  FVQ201      0.1071
@<TRIPOS>BOND
     1    19    18   ar
     2    19    20   ar
     3    18    17   ar
     4    20    21   ar
     5    17    16   ar
     6    21    16   ar
     7    16    15    1
     8    15    14    3
     9    14    13    1
    10    13    12    1
    11    12    11    1
    12    11     9    1
    13    11     4    1
    14     9     7    1
    15     9    10    1
    16     4     3    1
    17     3     5    1
    18     3     2    1
    19     7     5    1
    20     7     8    1
    21     5     6    1
    22     2     1    1
