@<TRIPOS>MOLECULE
4av5_FYZ_A_1.pdb
 27 29 0 0 0
SMALL
GASTEIGER

@<TRIPOS>ATOM
      1  O2         3.3660  -13.8320  -10.5240 O.3   201  FYZ201     -0.2149
      2  C2         3.9250  -14.3500  -11.7510 C.3   201  FYZ201      0.2406
      3  C3         3.2120  -15.6360  -12.1450 C.3   201  FYZ201      0.2198
      4  O3         3.2890  -16.6240  -11.0940 O.3   201  FYZ201     -0.2174
      5  C4         1.7540  -15.3410  -12.4910 C.3   201  FYZ201      0.2144
      6  O4         1.1090  -16.5210  -12.9400 O.3   201  FYZ201     -0.2176
      7  C5         1.6740  -14.2080  -13.5370 C.3   201  FYZ201      0.1835
      8  O5         2.3790  -13.0560  -13.0980 O.3   201  FYZ201     -0.3256
      9  C6         0.2340  -13.8040  -13.8070 C.3   201  FYZ201      0.2142
     10  O6        -0.4060  -13.2860  -12.6440 O.3   201  FYZ201     -0.2176
     11  C1         3.7660  -13.2680  -12.8000 C.3   201  FYZ201      0.2704
     12  O1         4.4520  -13.7410  -13.9640 O.3   201  FYZ201     -0.3141
     13  C7         4.6670  -12.6380  -14.8760 C.3   201  FYZ201      0.2206
     14  C8         4.5920  -13.0440  -16.2930 C.1   201  FYZ201     -0.0538
     15  C9         4.5400  -13.3690  -17.4270 C.1   201  FYZ201     -0.0619
     16  C10        4.5120  -13.7810  -18.6590 C.ar  201  FYZ201      0.0417
     17  C11        5.4390  -14.7570  -19.0460 C.ar  201  FYZ201      0.0082
     18  C12        5.4350  -15.2490  -20.3560 C.ar  201  FYZ201      0.0006
     19  C13        4.4990  -14.7830  -21.2720 C.ar  201  FYZ201      0.0000
     20  C14        3.5940  -13.7820  -20.8920 C.ar  201  FYZ201      0.0006
     21  C15        3.5830  -13.2850  -19.5790 C.ar  201  FYZ201      0.0082
     22  C16        4.5590  -15.3080  -22.6740 C.ar  201  FYZ201      0.0000
     23  C21        5.6650  -16.0670  -23.0520 C.ar  201  FYZ201      0.0000
     24  C20        5.7560  -16.5600  -24.3620 C.ar  201  FYZ201      0.0000
     25  C19        4.7380  -16.2600  -25.2650 C.ar  201  FYZ201      0.0000
     26  C18        3.6410  -15.4900  -24.9000 C.ar  201  FYZ201      0.0000
     27  C17        3.5580  -15.0010  -23.5890 C.ar  201  FYZ201      0.0000
@<TRIPOS>BOND
     1    25    26   ar
     2    25    24   ar
     3    26    27   ar
     4    24    23   ar
     5    27    22   ar
     6    23    22   ar
     7    22    19    1
     8    19    20   ar
     9    19    18   ar
    10    20    21   ar
    11    18    17   ar
    12    21    16   ar
    13    17    16   ar
    14    16    15    1
    15    15    14    3
    16    14    13    1
    17    13    12    1
    18    12    11    1
    19     9     7    1
    20     9    10    1
    21     7     8    1
    22     7     5    1
    23     8    11    1
    24     6     5    1
    25    11     2    1
    26     5     3    1
    27     3     2    1
    28     3     4    1
    29     2     1    1
