@<TRIPOS>MOLECULE
4avb_CMP_A_1.pdb
 22 25 0 0 0
SMALL
GASTEIGER

@<TRIPOS>ATOM
      1  P         -6.0020   14.3940   -4.7180 P.3   400  CMP400      0.2141
      2  O1P       -5.7670   12.9170   -4.8610 O.2   400  CMP400     -0.5172
      3  O2P       -6.6770   14.9100   -3.4670 O.3   400  CMP400     -0.4373
      4  O5'       -4.6160   15.1940   -4.9750 O.3   400  CMP400     -0.3114
      5  C5'       -4.0660   15.3110   -6.2910 C.3   400  CMP400      0.1812
      6  C4'       -5.1570   15.6670   -7.2390 C.3   400  CMP400      0.1793
      7  O4'       -4.7570   15.5840   -8.6240 O.3   400  CMP400     -0.3136
      8  C3'       -6.3250   14.7400   -7.1960 C.3   400  CMP400      0.1884
      9  O3'       -6.9980   14.8080   -5.9560 O.3   400  CMP400     -0.3111
     10  C2'       -7.1080   15.2070   -8.4080 C.3   400  CMP400      0.2541
     11  O2'       -7.7800   16.4260   -8.1260 O.3   400  CMP400     -0.2131
     12  C1'       -5.9450   15.5000   -9.3930 C.3   400  CMP400      0.3185
     13  N9        -5.7880   14.4300  -10.3900 N.pl3 400  CMP400     -0.1439
     14  C8        -5.4400   13.1630  -10.1100 C.3   400  CMP400      0.3377
     15  N7        -5.3950   12.4190  -11.2360 N.2   400  CMP400     -0.2095
     16  C5        -5.7340   13.2220  -12.2550 C.2   400  CMP400      0.2526
     17  C6        -5.8670   13.0440  -13.7080 C.2   400  CMP400      0.4393
     18  N6        -5.6400   11.8180  -14.2600 N.pl3 400  CMP400      0.2180
     19  N1        -6.2380   14.1310  -14.4200 N.2   400  CMP400      0.0021
     20  C2        -6.4660   15.3300  -13.8430 C.3   400  CMP400      0.5254
     21  N3        -6.3510   15.5710  -12.5150 N.2   400  CMP400     -0.0055
     22  C4        -5.9940   14.5580  -11.6920 C.2   400  CMP400      0.3518
@<TRIPOS>BOND
     1    19    20    1
     2    19    17    2
     3    18    17    1
     4    20    21    1
     5    17    16    1
     6    21    22    2
     7    16    22    1
     8    16    15    2
     9    22    13    1
    10    15    14    1
    11    13    14    1
    12    13    12    1
    13    12     7    1
    14    12    10    1
    15     7     6    1
    16    10    11    1
    17    10     8    1
    18     6     8    1
    19     6     5    1
    20     8     9    1
    21     5     4    1
    22     9     1    1
    23     4     1    1
    24     2     1    2
    25     1     3    1
