@<TRIPOS>MOLECULE
4avc_CMP_A_1.pdb
 22 25 0 0 0
SMALL
GASTEIGER

@<TRIPOS>ATOM
      1  P        -43.1850   56.1900   80.3990 P.3   400  CMP400      0.2141
      2  O1P      -41.7080   56.3020   80.1570 O.3   400  CMP400     -0.4373
      3  O2P      -44.1290   56.5850   79.2970 O.2   400  CMP400     -0.5172
      4  O5'      -43.5430   54.7070   80.9190 O.3   400  CMP400     -0.3114
      5  C5'      -43.5710   54.3780   82.3040 C.3   400  CMP400      0.1812
      6  C4'      -43.9370   55.5800   83.1060 C.3   400  CMP400      0.1793
      7  O4'      -43.7130   55.3740   84.5100 O.3   400  CMP400     -0.3136
      8  C3'      -43.1090   56.7830   82.8060 C.3   400  CMP400      0.1884
      9  O3'      -43.4370   57.3140   81.5520 O.3   400  CMP400     -0.3111
     10  C2'      -43.3940   57.6830   83.9990 C.3   400  CMP400      0.2541
     11  O2'      -44.6210   58.3660   83.8300 O.3   400  CMP400     -0.2131
     12  C1'      -43.5610   56.6380   85.1220 C.3   400  CMP400      0.3185
     13  N9       -42.3910   56.5860   86.0130 N.pl3 400  CMP400     -0.1439
     14  C8       -41.1770   56.1110   85.6840 C.3   400  CMP400      0.3377
     15  N7       -40.3320   56.2080   86.7340 N.2   400  CMP400     -0.2095
     16  C5       -41.0210   56.7410   87.7620 C.2   400  CMP400      0.2526
     17  C6       -40.7270   57.1090   89.1680 C.2   400  CMP400      0.4393
     18  N6       -39.4900   56.9150   89.6890 N.pl3 400  CMP400      0.2180
     19  N1       -41.7250   57.6380   89.9010 N.2   400  CMP400      0.0021
     20  C2       -42.9540   57.8320   89.3860 C.3   400  CMP400      0.5254
     21  N3       -43.2880   57.5250   88.1250 N.2   400  CMP400     -0.0055
     22  C4       -42.3800   56.9850   87.2830 C.2   400  CMP400      0.3518
@<TRIPOS>BOND
     1     3     1    2
     2     2     1    1
     3     1     4    1
     4     1     9    1
     5     4     5    1
     6     9     8    1
     7     5     6    1
     8     8     6    1
     9     8    10    1
    10     6     7    1
    11    11    10    1
    12    10    12    1
    13     7    12    1
    14    12    13    1
    15    14    13    1
    16    14    15    1
    17    13    22    1
    18    15    16    2
    19    22    16    1
    20    22    21    2
    21    16    17    1
    22    21    20    1
    23    17    18    1
    24    17    19    2
    25    20    19    1
