@<TRIPOS>MOLECULE
4avg_SL6_A_1.pdb
 29 31 0 0 0
SMALL
GASTEIGER

@<TRIPOS>ATOM
      1 CL2        12.5420  -22.1150  -18.1640 Cl    801  SL6801     -0.0822
      2  C19       13.3810  -22.6860  -16.6730 C.ar  801  SL6801      0.0577
      3  C18       13.8600  -24.0020  -16.5790 C.ar  801  SL6801      0.0111
      4  C17       14.4910  -24.4170  -15.4160 C.ar  801  SL6801     -0.0034
      5  C20       13.5330  -21.7910  -15.6160 C.ar  801  SL6801      0.0111
      6  C21       14.1580  -22.2180  -14.4560 C.ar  801  SL6801     -0.0034
      7  C16       14.6570  -23.5050  -14.3790 C.ar  801  SL6801     -0.0217
      8  C15       15.2680  -23.9530  -13.1060 C.3   801  SL6801      0.0337
      9  C11       16.6960  -23.5760  -12.7520 C.3   801  SL6801      0.0623
     10  C10       17.6920  -24.3610  -13.6410 C.3   801  SL6801      0.0250
     11  C9        18.8400  -24.9990  -12.8520 C.3   801  SL6801      0.0725
     12  C14       16.9050  -22.0720  -12.8110 C.2   801  SL6801      0.1761
     13  O27       16.6440  -21.4250  -11.8100 O.2   801  SL6801     -0.2912
     14  C22       17.4760  -21.5140  -14.0700 C.2   801  SL6801      0.0864
     15  C23       17.8470  -20.2530  -14.3690 C.2   801  SL6801      0.2775
     16  O28       17.6910  -19.2850  -13.5020 O.2   801  SL6801     -0.2794
     17  C24       18.4300  -19.9560  -15.7190 C.2   801  SL6801      0.4261
     18  O26       18.7500  -18.7820  -16.0150 O.co2 801  SL6801     -0.2369
     19  O25       18.5680  -20.9010  -16.5630 O.co2 801  SL6801     -0.2369
     20  C12       16.8050  -24.0950  -11.3030 C.3   801  SL6801      0.0250
     21  C13       18.1860  -23.9930  -10.6980 C.3   801  SL6801      0.0725
     22  N8        19.2830  -24.2610  -11.6430 N.3   801  SL6801     -0.2727
     23  C7        20.3140  -24.9830  -10.8380 C.3   801  SL6801      0.0720
     24  C2        21.5850  -25.3220  -11.6180 C.3   801  SL6801      0.0160
     25  C3        22.8180  -24.9030  -10.8030 C.3   801  SL6801      0.0014
     26  C4        24.1150  -25.4830  -11.3980 C.3   801  SL6801      0.0000
     27  C5        24.0560  -26.9870  -11.5970 C.3   801  SL6801      0.0000
     28  C6        22.9030  -27.3450  -12.5350 C.3   801  SL6801      0.0000
     29  C1        21.5790  -26.8360  -11.9570 C.3   801  SL6801      0.0014
@<TRIPOS>BOND
     1     1     2    1
     2     2     3   ar
     3     2     5   ar
     4     3     4   ar
     5    19    17   ar
     6    18    17   ar
     7    17    15    1
     8     5     6   ar
     9     4     7   ar
    10     6     7   ar
    11     7     8    1
    12    15    14    2
    13    15    16    1
    14    14    12    1
    15    10    11    1
    16    10     9    1
    17     8     9    1
    18    11    22    1
    19    12     9    1
    20    12    13    2
    21     9    20    1
    22    28    29    1
    23    28    27    1
    24    29    24    1
    25    22    23    1
    26    22    21    1
    27    24    23    1
    28    24    25    1
    29    27    26    1
    30    26    25    1
    31    20    21    1
