@<TRIPOS>MOLECULE
4avh_FK9_A_1.pdb
 19 19 0 0 0
SMALL
GASTEIGER

@<TRIPOS>ATOM
      1  O6       -59.5600  -16.5790  -20.9070 O.3   201  FK9201     -0.2176
      2  C6       -60.8670  -16.8520  -20.3710 C.3   201  FK9201      0.2142
      3  C5       -61.2620  -18.2800  -20.7120 C.3   201  FK9201      0.1835
      4  O5       -61.1550  -18.5120  -22.1380 O.3   201  FK9201     -0.3256
      5  C4       -60.3820  -19.2610  -19.9420 C.3   201  FK9201      0.2144
      6  O4       -60.5720  -19.1100  -18.5280 O.3   201  FK9201     -0.2176
      7  C3       -60.7150  -20.6980  -20.3180 C.3   201  FK9201      0.2198
      8  O3       -59.8220  -21.5720  -19.6170 O.3   201  FK9201     -0.2174
      9  C2       -60.6050  -20.8770  -21.8330 C.3   201  FK9201      0.2406
     10  O2       -59.2570  -20.6500  -22.2880 O.3   201  FK9201     -0.2149
     11  C1       -61.5050  -19.8570  -22.5240 C.3   201  FK9201      0.2695
     12  O1       -62.8570  -20.1380  -22.1570 O.3   201  FK9201     -0.3285
     13  C7       -63.7680  -19.5240  -23.0640 C.3   201  FK9201      0.1458
     14  C8       -65.2000  -19.7770  -22.6230 C.3   201  FK9201      0.0438
     15  C9       -66.0290  -18.5270  -22.8650 C.3   201  FK9201      0.0601
     16  C13      -68.4490  -17.1740  -22.1860 C.3   201  FK9201      0.0576
     17  C14      -67.8730  -15.8240  -21.7750 C.3   201  FK9201      0.0116
     18  C15      -68.8090  -14.6870  -22.1430 C.3   201  FK9201      0.0009
     19  S1       -67.3570  -18.4800  -21.7200 S.3   201  FK9201     -0.1402
@<TRIPOS>BOND
     1    13    14    1
     2    13    12    1
     3    15    14    1
     4    15    19    1
     5    11    12    1
     6    11     4    1
     7    11     9    1
     8    10     9    1
     9    16    17    1
    10    16    19    1
    11    18    17    1
    12     4     3    1
    13     9     7    1
    14     1     2    1
    15     3     2    1
    16     3     5    1
    17     7     5    1
    18     7     8    1
    19     5     6    1
