@<TRIPOS>MOLECULE
4avi_XNS_A_1.pdb
 24 24 0 0 0
SMALL
GASTEIGER

@<TRIPOS>ATOM
      1  C14       20.7770  -68.2680   20.7670 C.3   201  XNS201      0.1096
      2  O7        20.9030  -68.1540   18.3350 O.2   201  XNS201     -0.2501
      3  C15       21.1560  -68.7920   19.3580 C.2   201  XNS201      0.3171
      4  O8        21.8150  -69.9930   19.3540 O.3   201  XNS201     -0.4444
      5  C16       22.1470  -70.3980   18.0200 C.3   201  XNS201      0.2556
      6  C13       20.7560  -66.7280   20.8820 C.3   201  XNS201      0.0116
      7  C12       20.4520  -66.3860   22.3530 C.3   201  XNS201      0.0006
      8  C11       19.0810  -66.8750   22.8370 C.3   201  XNS201      0.0000
      9  C10       17.9060  -66.1570   22.1360 C.3   201  XNS201      0.0001
     10  C9        16.6020  -66.7540   22.6960 C.3   201  XNS201      0.0026
     11  C8        15.3200  -66.0500   22.2220 C.3   201  XNS201      0.0322
     12  C7        15.2810  -64.5750   22.7270 C.3   201  XNS201      0.1449
     13  O1        14.0620  -63.9800   22.2660 O.3   201  XNS201     -0.3286
     14  C1        13.6980  -62.5980   22.5930 C.3   201  XNS201      0.2695
     15  C2        12.3790  -62.3170   21.9050 C.3   201  XNS201      0.2406
     16  O2        11.9260  -60.9990   22.1630 O.3   201  XNS201     -0.2149
     17  C3        12.5790  -62.3810   20.3950 C.3   201  XNS201      0.2198
     18  O3        11.3510  -62.0510   19.7200 O.3   201  XNS201     -0.2174
     19  C4        13.6060  -61.3150   20.0550 C.3   201  XNS201      0.2144
     20  O4        13.8670  -61.4120   18.6490 O.3   201  XNS201     -0.2176
     21  C5        14.8920  -61.5750   20.7660 C.3   201  XNS201      0.1835
     22  O5        14.6700  -61.5640   22.1900 O.3   201  XNS201     -0.3256
     23  C6        15.9290  -60.5270   20.3690 C.3   201  XNS201      0.2142
     24  O6        15.4860  -59.2320   20.7580 O.3   201  XNS201     -0.2176
@<TRIPOS>BOND
     1     5     4    1
     2     2     3    2
     3    20    19    1
     4     4     3    1
     5     3     1    1
     6    18    17    1
     7    19    17    1
     8    19    21    1
     9    23    24    1
    10    23    21    1
    11    17    15    1
    12    21    22    1
    13     1     6    1
    14     6     7    1
    15    15    16    1
    16    15    14    1
    17     9    10    1
    18     9     8    1
    19    22    14    1
    20    11    10    1
    21    11    12    1
    22    13    14    1
    23    13    12    1
    24     7     8    1
