@<TRIPOS>MOLECULE
4avj_J73_A_1.pdb
 27 29 0 0 0
SMALL
GASTEIGER

@<TRIPOS>ATOM
      1  O42      -72.5050  -13.5670  -20.0440 O.3   201  J73201     -0.2137
      2  C41      -71.5710  -14.4940  -19.9570 C.3   201  J73201      0.2262
      3  C39      -70.4220  -14.5020  -20.9250 C.2   201  J73201      0.1079
      4  N38      -69.9440  -13.4350  -21.6360 N.2   201  J73201     -0.1514
      5  N37      -68.8620  -13.8810  -22.4120 N.pl3 201  J73201     -0.0630
      6  C40      -69.6350  -15.6320  -21.2530 C.3   201  J73201      0.1407
      7  N36      -68.6950  -15.2300  -22.1600 N.3   201  J73201     -0.1630
      8  C35      -67.6890  -16.0760  -22.7630 C.3   201  J73201      0.1005
      9  C34      -67.6980  -17.5580  -22.4730 C.3   201  J73201      0.0456
     10  C16      -66.3710  -18.1870  -22.4430 C.ar  201  J73201     -0.0205
     11  C17      -65.2910  -17.5630  -23.0820 C.ar  201  J73201     -0.0011
     12  C18      -64.0030  -18.0960  -23.1030 C.ar  201  J73201      0.0367
     13  C13      -63.8110  -19.3190  -22.4350 C.ar  201  J73201      0.1414
     14  C14      -64.9380  -19.9700  -21.7900 C.ar  201  J73201      0.0367
     15  C15      -66.1820  -19.4330  -21.7810 C.ar  201  J73201     -0.0011
     16  O1       -62.6360  -19.9880  -22.3500 O.3   201  J73201     -0.4505
     17  C1       -61.3190  -19.4260  -22.5670 C.3   201  J73201      0.3218
     18  C2       -60.5200  -20.4710  -21.8420 C.3   201  J73201      0.2542
     19  O2       -59.1730  -20.4540  -22.3360 O.3   201  J73201     -0.2135
     20  C3       -60.6420  -20.2560  -20.3590 C.3   201  J73201      0.2211
     21  O3       -59.9390  -21.2960  -19.7070 O.3   201  J73201     -0.2173
     22  C4       -60.2420  -18.9650  -19.9730 C.3   201  J73201      0.2145
     23  O4       -60.3270  -18.8360  -18.5870 O.3   201  J73201     -0.2176
     24  C5       -61.1320  -17.9450  -20.6250 C.3   201  J73201      0.1846
     25  O5       -61.1120  -18.1420  -22.1010 O.3   201  J73201     -0.3157
     26  C6       -60.6620  -16.5640  -20.3580 C.3   201  J73201      0.2142
     27  O6       -59.3680  -16.2860  -20.7740 O.3   201  J73201     -0.2176
@<TRIPOS>BOND
     1    12    11   ar
     2    12    13   ar
     3    11    10   ar
     4     8     9    1
     5     8     7    1
     6    17    16    1
     7    17    25    1
     8    17    18    1
     9     9    10    1
    10    10    15   ar
    11    13    16    1
    12    13    14   ar
    13     5     7    1
    14     5     4    1
    15    19    18    1
    16     7     6    1
    17    25    24    1
    18    18    20    1
    19    14    15   ar
    20     4     3    2
    21     6     3    1
    22     3     2    1
    23    27    26    1
    24    24    26    1
    25    24    22    1
    26    20    22    1
    27    20    21    1
    28     1     2    1
    29    22    23    1
