@<TRIPOS>MOLECULE
4avk_FVQ_A_1.pdb
 21 22 0 0 0
SMALL
GASTEIGER

@<TRIPOS>ATOM
      1  O6        15.4800  -58.8550   20.9290 O.3   201  FVQ201     -0.2176
      2  C6        15.8180  -60.1390   20.3690 C.3   201  FVQ201      0.2142
      3  C5        14.9360  -61.2340   20.7420 C.3   201  FVQ201      0.1835
      4  O5        14.6750  -61.1610   22.2180 O.3   201  FVQ201     -0.3256
      5  C4        13.6550  -61.0830   20.0370 C.3   201  FVQ201      0.2144
      6  O4        13.8800  -61.1790   18.6110 O.3   201  FVQ201     -0.2176
      7  C3        12.6830  -62.0620   20.4300 C.3   201  FVQ201      0.2198
      8  O3        11.5310  -61.8410   19.6750 O.3   201  FVQ201     -0.2174
      9  C2        12.4110  -61.9510   21.8900 C.3   201  FVQ201      0.2406
     10  O2        11.8880  -60.6840   22.1870 O.3   201  FVQ201     -0.2149
     11  C1        13.6970  -62.0950   22.6350 C.3   201  FVQ201      0.2704
     12  O1        14.1830  -63.3200   22.3420 O.3   201  FVQ201     -0.3141
     13  C7        14.8420  -64.0890   23.4010 C.3   201  FVQ201      0.2206
     14  C8        15.9560  -64.8940   22.8820 C.1   201  FVQ201     -0.0538
     15  C9        16.9110  -65.4980   22.4350 C.1   201  FVQ201     -0.0604
     16  C10       18.0750  -66.3310   21.9300 C.ar  201  FVQ201      0.0609
     17  C15       19.2510  -65.6530   21.4820 C.ar  201  FVQ201      0.0114
     18  C14       20.3250  -66.4230   20.9960 C.ar  201  FVQ201      0.0213
     19  C13       20.2190  -67.8180   20.9600 C.ar  201  FVQ201      0.0989
     20  N12       19.0730  -68.4460   21.3900 N.ar  201  FVQ201     -0.2417
     21  C11       18.0110  -67.7150   21.8650 C.ar  201  FVQ201      0.1071
@<TRIPOS>BOND
     1     6     5    1
     2     8     7    1
     3     5     7    1
     4     5     3    1
     5     2     3    1
     6     2     1    1
     7     7     9    1
     8     3     4    1
     9    19    18   ar
    10    19    20   ar
    11    18    17   ar
    12    20    21   ar
    13    17    16   ar
    14    21    16   ar
    15     9    10    1
    16     9    11    1
    17    16    15    1
    18     4    11    1
    19    12    11    1
    20    12    13    1
    21    15    14    3
    22    14    13    1
