@<TRIPOS>MOLECULE
4avl_TMP_A_1.pdb
 21 22 0 0 0
SMALL
GASTEIGER

@<TRIPOS>ATOM
      1  P         46.0910   81.1780   14.6070 P.3   1200  TMP1200     0.5327
      2  O1P       46.4370   80.1290   15.6240 O.3   1200  TMP1200    -0.1145
      3  O2P       45.3060   80.5440   13.4760 O.2   1200  TMP1200    -0.2224
      4  O3P       45.5050   82.4070   15.1570 O.3   1200  TMP1200    -0.1145
      5  O5'       47.4420   81.8070   13.9210 O.3   1200  TMP1200    -0.2675
      6  C5'       48.3950   80.9550   13.3530 C.3   1200  TMP1200     0.1858
      7  C4'       49.7860   81.6190   13.3060 C.3   1200  TMP1200     0.1774
      8  O4'       49.7010   82.8650   12.6080 O.3   1200  TMP1200    -0.3339
      9  C3'       50.3160   81.9550   14.6830 C.3   1200  TMP1200     0.1857
     10  O3'       51.7080   81.5720   14.7670 O.3   1200  TMP1200    -0.2203
     11  C2'       50.1820   83.4530   14.8240 C.3   1200  TMP1200     0.0874
     12  C1'       50.2030   83.9210   13.3900 C.3   1200  TMP1200     0.2090
     13  N1        49.4470   85.1510   13.2150 N.am  1200  TMP1200    -0.1794
     14  C2        50.1020   86.3930   13.0660 C.1   1200  TMP1200     0.2844
     15  O2        51.3520   86.4520   13.0570 O.2   1200  TMP1200    -0.1918
     16  N3        49.3670   87.5180   12.9220 N.2   1200  TMP1200    -0.2455
     17  C4        48.0110   87.5030   12.9170 C.1   1200  TMP1200     0.2134
     18  O4        47.3450   88.5560   12.7900 O.2   1200  TMP1200    -0.2088
     19  C5        47.2870   86.2140   13.0600 C.2   1200  TMP1200     0.0891
     20  C5M       45.7660   86.1560   13.0520 C.3   1200  TMP1200     0.0462
     21  C6        48.0630   85.0790   13.1900 C.2   1200  TMP1200     0.0877
@<TRIPOS>BOND
     1     8     7    1
     2     8    12    1
     3    18    17    2
     4    17    16    2
     5    17    19    1
     6    16    14    2
     7    20    19    1
     8    15    14    2
     9    19    21    2
    10    14    13   am
    11    21    13    1
    12    13    12    1
    13     7     6    1
    14     7     9    1
    15     6     5    1
    16    12    11    1
    17     3     1    2
    18     5     1    1
    19     1     4    1
    20     1     2    1
    21     9    10    1
    22     9    11    1
