@<TRIPOS>MOLECULE
4avu_LDR_A_1.pdb
 15 17 0 0 0
SMALL
GASTEIGER

@<TRIPOS>ATOM
      1  OAA      -38.4580  -10.1120   14.7400 O.2   2165  LDR2165    -0.2093
      2  CAB      -40.3050  -10.8660    9.2110 C.2   2165  LDR2165     0.0020
      3  CAC      -41.3330  -12.9620   15.8850 C.ar  2165  LDR2165     0.0007
      4  CAD      -41.2890  -11.8210    9.4370 C.2   2165  LDR2165    -0.0038
      5  CAE      -42.1160  -13.5460   14.9020 C.ar  2165  LDR2165    -0.0003
      6  CAF      -39.5580  -10.3540   10.2580 C.2   2165  LDR2165     0.0292
      7  CAG      -40.3530  -12.0150   15.5750 C.ar  2165  LDR2165     0.0124
      8  CAH      -41.5370  -12.2850   10.7240 C.2   2165  LDR2165    -0.0150
      9  CAI      -41.9750  -13.2000   13.5610 C.ar  2165  LDR2165    -0.0028
     10  NAJ      -39.0390  -10.2690   12.5700 N.2   2165  LDR2165    -0.3367
     11  CAK      -39.1790  -10.6290   13.8590 C.1   2165  LDR2165     0.2040
     12  CAL      -39.7630  -10.7840   11.5620 C.2   2165  LDR2165     0.1297
     13  CAM      -40.1780  -11.6440   14.2500 C.ar  2165  LDR2165     0.0914
     14  CAN      -40.8160  -11.7920   11.8090 C.3   2165  LDR2165     0.0982
     15  CAO      -41.0360  -12.2420   13.2020 C.ar  2165  LDR2165     0.0002
@<TRIPOS>BOND
     1     2     4    1
     2     2     6    2
     3     4     8    2
     4     6    12    1
     5     8    14    1
     6    12    14    1
     7    12    10    2
     8    14    15    1
     9    10    11    2
    10    15     9   ar
    11    15    13   ar
    12     9     5   ar
    13    11    13    1
    14    11     1    2
    15    13     7   ar
    16     5     3   ar
    17     7     3   ar
