@<TRIPOS>MOLECULE
4avw_G18_A_1.pdb
 14 16 0 0 0
SMALL
GASTEIGER

@<TRIPOS>ATOM
      1  CAO      -39.9220  -12.7980   13.3380 C.ar  2162  G182162     0.0007
      2  CAN      -39.1160  -12.2410   14.4460 C.ar  2162  G182162     0.0915
      3  CAH      -39.2910  -12.7010   15.7440 C.ar  2162  G182162     0.0124
      4  CAD      -40.2380  -13.6960   16.0000 C.ar  2162  G182162     0.0007
      5  CAF      -41.0090  -14.2430   14.9490 C.ar  2162  G182162    -0.0003
      6  CAL      -40.8600  -13.7850   13.6270 C.ar  2162  G182162    -0.0028
      7  CAC      -39.8750  -11.9170    9.7320 C.2   2162  G182162     0.0338
      8  CAG      -40.3570  -12.6320   10.8260 C.2   2162  G182162    -0.0074
      9  CAM      -39.7010  -12.2690   12.0610 C.3   2162  G182162     0.1051
     10  CAJ      -38.6860  -11.2400   11.8440 C.2   2162  G182162     0.1591
     11  NAC      -37.9600  -10.7620   12.8610 N.2   2162  G182162    -0.3300
     12  SAK      -38.6350  -10.7760   10.1980 S.3   2162  G182162    -0.0580
     13  CAK      -38.1120  -11.1870   14.1210 C.1   2162  G182162     0.2045
     14  OAB      -37.3920  -10.7150   15.0270 O.2   2162  G182162    -0.2093
@<TRIPOS>BOND
     1     7    12    1
     2     7     8    2
     3    12    10    1
     4     8     9    1
     5    10     9    1
     6    10    11    2
     7     9     1    1
     8    11    13    2
     9     1     6   ar
    10     1     2   ar
    11     6     5   ar
    12    13     2    1
    13    13    14    2
    14     2     3   ar
    15     5     4   ar
    16     3     4   ar
