@<TRIPOS>MOLECULE
4avx_ITP_A_1.pdb
 20 20 0 0 0
SMALL
GASTEIGER

@<TRIPOS>ATOM
      1  C3        31.4220   40.7130   28.2990 C.3   1227  ITP1227     0.1918
      2  O3        30.8720   39.5230   28.5380 O.3   1227  ITP1227    -0.2673
      3  C2        32.7010   40.8310   29.0700 C.3   1227  ITP1227     0.2121
      4  O2        33.5150   39.6940   28.7930 O.3   1227  ITP1227    -0.2177
      5  C1        33.3840   42.2050   28.7480 C.3   1227  ITP1227     0.1918
      6  O1        34.6670   42.2580   29.4280 O.3   1227  ITP1227    -0.2673
      7  C6        33.6070   42.3850   27.2590 C.3   1227  ITP1227     0.2148
      8  O6        34.1440   43.7010   26.9960 O.3   1227  ITP1227    -0.2176
      9  C5        32.3030   42.2000   26.5320 C.3   1227  ITP1227     0.2173
     10  O5        32.5740   42.2840   25.1460 O.3   1227  ITP1227    -0.2175
     11  C4        31.6440   40.8440   26.8580 C.3   1227  ITP1227     0.2148
     12  O4        30.3730   40.8520   26.1500 O.3   1227  ITP1227    -0.2176
     13  P3        29.2750   39.3120   28.8280 P.3   1227  ITP1227     0.5327
     14  O10       28.8090   40.0400   30.1060 O.3   1227  ITP1227    -0.1145
     15  O11       28.5230   39.7440   27.5260 O.2   1227  ITP1227    -0.2224
     16  O12       29.1500   37.8010   29.0990 O.3   1227  ITP1227    -0.1145
     17  P1        34.8040   43.0130   30.8560 P.3   1227  ITP1227     0.5327
     18  OP1       36.3010   43.4850   30.8430 O.2   1227  ITP1227    -0.2224
     19  OP2       34.6070   41.9400   31.9720 O.3   1227  ITP1227    -0.1145
     20  OP3       33.8730   44.1600   31.0050 O.3   1227  ITP1227    -0.1145
@<TRIPOS>BOND
     1    10     9    1
     2    12    11    1
     3     9    11    1
     4     9     7    1
     5    11     1    1
     6     8     7    1
     7     7     5    1
     8    15    13    2
     9     1     2    1
    10     1     3    1
    11     2    13    1
    12     5     3    1
    13     5     6    1
    14     4     3    1
    15    13    16    1
    16    13    14    1
    17     6    17    1
    18    18    17    2
    19    17    20    1
    20    17    19    1
