@<TRIPOS>MOLECULE
4aw0_MJF_A_1.pdb
 24 25 0 0 0
SMALL
GASTEIGER

@<TRIPOS>ATOM
      1  O18      -12.4940   38.5350   -8.7340 O.2   600  MJF600     -0.2913
      2  C8       -12.1400   38.7090   -9.8930 C.2   600  MJF600      0.1734
      3  C2       -13.1660   38.8490  -10.9780 C.ar  600  MJF600      0.0348
      4  C3       -12.8340   39.4400  -12.1920 C.ar  600  MJF600      0.0037
      5  C4       -13.7980   39.5420  -13.1910 C.ar  600  MJF600      0.0115
      6  C5       -15.0750   39.0350  -12.9790 C.ar  600  MJF600      0.0577
      7 CL7       -16.3300   39.1210  -14.2560 Cl    600  MJF600     -0.0822
      8  C6       -15.4040   38.4320  -11.7760 C.ar  600  MJF600      0.0115
      9  C1       -14.4430   38.3460  -10.7810 C.ar  600  MJF600      0.0037
     10  C9       -10.6680   38.7100  -10.2520 C.3   600  MJF600      0.0746
     11  C10       -9.8470   37.8160   -9.3080 C.3   600  MJF600      0.0517
     12  C11       -8.3490   37.9860   -9.6090 C.3   600  MJF600      0.2104
     13  C15       -7.8280   39.3170   -9.1510 C.2   600  MJF600      0.3755
     14  O17       -6.6900   39.6610   -9.5350 O.co2 600  MJF600     -0.2450
     15  O16       -8.5210   40.0270   -8.4000 O.co2 600  MJF600     -0.2450
     16  C12       -7.4930   36.9220   -8.9900 C.2   600  MJF600      0.3755
     17  O14       -7.7820   36.5230   -7.8320 O.co2 600  MJF600     -0.2450
     18  O13       -6.5030   36.5040   -9.6410 O.co2 600  MJF600     -0.2450
     19  C19      -10.2530   36.3880   -9.4320 C.ar  600  MJF600     -0.0210
     20  C24      -11.0930   35.7930   -8.4910 C.ar  600  MJF600     -0.0042
     21  C23      -11.4690   34.4530   -8.6300 C.ar  600  MJF600     -0.0003
     22  C22      -10.9850   33.6670   -9.6780 C.ar  600  MJF600     -0.0000
     23  C21      -10.1290   34.2600  -10.6040 C.ar  600  MJF600     -0.0003
     24  C20       -9.7660   35.5990  -10.4720 C.ar  600  MJF600     -0.0042
@<TRIPOS>BOND
     1     7     6    1
     2     5     6   ar
     3     5     4   ar
     4     6     8   ar
     5     4     3   ar
     6     8     9   ar
     7     3     9   ar
     8     3     2    1
     9    23    24   ar
    10    23    22   ar
    11    24    19   ar
    12    10     2    1
    13    10    11    1
    14     2     1    2
    15    22    21   ar
    16    18    16   ar
    17    12    11    1
    18    12    13    1
    19    12    16    1
    20    14    13   ar
    21    19    11    1
    22    19    20   ar
    23    13    15   ar
    24    16    17   ar
    25    21    20   ar
