@<TRIPOS>MOLECULE
4aw0_ATP_A_1.pdb
 35 37 0 0 0
SMALL
GASTEIGER

@<TRIPOS>ATOM
      1  PG       -23.7920   24.7890   -9.5200 P.3   500  ATP500      0.5373
      2  O1G      -23.0070   26.0800   -9.5090 O.3   500  ATP500     -0.1143
      3  O2G      -24.7700   24.6920  -10.6720 O.2   500  ATP500     -0.2221
      4  O3G      -24.3330   24.3680   -8.1640 O.3   500  ATP500     -0.1143
      5  PB       -21.5800   22.9600   -9.0380 P.3   500  ATP500      0.2277
      6  O1B      -21.7600   21.4710   -9.2680 O.2   500  ATP500     -0.5168
      7  O2B      -21.5240   23.5360   -7.6330 O.3   500  ATP500     -0.4368
      8  O3B      -22.7800   23.6000   -9.9040 O.3   500  ATP500     -0.2258
      9  PA       -18.7700   23.5280   -9.7040 P.3   500  ATP500      0.2189
     10  O1A      -18.1640   24.1820  -10.9320 O.2   500  ATP500     -0.5170
     11  O2A      -18.3920   24.0200   -8.3230 O.3   500  ATP500     -0.4371
     12  O3A      -20.3770   23.5910   -9.9380 O.3   500  ATP500     -0.2700
     13  O5'      -18.5740   21.9460   -9.8300 O.3   500  ATP500     -0.3112
     14  C5'      -18.8680   21.2250  -11.0120 C.3   500  ATP500      0.1813
     15  C4'      -18.5690   19.7290  -10.8980 C.3   500  ATP500      0.1799
     16  O4'      -17.1700   19.4750  -10.7420 O.3   500  ATP500     -0.3324
     17  C3'      -19.2370   19.0580   -9.7210 C.3   500  ATP500      0.2158
     18  O3'      -19.7780   17.8380  -10.2290 O.3   500  ATP500     -0.2175
     19  C2'      -18.1060   18.6540   -8.8160 C.3   500  ATP500      0.2313
     20  O2'      -18.4090   17.3860   -8.2480 O.3   500  ATP500     -0.2158
     21  C1'      -16.8760   18.5540   -9.7210 C.3   500  ATP500      0.2331
     22  N9       -15.7560   19.1210   -8.9590 N.pl3 500  ATP500     -0.2163
     23  C8       -15.7600   20.3580   -8.4460 C.2   500  ATP500      0.1454
     24  N7       -14.6110   20.6260   -7.7520 N.2   500  ATP500     -0.3871
     25  C5       -13.8690   19.5010   -7.8760 C.2   500  ATP500      0.2211
     26  C6       -12.5430   19.0970   -7.3920 C.2   500  ATP500      0.2227
     27  N6       -11.8130   19.9630   -6.6360 N.pl3 500  ATP500     -0.3300
     28  N1       -12.1120   17.8470   -7.6990 N.2   500  ATP500     -0.3296
     29  C2       -12.8750   16.9830   -8.4170 C.1   500  ATP500      0.0930
     30  N3       -14.0980   17.2840   -8.9040 N.2   500  ATP500     -0.3287
     31  C4       -14.6150   18.5040   -8.6430 C.2   500  ATP500      0.2357
     32  H8       -16.5830   21.0540   -8.5490 H     500  ATP500      0.1149
     33 HN61      -10.8960   19.6970   -6.3080 H     500  ATP500      0.1448
     34 HN62      -12.1710   20.8870   -6.4390 H     500  ATP500      0.1448
     35  H2       -12.4670   16.0030   -8.6340 H     500  ATP500      0.1751
@<TRIPOS>BOND
     1    14    15    1
     2    14    13    1
     3    10     9    2
     4    15    16    1
     5    15    17    1
     6    16    21    1
     7     3     1    2
     8    18    17    1
     9    12     9    1
    10    12     5    1
    11     8     1    1
    12     8     5    1
    13    13     9    1
    14    21    22    1
    15    21    19    1
    16    17    19    1
    17     9    11    1
    18     1     2    1
    19     1     4    1
    20     6     5    2
    21     5     7    1
    22    22    31    1
    23    22    23    1
    24    30    31    2
    25    30    29    2
    26    19    20    1
    27    31    25    1
    28    35    29    1
    29    32    23    1
    30    23    24    2
    31    29    28    2
    32    25    24    2
    33    25    26    1
    34    28    26    2
    35    26    27    1
    36    27    34    1
    37    27    33    1
