@<TRIPOS>MOLECULE
4aw1_ATP_A_1.pdb
 35 37 0 0 0
SMALL
GASTEIGER

@<TRIPOS>ATOM
      1  PG       -23.1050   24.6250   -7.7140 P.3   1360  ATP1360     0.5373
      2  O1G      -23.1650   25.0880   -6.2850 O.3   1360  ATP1360    -0.1143
      3  O2G      -24.0320   23.4820   -8.0550 O.3   1360  ATP1360    -0.1143
      4  O3G      -23.1200   25.7470   -8.7280 O.2   1360  ATP1360    -0.2221
      5  PB       -20.2760   24.8200   -7.9470 P.3   1360  ATP1360     0.2277
      6  O1B      -19.9530   25.5220   -6.6680 O.3   1360  ATP1360    -0.4368
      7  O2B      -20.3100   25.6310   -9.2260 O.2   1360  ATP1360    -0.5168
      8  O3B      -21.6450   23.9600   -7.8810 O.3   1360  ATP1360    -0.2258
      9  PA       -18.4780   22.6710   -7.1090 P.3   1360  ATP1360     0.2189
     10  O1A      -19.3970   21.8240   -6.2710 O.3   1360  ATP1360    -0.4371
     11  O2A      -17.3220   23.3550   -6.4200 O.2   1360  ATP1360    -0.5170
     12  O3A      -19.1890   23.6480   -8.1910 O.3   1360  ATP1360    -0.2700
     13  O5'      -17.9330   21.5800   -8.1470 O.3   1360  ATP1360    -0.3112
     14  C5'      -18.8540   20.9110   -9.0010 C.3   1360  ATP1360     0.1813
     15  C4'      -18.4570   19.4400   -9.1030 C.3   1360  ATP1360     0.1799
     16  O4'      -17.1740   19.3200   -9.7350 O.3   1360  ATP1360    -0.3324
     17  C3'      -18.2510   18.7790   -7.7440 C.3   1360  ATP1360     0.2158
     18  O3'      -19.4670   18.3280   -7.1240 O.3   1360  ATP1360    -0.2175
     19  C2'      -17.3240   17.6330   -8.0970 C.3   1360  ATP1360     0.2313
     20  O2'      -18.0660   16.6130   -8.7620 O.3   1360  ATP1360    -0.2158
     21  C1'      -16.4090   18.2860   -9.1140 C.3   1360  ATP1360     0.2331
     22  N9       -15.3110   18.9070   -8.3350 N.pl3 1360  ATP1360    -0.2163
     23  C8       -15.2940   20.1540   -7.8090 C.2   1360  ATP1360     0.1454
     24  N7       -14.1250   20.3970   -7.1670 N.2   1360  ATP1360    -0.3871
     25  C5       -13.4030   19.2610   -7.2840 C.2   1360  ATP1360     0.2211
     26  C6       -12.0810   18.8130   -6.8250 C.2   1360  ATP1360     0.2227
     27  N6       -11.3540   19.6670   -6.1130 N.pl3 1360  ATP1360    -0.3300
     28  N1       -11.6600   17.5570   -7.1300 N.2   1360  ATP1360    -0.3296
     29  C2       -12.4320   16.7250   -7.8410 C.1   1360  ATP1360     0.0930
     30  N3       -13.6570   17.0670   -8.3010 N.2   1360  ATP1360    -0.3287
     31  C4       -14.1810   18.2920   -8.0400 C.2   1360  ATP1360     0.2357
     32  H8       -16.0990   20.8730   -7.9100 H     1360  ATP1360     0.1149
     33 HN61      -10.4370   19.3990   -5.7870 H     1360  ATP1360     0.1448
     34 HN62      -11.7120   20.5900   -5.9130 H     1360  ATP1360     0.1448
     35  H2       -12.0530   15.7360   -8.0670 H     1360  ATP1360     0.1751
@<TRIPOS>BOND
     1    16    21    1
     2    16    15    1
     3     7     5    2
     4    21    22    1
     5    21    19    1
     6    15    14    1
     7    15    17    1
     8    14    13    1
     9    20    19    1
    10     4     1    2
    11    22    31    1
    12    22    23    1
    13    30    31    2
    14    30    29    2
    15    12     5    1
    16    12     9    1
    17    13     9    1
    18    19    17    1
    19    35    29    1
    20     3     1    1
    21    31    25    1
    22     5     8    1
    23     5     6    1
    24    32    23    1
    25     8     1    1
    26    29    28    2
    27    23    24    2
    28    17    18    1
    29     1     2    1
    30    25    24    2
    31    25    26    1
    32    28    26    2
    33     9    11    2
    34     9    10    1
    35    26    27    1
    36    27    34    1
    37    27    33    1
