@<TRIPOS>MOLECULE
4aw1_21O_A_1.pdb
 27 28 0 0 0
SMALL
GASTEIGER

@<TRIPOS>ATOM
      1  O43       -6.4800   39.5070   -9.7290 O.co2 1361  21O1361    -0.2450
      2  C41       -7.3830   39.0280   -9.0040 C.2   1361  21O1361     0.3755
      3  O42       -7.8530   39.6180   -8.0020 O.co2 1361  21O1361    -0.2450
      4  CAW       -7.9200   37.6670   -9.3390 C.3   1361  21O1361     0.2104
      5  CAR       -7.0090   36.6230   -8.7440 C.2   1361  21O1361     0.3755
      6  OAE       -7.1710   36.2250   -7.5630 O.co2 1361  21O1361    -0.2450
      7  OAB       -6.0790   36.2020   -9.4720 O.co2 1361  21O1361    -0.2450
      8  CAX       -9.3800   37.5790   -8.8830 C.3   1361  21O1361     0.0517
      9  CAV       -9.8530   36.1710   -8.9400 C.ar  1361  21O1361    -0.0210
     10  CAJ      -10.6640   35.6700   -7.9250 C.ar  1361  21O1361    -0.0042
     11  CAH      -11.1000   34.3460   -7.9890 C.ar  1361  21O1361    -0.0003
     12  CAG      -10.7270   33.5350   -9.0600 C.ar  1361  21O1361    -0.0000
     13  CAI       -9.9190   34.0360  -10.0800 C.ar  1361  21O1361    -0.0003
     14  CAK       -9.4940   35.3570  -10.0150 C.ar  1361  21O1361    -0.0042
     15  CAP      -10.2270   38.4820   -9.7900 C.3   1361  21O1361     0.0746
     16  CAS      -11.6680   38.5740   -9.3320 C.2   1361  21O1361     0.1734
     17  OAC      -11.9410   38.4370   -8.1500 O.2   1361  21O1361    -0.2913
     18  CAU      -12.7570   38.8300  -10.3380 C.ar  1361  21O1361     0.0347
     19  CAO      -14.0790   38.5360  -10.0180 C.ar  1361  21O1361     0.0028
     20  CAM      -15.1010   38.7530  -10.9440 C.ar  1361  21O1361     0.0039
     21  CAT      -14.8040   39.2810  -12.1940 C.ar  1361  21O1361     0.0714
     22  C36      -15.9140   39.5130  -13.1920 C.3   1361  21O1361     0.4186
     23  F39      -16.6830   38.4410  -13.2490 F     1361  21O1361    -0.1659
     24  F38      -16.6610   40.5500  -12.8360 F     1361  21O1361    -0.1659
     25  F37      -15.3950   39.7420  -14.3840 F     1361  21O1361    -0.1659
     26  CAL      -13.4810   39.5780  -12.5190 C.ar  1361  21O1361     0.0039
     27  CAN      -12.4600   39.3590  -11.5900 C.ar  1361  21O1361     0.0028
@<TRIPOS>BOND
     1    25    22    1
     2    23    22    1
     3    22    24    1
     4    22    21    1
     5    26    21   ar
     6    26    27   ar
     7    21    20   ar
     8    27    18   ar
     9    20    19   ar
    10    18    19   ar
    11    18    16    1
    12    13    14   ar
    13    13    12   ar
    14    14     9   ar
    15    15    16    1
    16    15     8    1
    17     1     2   ar
    18     7     5   ar
    19     4     2    1
    20     4     8    1
    21     4     5    1
    22    16    17    2
    23    12    11   ar
    24     2     3   ar
    25     9     8    1
    26     9    10   ar
    27     5     6   ar
    28    11    10   ar
