@<TRIPOS>MOLECULE
4aw3_HEM_A_1.pdb
 43 50 0 0 0
SMALL
GASTEIGER

@<TRIPOS>ATOM
      1  CHA        0.7880   -0.1940    7.3680 C.2   450  HEM450      0.0000
      2  CHB        1.7380   -0.9800    2.6120 C.2   450  HEM450      0.0000
      3  CHC       -2.8660   -2.5430    2.0980 C.2   450  HEM450      0.0000
      4  CHD       -3.8500   -1.5590    6.7670 C.2   450  HEM450      0.0000
      5  C1A        1.4800   -0.2820    6.1650 C.ar  450  HEM450      0.0000
      6  C2A        2.8920   -0.0090    5.9240 C.ar  450  HEM450      0.0000
      7  C3A        3.1430   -0.2050    4.5810 C.ar  450  HEM450      0.0000
      8  C4A        1.8940   -0.6400    3.9460 C.ar  450  HEM450      0.0000
      9  CMA        4.4380   -0.0560    3.7820 C.3   450  HEM450      0.0000
     10  CAA        3.9070    0.4360    7.0260 C.3   450  HEM450      0.0000
     11  CBA        4.0840    1.9480    6.9110 C.3   450  HEM450      0.0000
     12  CGA        5.2490    2.4650    7.7650 C.2   450  HEM450      0.0000
     13  O1A        5.7840    1.7190    8.6560 O.co2 450  HEM450      0.0000
     14  O2A        5.5470    3.6570    7.5780 O.co2 450  HEM450      0.0000
     15  C1B        0.5600   -1.4480    2.0490 C.2   450  HEM450      0.0000
     16  C2B        0.3600   -1.7800    0.6540 C.2   450  HEM450      0.0000
     17  C3B       -0.9270   -2.2110    0.5100 C.2   450  HEM450      0.0000
     18  C4B       -1.5850   -2.1310    1.8270 C.2   450  HEM450      0.0000
     19  CMB        1.4670   -1.7020   -0.4250 C.3   450  HEM450      0.0000
     20  CAB       -1.6800   -2.7000   -0.7450 C.2   450  HEM450      0.0000
     21  CBB       -1.0630   -3.0240   -1.8720 C.2   450  HEM450      0.0000
     22  C1C       -3.5280   -2.5370    3.3440 C.ar  450  HEM450      0.0000
     23  C2C       -4.8700   -2.9970    3.6470 C.ar  450  HEM450      0.0000
     24  C3C       -5.1320   -2.6870    4.9450 C.ar  450  HEM450      0.0000
     25  C4C       -3.9640   -2.0020    5.4750 C.ar  450  HEM450      0.0000
     26  CMC       -5.8460   -3.7370    2.6650 C.3   450  HEM450      0.0000
     27  CAC       -6.3830   -2.9650    5.8120 C.2   450  HEM450      0.0000
     28  CBC       -7.3030   -3.8770    5.5120 C.2   450  HEM450      0.0000
     29  C1D       -2.7670   -0.9550    7.3520 C.2   450  HEM450      0.0000
     30  C2D       -2.7270   -0.3450    8.6820 C.2   450  HEM450      0.0000
     31  C3D       -1.2760    0.0770    8.8560 C.2   450  HEM450      0.0000
     32  C4D       -0.5610   -0.3500    7.6440 C.2   450  HEM450      0.0000
     33  CMD       -3.9070   -0.1450    9.6730 C.3   450  HEM450      0.0000
     34  CAD       -0.7010    0.7730   10.0990 C.3   450  HEM450      0.0000
     35  CBD       -0.1170   -0.4380   10.8760 C.3   450  HEM450      0.0000
     36  CGD        0.5270    0.0530   12.1600 C.2   450  HEM450      0.0000
     37  O1D        0.8800    1.2260   12.2300 O.co2 450  HEM450      0.0000
     38  O2D        0.6440   -0.6770   13.1310 O.co2 450  HEM450      0.0000
     39  NA         0.9210   -0.6960    4.9450 N.ar  450  HEM450      0.0000
     40  NB        -0.6160   -1.6770    2.7380 N.2   450  HEM450      0.0000
     41  NC        -3.0130   -1.9570    4.4810 N.ar  450  HEM450      0.0000
     42  ND        -1.5060   -0.9540    6.8060 N.2   450  HEM450      0.0000
     43 FE         -1.0300   -1.4000    4.7330 Fe    450  HEM450      0.0000
@<TRIPOS>BOND
     1    21    20    2
     2    20    17    1
     3    19    16    1
     4    17    16    2
     5    17    18    1
     6    16    15    1
     7    18     3    2
     8    18    40    1
     9    15     2    1
    10    15    40    2
    11     3    22    1
    12     2     8    2
    13    26    23    1
    14    40    43    1
    15    22    23   ar
    16    22    41   ar
    17    23    24   ar
    18     9     7    1
    19     8     7   ar
    20     8    39   ar
    21    41    43    1
    22    41    25   ar
    23     7     6   ar
    24    43    39    1
    25    43    42    1
    26    39     5   ar
    27    24    25   ar
    28    24    27    1
    29    25     4    1
    30    28    27    2
    31     6     5   ar
    32     6    10    1
    33     5     1    2
    34     4    29    2
    35    42    29    1
    36    42    32    2
    37    11    10    1
    38    11    12    1
    39    29    30    1
    40     1    32    1
    41    14    12   ar
    42    32    31    1
    43    12    13   ar
    44    30    31    2
    45    30    33    1
    46    31    34    1
    47    34    35    1
    48    35    36    1
    49    36    37   ar
    50    36    38   ar
