@<TRIPOS>MOLECULE
4aw3_MYV_A_1.pdb
 50 52 0 0 0
SMALL
GASTEIGER

@<TRIPOS>ATOM
      1  O11       -2.6300   10.4290    3.5190 O.2   500  MYV500     -0.2449
      2  C34       -3.5600   10.2120    2.7490 C.2   500  MYV500      0.3411
      3  C33       -4.7070   11.1290    2.4830 C.2   500  MYV500      0.0774
      4  C32       -4.4910   12.3850    2.0660 C.2   500  MYV500     -0.0174
      5  C30       -5.5830   13.3750    1.7400 C.3   500  MYV500      0.0495
      6  C31       -5.0590   14.2240    0.5970 C.3   500  MYV500      0.0072
      7  C21       -5.9350   14.3190    2.8880 C.3   500  MYV500      0.1217
      8  O8        -7.0270   15.1450    2.4830 O.3   500  MYV500     -0.3308
      9  C22       -6.6260   16.4630    2.1050 C.3   500  MYV500      0.2679
     10  O10       -6.5780   17.2980    3.2710 O.3   500  MYV500     -0.3311
     11  C28       -6.3680   18.6890    2.9720 C.3   500  MYV500      0.1194
     12  C29       -6.4370   19.4630    4.2900 C.3   500  MYV500      0.0322
     13  C27       -7.3750   19.2370    1.9430 C.3   500  MYV500      0.0483
     14  C24       -7.3520   18.3950    0.6660 C.3   500  MYV500      0.0957
     15  N         -8.4360   18.7940   -0.2600 N.3   500  MYV500     -0.2691
     16  C26       -9.7180   18.9590    0.4320 C.3   500  MYV500      0.0897
     17  C25       -8.1150   20.0020   -1.0210 C.3   500  MYV500      0.0897
     18  C23       -7.6690   16.9750    1.1170 C.3   500  MYV500      0.2224
     19  O9        -7.7390   16.0710    0.0080 O.3   500  MYV500     -0.2163
     20  C19       -6.3470   13.6750    4.1980 C.3   500  MYV500      0.0281
     21  C20       -6.2090   14.7370    5.2660 C.3   500  MYV500      0.0025
     22  C18       -7.7720   13.1300    4.1190 C.3   500  MYV500      0.0101
     23  C16       -8.2820   12.4310    5.3940 C.3   500  MYV500      0.0620
     24  C17       -9.6570   11.8200    5.1460 C.3   500  MYV500      0.0081
     25  C15       -7.3460   11.3530    5.8810 C.2   500  MYV500      0.1727
     26  O7        -6.9080   11.4200    7.0100 O.2   500  MYV500     -0.2914
     27  C14       -6.8900   10.2680    4.9870 C.2   500  MYV500      0.0374
     28  C13       -5.9430    9.4380    5.4230 C.2   500  MYV500      0.0027
     29  C12       -5.4640    8.4170    4.5140 C.2   500  MYV500     -0.0019
     30  C11       -4.1760    8.0860    4.4640 C.2   500  MYV500      0.0094
     31  O12       -3.5540    9.0000    1.9860 O.3   500  MYV500     -0.4462
     32  C35       -2.9070    7.8190    2.4100 C.3   500  MYV500      0.2030
     33  C36       -2.7940    6.9530    1.1540 C.3   500  MYV500      0.0467
     34  C37       -2.2630    7.7810   -0.0060 C.3   500  MYV500      0.0039
     35  C1        -3.7290    7.0570    3.4460 C.3   500  MYV500      0.2086
     36  O6        -4.8610    6.4620    2.7480 O.3   500  MYV500     -0.2148
     37  C2        -2.8240    5.9920    4.0760 C.3   500  MYV500      0.1829
     38  O1        -1.6540    6.5950    4.6490 O.3   500  MYV500     -0.3255
     39  C3        -0.4340    6.1680    4.0480 C.3   500  MYV500      0.2660
     40  C4         0.7280    7.0800    4.4770 C.3   500  MYV500      0.2009
     41  O2         0.5940    8.3130    3.7640 O.3   500  MYV500     -0.3458
     42  C5         0.5660    9.5410    4.4990 C.3   500  MYV500      0.1743
     43  O5        -0.1940    4.7930    4.3760 O.3   500  MYV500     -0.3284
     44  C9         0.9730    4.3240    3.7290 C.3   500  MYV500      0.1507
     45  C10        1.1120    2.8220    3.8110 C.3   500  MYV500      0.0350
     46  C8         2.1410    5.0370    4.3620 C.3   500  MYV500      0.2084
     47  O4         3.3140    4.5250    3.7180 O.3   500  MYV500     -0.2178
     48  C6         2.0430    6.4940    4.0140 C.3   500  MYV500      0.1799
     49  O3         2.0760    6.4950    2.5810 O.3   500  MYV500     -0.3482
     50  C7         2.5440    7.6850    1.9890 C.3   500  MYV500      0.1742
@<TRIPOS>BOND
     1    17    15    1
     2    15    16    1
     3    15    14    1
     4    34    33    1
     5    19    18    1
     6     6     5    1
     7    14    18    1
     8    14    13    1
     9    18     9    1
    10    33    32    1
    11     5     4    1
    12     5     7    1
    13    13    11    1
    14    31    32    1
    15    31     2    1
    16    50    49    1
    17     4     3    2
    18     9     8    1
    19     9    10    1
    20    32    35    1
    21     8     7    1
    22     3     2    1
    23    49    48    1
    24    36    35    1
    25     2     1    2
    26     7    20    1
    27    11    10    1
    28    11    12    1
    29    35    37    1
    30    35    30    1
    31    47    46    1
    32    44    45    1
    33    44    46    1
    34    44    43    1
    35    41    40    1
    36    41    42    1
    37    48    46    1
    38    48    40    1
    39    39    43    1
    40    39    40    1
    41    39    38    1
    42    37    38    1
    43    22    20    1
    44    22    23    1
    45    20    21    1
    46    30    29    2
    47    29    28    1
    48    27    28    2
    49    27    25    1
    50    24    23    1
    51    23    25    1
    52    25    26    2
