@<TRIPOS>MOLECULE
4aw5_30K_A_1.pdb
 37 42 0 0 0
SMALL
GASTEIGER

@<TRIPOS>ATOM
      1  O1         9.2440   -6.8380   12.5310 O.2   1365  30K1365    -0.2096
      2  C11       10.3060   -6.1610   12.2720 C.1   1365  30K1365     0.2020
      3  N1        10.4140   -4.8640   12.6420 N.2   1365  30K1365    -0.3331
      4  C8        11.6720   -4.4220   12.2650 C.ar  1365  30K1365     0.1449
      5  C9        12.2820   -3.1690   12.3890 C.ar  1365  30K1365     0.0344
      6  C7        12.4320   -5.4940   11.5910 C.ar  1365  30K1365     0.0411
      7  C6        13.6950   -5.2900   11.0950 C.ar  1365  30K1365     0.0191
      8  C5        14.2570   -4.0310   11.2570 C.ar  1365  30K1365     0.0654
      9  N4        15.4580   -3.7740   10.7370 N.pl3 1365  30K1365    -0.2393
     10  C23       16.0290   -4.5710    9.6750 C.3   1365  30K1365     0.0952
     11  C24       15.3760   -4.1780    8.3320 C.3   1365  30K1365     0.0389
     12  C25       16.1050   -4.7260    7.0960 C.3   1365  30K1365     0.0739
     13  N5        17.5640   -4.6030    7.1520 N.3   1365  30K1365    -0.2726
     14  C29       18.1690   -5.3920    6.0780 C.3   1365  30K1365     0.0721
     15  C30       19.6780   -5.3060    5.9600 C.3   1365  30K1365     0.0188
     16  C26       18.0770   -5.0900    8.4300 C.3   1365  30K1365     0.0739
     17  C27       17.5220   -4.3400    9.6340 C.3   1365  30K1365     0.0389
     18  C4        13.5690   -2.9720   11.8880 C.ar  1365  30K1365     0.0187
     19  C10       11.5400   -6.6830   11.5660 C.2   1365  30K1365     0.0948
     20  C2        11.9180   -8.0070   11.0050 C.3   1365  30K1365     0.1653
     21  C1        13.2520   -8.2490   10.3440 C.ar  1365  30K1365    -0.0018
     22  C12       13.3590   -8.2070    8.9410 C.ar  1365  30K1365    -0.0029
     23  C13       14.5830   -8.4000    8.3050 C.ar  1365  30K1365    -0.0003
     24  C14       15.7040   -8.6450    9.0790 C.ar  1365  30K1365    -0.0000
     25  C15       15.6060   -8.6920   10.4830 C.ar  1365  30K1365    -0.0003
     26  C16       14.3790   -8.5090   11.1160 C.ar  1365  30K1365    -0.0029
     27  C3        10.9730   -9.1360   10.9720 C.1   1365  30K1365     0.1215
     28  N2        11.3700  -10.3240   10.4060 N.2   1365  30K1365    -0.3403
     29  C17       10.3250  -11.1610   10.4760 C.ar  1365  30K1365     0.1768
     30  C19       10.0270  -12.5120   10.0940 C.ar  1365  30K1365     0.0725
     31  C18        9.2610  -10.3870   11.1130 C.ar  1365  30K1365     0.1740
     32  N3         9.6760   -9.1610   11.3960 N.2   1365  30K1365    -0.3404
     33  C22        7.9560  -10.9530   11.3610 C.ar  1365  30K1365     0.0388
     34  C21        7.7350  -12.2810   10.9760 C.ar  1365  30K1365     0.0397
     35  C20        8.7630  -13.0370   10.3700 C.ar  1365  30K1365     0.1415
     36  O2         8.5070  -14.3270    9.9620 O.3   1365  30K1365    -0.4713
     37  C28        8.2220  -14.4610    8.5660 C.3   1365  30K1365     0.2525
@<TRIPOS>BOND
     1    15    14    1
     2    14    13    1
     3    12    13    1
     4    12    11    1
     5    13    16    1
     6    23    22   ar
     7    23    24   ar
     8    11    10    1
     9    16    17    1
    10    37    36    1
    11    22    21   ar
    12    24    25   ar
    13    17    10    1
    14    10     9    1
    15    36    35    1
    16    30    35   ar
    17    30    29   ar
    18    21    20    1
    19    21    26   ar
    20    35    34   ar
    21    28    29    2
    22    28    27    2
    23    29    31   ar
    24    25    26   ar
    25     9     8    1
    26    27    20    1
    27    27    32    2
    28    34    33   ar
    29    20    19    1
    30     7     8   ar
    31     7     6   ar
    32    31    33   ar
    33    31    32    2
    34     8    18   ar
    35    19     6    2
    36    19     2    1
    37     6     4   ar
    38    18     5   ar
    39     4     5   ar
    40     4     3    2
    41     2     1    2
    42     2     3    2
