@<TRIPOS>MOLECULE
4aw7_L6S_A_1.pdb
 15 15 0 0 0
SMALL
GASTEIGER

@<TRIPOS>ATOM
      1  O1S       47.9590   86.2450   10.9990 O.3   1610  L6S1610    -0.2682
      2  O2S       47.5650   87.4560    8.8970 O.2   1610  L6S1610    -0.3452
      3  O3S       49.5670   87.8800   10.2560 O.2   1610  L6S1610    -0.3452
      4  C1        52.2970   82.1530    8.9410 C.3   1610  L6S1610     0.1777
      5  C2        53.5320   82.9520    8.5910 C.3   1610  L6S1610     0.2141
      6  C3        53.1470   84.0970    7.6410 C.3   1610  L6S1610     0.2172
      7  C4        52.0630   84.9960    8.3480 C.3   1610  L6S1610     0.2142
      8  C5        50.8830   84.1000    8.7420 C.3   1610  L6S1610     0.1801
      9  C6        49.9730   84.8540    9.7380 C.3   1610  L6S1610     0.2045
     10  O2        54.5660   82.1110    8.0400 O.3   1610  L6S1610    -0.2176
     11  O3        54.2850   84.8870    7.2660 O.3   1610  L6S1610    -0.2175
     12  O4        52.6680   85.5910    9.5070 O.3   1610  L6S1610    -0.2176
     13  O5        51.2540   82.9290    9.4790 O.3   1610  L6S1610    -0.3481
     14  O6        49.2560   85.8480    9.0220 O.3   1610  L6S1610    -0.2384
     15  S1        48.5170   86.9050    9.8470 S.3   1610  L6S1610    -0.0001
@<TRIPOS>BOND
     1    11     6    1
     2     6     7    1
     3     6     5    1
     4    10     5    1
     5     7     8    1
     6     7    12    1
     7     5     4    1
     8     8    13    1
     9     8     9    1
    10     2    15    2
    11     4    13    1
    12    14     9    1
    13    14    15    1
    14    15     3    2
    15    15     1    1
