@<TRIPOS>MOLECULE
4aw7_GAL_A_1.pdb
 12 12 0 0 0
SMALL
GASTEIGER

@<TRIPOS>ATOM
      1  O4        51.5020   80.4180    5.1950 O.3   1609  GAL1609    -0.2176
      2  C4        50.5080   80.2240    6.2200 C.3   1609  GAL1609     0.2144
      3  C3        51.1500   80.3040    7.5820 C.3   1609  GAL1609     0.2199
      4  O3        51.8330   81.5290    7.5770 O.3   1609  GAL1609    -0.2174
      5  C2        52.0890   79.1400    7.8420 C.3   1609  GAL1609     0.2434
      6  O2        52.5160   79.0750    9.2410 O.3   1609  GAL1609    -0.2148
      7  C1        51.4440   77.8020    7.4330 C.3   1609  GAL1609     0.3024
      8  O1        52.4440   76.7330    7.6720 O.3   1609  GAL1609    -0.1869
      9  O5        50.9380   77.8500    6.1120 O.3   1609  GAL1609    -0.3236
     10  C5        49.8250   78.8550    6.0570 C.3   1609  GAL1609     0.1836
     11  C6        48.8990   78.8700    4.7860 C.3   1609  GAL1609     0.2142
     12  O6        47.5310   79.2960    5.2130 O.3   1609  GAL1609    -0.2176
@<TRIPOS>BOND
     1    11    12    1
     2    11    10    1
     3     1     2    1
     4    10     9    1
     5    10     2    1
     6     9     7    1
     7     2     3    1
     8     7     8    1
     9     7     5    1
    10     4     3    1
    11     3     5    1
    12     5     6    1
