@<TRIPOS>MOLECULE
4awf_XI7_A_1.pdb
 14 14 0 0 0
SMALL
GASTEIGER

@<TRIPOS>ATOM
      1  O8        -9.3610    8.9600    3.4800 O.2   303  XI7303     -0.2838
      2  C9        -9.0570    8.2600    2.5790 C.2   303  XI7303      0.2597
      3  C10       -9.6090    6.9270    2.6380 C.2   303  XI7303      0.4223
      4  O11       -9.3820    6.1600    1.6710 O.co2 303  XI7303     -0.2373
      5  O10      -10.3000    6.6470    3.6370 O.co2 303  XI7303     -0.2373
      6  C8        -8.1920    8.5970    1.3790 C.3   303  XI7303      0.1452
      7  C7        -7.5330    9.9500    1.2700 C.2   303  XI7303      0.1810
      8  C1        -6.4340   10.0590    0.2560 C.ar  303  XI7303      0.0352
      9  C6        -6.4370    9.2470   -0.8680 C.ar  303  XI7303      0.0029
     10  C5        -5.4180    9.3400   -1.8000 C.ar  303  XI7303      0.0001
     11  C4        -4.3640   10.2310   -1.5920 C.ar  303  XI7303      0.0000
     12  C3        -4.3380   11.0280   -0.4440 C.ar  303  XI7303      0.0001
     13  C2        -5.3810   10.9360    0.4810 C.ar  303  XI7303      0.0029
     14  O14       -7.8120   10.9020    1.9700 O.2   303  XI7303     -0.2909
@<TRIPOS>BOND
     1    10    11   ar
     2    10     9   ar
     3    11    12   ar
     4     9     8   ar
     5    12    13   ar
     6     8    13   ar
     7     8     7    1
     8     7     6    1
     9     7    14    2
    10     6     2    1
    11     4     3   ar
    12     2     3    1
    13     2     1    2
    14     3     5   ar
