@<TRIPOS>MOLECULE
4awg_CI3_A_1.pdb
 29 31 0 0 0
SMALL
GASTEIGER

@<TRIPOS>ATOM
      1 CL        -25.1320  -19.9040   21.3950 Cl    801  CI3801     -0.0822
      2  CZB      -23.7910  -19.8130   22.5690 C.ar  801  CI3801      0.0577
      3  CEA      -24.0750  -19.7480   23.9380 C.ar  801  CI3801      0.0111
      4  CDA      -23.0090  -19.6660   24.8330 C.ar  801  CI3801     -0.0034
      5  CEB      -22.4850  -19.8010   22.0780 C.ar  801  CI3801      0.0111
      6  CDB      -21.4470  -19.7120   22.9820 C.ar  801  CI3801     -0.0034
      7  CGA      -21.7070  -19.6540   24.3480 C.ar  801  CI3801     -0.0217
      8  CO       -20.5460  -19.5290   25.2870 C.3   801  CI3801      0.0350
      9  CF       -20.2050  -18.0480   25.5680 C.3   801  CI3801      0.0744
     10  CH       -18.8640  -17.9840   26.3360 C.3   801  CI3801      0.0799
     11  CB       -19.9920  -17.2900   24.2630 C.2   801  CI3801      0.1773
     12  O13      -18.8780  -17.3100   23.7680 O.2   801  CI3801     -0.2912
     13  CM       -21.0550  -16.6050   23.4920 C.2   801  CI3801      0.0864
     14  CA       -20.7930  -16.2000   22.2160 C.2   801  CI3801      0.2775
     15  O14      -19.5820  -16.3260   21.6290 O.2   801  CI3801     -0.2794
     16  CE       -21.8650  -15.5690   21.4560 C.2   801  CI3801      0.4261
     17  CG       -21.3820  -17.4380   26.3700 C.3   801  CI3801      0.0104
     18  OAO      -21.6600  -15.2360   20.2610 O.co2 801  CI3801     -0.2369
     19  OAN      -22.9730  -15.3830   22.0190 O.co2 801  CI3801     -0.2369
     20  CK       -21.0500  -16.1910   27.1990 C.3   801  CI3801      0.0178
     21  CI       -19.6090  -16.1250   27.6820 C.3   801  CI3801      0.0724
     22  NJ       -19.0410  -17.4920   27.7110 N.3   801  CI3801     -0.2686
     23  CP       -17.7440  -17.5280   28.4740 C.3   801  CI3801      0.0992
     24  CGB      -17.6450  -18.8670   29.1560 C.ar  801  CI3801     -0.0061
     25  CD1      -16.9210  -19.8970   28.5530 C.ar  801  CI3801     -0.0029
     26  CE1      -16.8820  -21.1390   29.1580 C.ar  801  CI3801     -0.0003
     27  CZ       -17.5690  -21.3400   30.3540 C.ar  801  CI3801     -0.0000
     28  CE2      -18.2960  -20.3090   30.9590 C.ar  801  CI3801     -0.0003
     29  CD2      -18.3330  -19.0600   30.3480 C.ar  801  CI3801     -0.0029
@<TRIPOS>BOND
     1    18    16   ar
     2     1     2    1
     3    16    19   ar
     4    16    14    1
     5    15    14    1
     6     5     2   ar
     7     5     6   ar
     8    14    13    2
     9     2     3   ar
    10     6     7   ar
    11    13    11    1
    12    12    11    2
    13     3     4   ar
    14    11     9    1
    15     7     4   ar
    16     7     8    1
    17     8     9    1
    18     9    10    1
    19     9    17    1
    20    10    22    1
    21    17    20    1
    22    20    21    1
    23    21    22    1
    24    22    23    1
    25    23    24    1
    26    25    24   ar
    27    25    26   ar
    28    24    29   ar
    29    26    27   ar
    30    29    28   ar
    31    27    28   ar
