@<TRIPOS>MOLECULE
4awh_U5P_A_1.pdb
 21 22 0 0 0
SMALL
GASTEIGER

@<TRIPOS>ATOM
      1  N1        27.9820   25.4500  -16.1820 N.am  910  U5P910     -0.1766
      2  C2        27.3000   26.6320  -16.4130 C.1   910  U5P910      0.2845
      3  N3        27.9910   27.7700  -16.0820 N.2   910  U5P910     -0.2452
      4  C4        29.2600   27.8500  -15.5550 C.1   910  U5P910      0.2182
      5  C5        29.9020   26.5860  -15.3510 C.2   910  U5P910      0.1242
      6  C6        29.2510   25.4580  -15.6490 C.2   910  U5P910      0.0929
      7  O2        26.1710   26.6710  -16.8670 O.2   910  U5P910     -0.1918
      8  O4        29.7410   28.9540  -15.3030 O.2   910  U5P910     -0.2085
      9  C1'       27.3130   24.1790  -16.4990 C.3   910  U5P910      0.2401
     10  C2'       27.8590   23.5160  -17.7650 C.3   910  U5P910      0.2319
     11  O2'       27.2470   23.9990  -18.9400 O.3   910  U5P910     -0.2157
     12  C3'       27.5550   22.0480  -17.4950 C.3   910  U5P910      0.2158
     13  C4'       27.7570   21.9250  -15.9910 C.3   910  U5P910      0.1801
     14  O3'       26.2210   21.6900  -17.8210 O.3   910  U5P910     -0.2175
     15  O4'       27.5760   23.2690  -15.4460 O.3   910  U5P910     -0.3320
     16  C5'       29.0820   21.3400  -15.5510 C.3   910  U5P910      0.1859
     17  O5'       30.1860   22.1430  -16.0100 O.3   910  U5P910     -0.2675
     18  P         31.6440   21.5240  -16.2480 P.3   910  U5P910      0.5327
     19  O1P       32.0830   21.1050  -14.8720 O.3   910  U5P910     -0.1145
     20  O2P       32.3130   22.7580  -16.7200 O.3   910  U5P910     -0.1145
     21  O3P       31.6720   20.3330  -17.1140 O.2   910  U5P910     -0.2224
@<TRIPOS>BOND
     1    11    10    1
     2    14    12    1
     3    10    12    1
     4    10     9    1
     5    12    13    1
     6    21    18    2
     7     7     2    2
     8    20    18    1
     9     9     1    1
    10     9    15    1
    11     2     1   am
    12     2     3    2
    13    18    17    1
    14    18    19    1
    15     1     6    1
    16     3     4    2
    17    17    16    1
    18    13    16    1
    19    13    15    1
    20     6     5    2
    21     4     5    1
    22     4     8    2
