@<TRIPOS>MOLECULE
4awj_V6F_C_1.pdb
 13 13 0 0 0
SMALL
GASTEIGER

@<TRIPOS>ATOM
      1  O01       -9.9740   31.7170    0.9150 O.3   1201  V6F1201    -0.2212
      2  C02       -8.6380   31.4420    1.2880 C.3   1201  V6F1201     0.1739
      3  C03       -8.2020   32.5390    2.2520 C.3   1201  V6F1201     0.0639
      4  C04       -7.6640   33.6770    1.3810 C.3   1201  V6F1201     0.1561
      5  C05       -6.3270   34.1510    1.9590 C.2   1201  V6F1201     0.2596
      6  N06       -6.4410   35.1790    2.9160 N.am  1201  V6F1201    -0.2021
      7  C07       -5.2150   35.6780    3.5060 C.3   1201  V6F1201     0.1386
      8  O08       -5.2520   33.7000    1.6380 O.2   1201  V6F1201    -0.2716
      9  N09       -7.4510   33.0820    0.0410 N.am  1201  V6F1201    -0.2703
     10  C10       -7.0030   33.8680   -1.0410 C.2   1201  V6F1201     0.2265
     11  C11       -6.8150   33.1780   -2.3750 C.3   1201  V6F1201     0.0948
     12  O12       -6.7820   35.0570   -0.8780 O.2   1201  V6F1201    -0.2748
     13  C13       -7.7710   31.6520    0.0360 C.3   1201  V6F1201     0.1266
@<TRIPOS>BOND
     1    11    10    1
     2    10    12    2
     3    10     9   am
     4    13     9    1
     5    13     2    1
     6     9     4    1
     7     1     2    1
     8     2     3    1
     9     4     5    1
    10     4     3    1
    11     8     5    2
    12     5     6   am
    13     6     7    1
