@<TRIPOS>MOLECULE
4awk_CI1_A_1.pdb
 32 34 0 0 0
SMALL
GASTEIGER

@<TRIPOS>ATOM
      1  O32       61.0650   17.1710   17.2850 O.2   801  CI1801     -0.1570
      2  S30       60.2050   16.0440   17.4920 S.O2  801  CI1801      0.0481
      3  O31       60.3910   15.1540   16.3810 O.2   801  CI1801     -0.1570
      4  CP        60.6740   15.2690   18.9030 C.3   801  CI1801      0.1954
      5  CGB       59.9570   13.9490   19.1040 C.ar  801  CI1801      0.0029
      6  CD2       58.8870   13.8770   19.9910 C.ar  801  CI1801     -0.0025
      7  CE2       58.2110   12.6730   20.1810 C.ar  801  CI1801     -0.0003
      8  CZ        58.6150   11.5290   19.4900 C.ar  801  CI1801     -0.0000
      9  CE1       59.6930   11.5920   18.6100 C.ar  801  CI1801     -0.0003
     10  CD1       60.3600   12.8020   18.4170 C.ar  801  CI1801     -0.0025
     11  NJ        58.7460   16.5170   17.5690 N.3   801  CI1801     -0.1587
     12  CI        58.4820   17.9200   17.9420 C.3   801  CI1801      0.0955
     13  CK        57.2740   18.4540   17.1880 C.3   801  CI1801      0.0196
     14  CG        56.1260   17.4700   17.3620 C.3   801  CI1801      0.0105
     15  CH        57.6660   15.5480   17.3230 C.3   801  CI1801      0.1029
     16  CF        56.4360   16.1530   16.6440 C.3   801  CI1801      0.0760
     17  CB        56.6730   16.3700   15.1580 C.2   801  CI1801      0.1774
     18  O13       57.5930   15.8030   14.5690 O.2   801  CI1801     -0.2912
     19  CM        55.7060   17.2520   14.4610 C.2   801  CI1801      0.0864
     20  CA        55.5160   17.3310   13.1320 C.2   801  CI1801      0.2775
     21  O14       56.2610   16.6570   12.2760 O.2   801  CI1801     -0.2794
     22  CE        54.4650   18.2390   12.6590 C.2   801  CI1801      0.4261
     23  OAN       54.0060   19.0690   13.4710 O.co2 801  CI1801     -0.2369
     24  OAO       54.0830   18.2390   11.4770 O.co2 801  CI1801     -0.2369
     25  CO        55.2800   15.1420   16.6860 C.3   801  CI1801      0.0350
     26  CGA       54.6030   15.0480   18.0320 C.ar  801  CI1801     -0.0217
     27  CDB       53.6410   15.9910   18.4040 C.ar  801  CI1801     -0.0034
     28  CEB       53.0230   15.9020   19.6470 C.ar  801  CI1801      0.0111
     29  CDA       54.9390   14.0070   18.8960 C.ar  801  CI1801     -0.0034
     30  CEA       54.3120   13.9190   20.1360 C.ar  801  CI1801      0.0111
     31  CZB       53.3590   14.8640   20.5090 C.ar  801  CI1801      0.0577
     32 CL         52.5650   14.7260   22.1060 Cl    801  CI1801     -0.0822
@<TRIPOS>BOND
     1    24    22   ar
     2    21    20    1
     3    22    20    1
     4    22    23   ar
     5    20    19    2
     6    19    17    1
     7    18    17    2
     8    17    16    1
     9     3     2    2
    10    16    25    1
    11    16    15    1
    12    16    14    1
    13    25    26    1
    14    13    14    1
    15    13    12    1
    16     1     2    2
    17    15    11    1
    18     2    11    1
    19     2     4    1
    20    11    12    1
    21    26    27   ar
    22    26    29   ar
    23    27    28   ar
    24    10     9   ar
    25    10     5   ar
    26     9     8   ar
    27    29    30   ar
    28     4     5    1
    29     5     6   ar
    30     8     7   ar
    31    28    31   ar
    32     6     7   ar
    33    30    31   ar
    34    31    32    1
