@<TRIPOS>MOLECULE
4awm_KDH_A_1.pdb
 33 36 0 0 0
SMALL
GASTEIGER

@<TRIPOS>ATOM
      1  O1        13.5850  -32.1570   16.3220 O.3   911  KDH911     -0.2830
      2  C3        12.5790  -32.2250   17.2250 C.ar  911  KDH911      0.2373
      3  C6        11.3030  -31.7200   16.9390 C.ar  911  KDH911      0.2727
      4  O7        11.0020  -31.1340   15.7460 O.3   911  KDH911     -0.2797
      5  C9        10.3180  -31.8120   17.9010 C.ar  911  KDH911      0.2373
      6  O10        9.0670  -31.3420   17.6630 O.3   911  KDH911     -0.2830
      7  C12       10.5890  -32.3880   19.1280 C.ar  911  KDH911      0.0449
      8  C14       11.8490  -32.8940   19.4150 C.ar  911  KDH911      0.0274
      9  C15       12.1240  -33.5240   20.7320 C.3   911  KDH911      0.2283
     10  C20       10.8110  -33.4030   22.8090 C.ar  911  KDH911      0.1414
     11  C21       10.1280  -32.5980   23.7130 C.ar  911  KDH911      0.0788
     12  C24        9.5350  -33.1600   24.8350 C.ar  911  KDH911      0.2019
     13  C26        9.6190  -34.5390   25.0450 C.ar  911  KDH911      0.0839
     14  C29       10.3080  -35.3450   24.1400 C.ar  911  KDH911      0.1979
     15  C31       10.9060  -34.7790   23.0200 C.ar  911  KDH911      0.0546
     16  C33       11.7120  -34.9950   20.6900 C.3   911  KDH911      0.2175
     17  C36       10.0900  -35.2650   18.8830 C.2   911  KDH911      0.3414
     18  C38        8.6970  -34.9830   18.4490 C.ar  911  KDH911      0.0822
     19  C39        8.4910  -34.4370   17.1980 C.ar  911  KDH911      0.0520
     20  C41        7.6240  -35.2710   19.3010 C.ar  911  KDH911      0.0520
     21  C01       11.6750  -35.6520   22.0470 C.3   911  KDH911      0.0805
     22  O01       11.3830  -32.7990   21.7210 O.3   911  KDH911     -0.4711
     23  O02        8.8710  -32.3520   25.7180 O.3   911  KDH911     -0.2864
     24  O03       10.4010  -36.6840   24.3660 O.3   911  KDH911     -0.2867
     25  C4        12.8470  -32.8140   18.4600 C.ar  911  KDH911      0.0449
     26  O35       10.3600  -35.0940   20.2800 O.3   911  KDH911     -0.4447
     27  O37       10.9590  -35.6360   18.1270 O.2   911  KDH911     -0.2449
     28  C43        6.3210  -35.0100   18.8730 C.ar  911  KDH911      0.2377
     29  O44        5.2530  -35.2870   19.6890 O.3   911  KDH911     -0.2830
     30  C46        6.1200  -34.4570   17.6090 C.ar  911  KDH911      0.2727
     31  O47        4.8480  -34.1830   17.2060 O.3   911  KDH911     -0.2797
     32  C49        7.2010  -34.1720   16.7700 C.ar  911  KDH911      0.2377
     33  O50        7.0470  -33.6180   15.5300 O.3   911  KDH911     -0.2830
@<TRIPOS>BOND
     1    33    32    1
     2     4     3    1
     3     1     2    1
     4    32    19   ar
     5    32    30   ar
     6     3     2   ar
     7     3     5   ar
     8    19    18   ar
     9    31    30    1
    10     2    25   ar
    11    30    28   ar
    12     6     5    1
    13     5     7   ar
    14    27    17    2
    15    18    17    1
    16    18    20   ar
    17    25     8   ar
    18    28    20   ar
    19    28    29    1
    20    17    26    1
    21     7     8   ar
    22     8     9    1
    23    26    16    1
    24    16     9    1
    25    16    21    1
    26     9    22    1
    27    22    10    1
    28    21    15    1
    29    10    15   ar
    30    10    11   ar
    31    15    14   ar
    32    11    12   ar
    33    14    24    1
    34    14    13   ar
    35    12    13   ar
    36    12    23    1
