@<TRIPOS>MOLECULE
4awo_99B_A_1.pdb
 37 41 0 0 0
SMALL
GASTEIGER

@<TRIPOS>ATOM
      1  C1       -12.4130  -18.4330  -13.4730 C.3   1225  99B1225     0.0925
      2  N1       -11.8470  -19.8200  -13.4220 N.pl3 1225  99B1225    -0.2392
      3  O1        -9.2640  -18.9960  -18.0480 O.2   1225  99B1225    -0.2684
      4  C2       -13.8250  -18.3280  -14.0950 C.3   1225  99B1225     0.0216
      5  N2       -10.9820  -20.1240  -19.0090 N.am  1225  99B1225    -0.2033
      6  O2        -9.5380  -16.1540  -27.7600 O.2   1225  99B1225    -0.2913
      7  C3       -14.7960  -19.3820  -13.6050 C.3   1225  99B1225     0.0018
      8  N3       -10.6780  -20.1420  -23.0280 N.pl3 1225  99B1225    -0.2964
      9  O3       -13.1150  -22.2690  -12.8600 O.2   1225  99B1225    -0.2666
     10  C4       -12.5220  -17.8390  -12.0620 C.3   1225  99B1225     0.0233
     11  N4        -9.6050  -18.6750  -24.5420 N.ar  1225  99B1225    -0.2291
     12  C5       -11.4180  -20.5080  -14.5390 C.ar  1225  99B1225     0.0698
     13  N5       -11.4510  -23.7850  -12.8800 N.am  1225  99B1225    -0.0837
     14  C6       -10.9510  -19.8110  -15.6440 C.ar  1225  99B1225     0.0205
     15  C7       -10.5460  -20.5750  -16.7440 C.ar  1225  99B1225     0.0524
     16  C8       -10.1240  -19.8460  -17.9970 C.2   1225  99B1225     0.2645
     17  C9       -10.8570  -19.6320  -20.4000 C.3   1225  99B1225     0.0989
     18  C10       -9.5150  -19.2600  -21.0810 C.3   1225  99B1225     0.0415
     19  C11       -9.4940  -20.4210  -22.1590 C.3   1225  99B1225     0.0758
     20  C12      -11.8660  -20.5680  -22.3070 C.3   1225  99B1225     0.0758
     21  C15       -9.8800  -21.8430  -21.5870 C.3   1225  99B1225     0.0215
     22  C16      -10.7270  -19.3150  -24.1740 C.ar  1225  99B1225     0.1316
     23  C17       -9.5460  -17.8530  -25.5800 C.ar  1225  99B1225     0.1031
     24  C18      -10.7370  -17.6000  -26.2570 C.ar  1225  99B1225     0.0539
     25  C19      -10.6490  -16.6160  -27.4190 C.2   1225  99B1225     0.1741
     26  C20      -12.0090  -16.1600  -28.0020 C.3   1225  99B1225     0.0620
     27  C21      -12.1400  -14.6500  -28.0650 C.3   1225  99B1225     0.0081
     28  C22      -12.0110  -15.4470  -29.3820 C.3   1225  99B1225     0.0081
     29  C23      -11.9970  -19.0850  -24.7850 C.ar  1225  99B1225     0.0344
     30  C24      -11.9580  -18.1910  -25.8750 C.ar  1225  99B1225     0.0073
     31  C25      -11.4420  -21.9060  -14.5090 C.ar  1225  99B1225     0.0711
     32  C26      -12.0220  -22.6580  -13.3060 C.2   1225  99B1225     0.2854
     33  C27      -11.0590  -22.6670  -15.6160 C.ar  1225  99B1225     0.0018
     34  C28      -10.6380  -21.9860  -16.7350 C.ar  1225  99B1225    -0.0172
     35  C29      -10.2260  -22.8490  -17.9450 C.3   1225  99B1225     0.0312
     36  C14      -11.4730  -21.9460  -21.6780 C.3   1225  99B1225     0.0215
     37  C13      -12.1250  -19.4110  -21.2160 C.3   1225  99B1225     0.0415
@<TRIPOS>BOND
     1    28    27    1
     2    28    26    1
     3    27    26    1
     4    26    25    1
     5     6    25    2
     6    25    24    1
     7    24    30   ar
     8    24    23   ar
     9    30    29   ar
    10    23    11   ar
    11    29    22   ar
    12    11    22   ar
    13    22     8    1
    14     8    20    1
    15     8    19    1
    16    20    36    1
    17    20    37    1
    18    19    21    1
    19    19    18    1
    20    36    21    1
    21    37    17    1
    22    18    17    1
    23    17     5    1
    24     5    16   am
    25     3    16    2
    26    16    15    1
    27    35    34    1
    28    15    34   ar
    29    15    14   ar
    30    34    33   ar
    31    14    12   ar
    32    33    31   ar
    33    12    31   ar
    34    12     2    1
    35    31    32    1
    36     4     7    1
    37     4     1    1
    38     1     2    1
    39     1    10    1
    40    32    13   am
    41    32     9    2
