@<TRIPOS>MOLECULE
4awp_99A_A_1.pdb
 38 42 0 0 0
SMALL
GASTEIGER

@<TRIPOS>ATOM
      1  C15       -9.8730  -21.9070  -19.5100 C.3   1224  99A1224     0.0312
      2  C8       -10.2370  -21.0340  -18.3060 C.ar  1224  99A1224    -0.0173
      3  C9       -10.7150  -21.6760  -17.1640 C.ar  1224  99A1224     0.0002
      4  C10      -11.0590  -20.9240  -16.0380 C.ar  1224  99A1224     0.0524
      5  C14      -11.6930  -21.6410  -14.8590 C.2   1224  99A1224     0.2839
      6  O2       -12.8380  -21.2720  -14.5610 O.2   1224  99A1224    -0.2667
      7  N2       -11.0600  -22.6620  -14.3070 N.am  1224  99A1224    -0.0837
      8  C11      -10.9500  -19.5100  -16.0340 C.ar  1224  99A1224    -0.0172
      9  C13      -11.3330  -18.6370  -14.8370 C.3   1224  99A1224     0.0312
     10  C12      -10.4540  -18.8820  -17.1540 C.ar  1224  99A1224     0.0001
     11  C7       -10.0970  -19.6180  -18.2950 C.ar  1224  99A1224     0.0508
     12  C6        -9.6140  -18.8190  -19.5350 C.2   1224  99A1224     0.2644
     13  O1        -8.7160  -17.9980  -19.5620 O.2   1224  99A1224    -0.2684
     14  N1       -10.4410  -19.0370  -20.5670 N.am  1224  99A1224    -0.2033
     15  C5       -10.4420  -18.5540  -21.9250 C.3   1224  99A1224     0.0989
     16  C30      -11.8180  -18.5430  -22.6700 C.3   1224  99A1224     0.0415
     17  C4        -9.1470  -18.2840  -22.6780 C.3   1224  99A1224     0.0415
     18  C1        -9.1930  -19.4580  -23.7340 C.3   1224  99A1224     0.0758
     19  C2        -9.5940  -20.9120  -23.2290 C.3   1224  99A1224     0.0215
     20  C3       -11.1310  -20.9770  -23.2140 C.3   1224  99A1224     0.0215
     21  C29      -11.6110  -19.6240  -23.7660 C.3   1224  99A1224     0.0758
     22  N3       -10.4160  -19.1230  -24.4860 N.pl3 1224  99A1224    -0.2964
     23  C16      -10.4570  -18.2910  -25.6250 C.ar  1224  99A1224     0.1316
     24  C17      -11.6770  -17.9900  -26.2420 C.ar  1224  99A1224     0.0345
     25  C18      -11.7010  -17.1650  -27.3590 C.ar  1224  99A1224     0.0090
     26  N5        -9.3210  -17.6980  -26.0690 N.ar  1224  99A1224    -0.2290
     27  C28       -9.3170  -16.9190  -27.1330 C.ar  1224  99A1224     0.1048
     28  C19      -10.5020  -16.6060  -27.8230 C.ar  1224  99A1224     0.0743
     29  C20      -10.4630  -15.6920  -29.0500 C.2   1224  99A1224     0.2666
     30  O3        -9.3920  -15.2130  -29.4260 O.2   1224  99A1224    -0.2683
     31  N4       -11.6490  -15.5220  -29.6860 N.am  1224  99A1224    -0.1968
     32  C21      -11.7970  -14.7440  -30.9350 C.3   1224  99A1224     0.1418
     33  C22      -11.7020  -13.2200  -30.8190 C.ar  1224  99A1224    -0.0006
     34  C23      -11.4130  -12.5030  -32.0050 C.ar  1224  99A1224    -0.0026
     35  C24      -11.3080  -11.1210  -31.9570 C.ar  1224  99A1224    -0.0003
     36  C25      -11.5520  -10.4630  -30.7400 C.ar  1224  99A1224    -0.0000
     37  C26      -11.8520  -11.1630  -29.5630 C.ar  1224  99A1224    -0.0003
     38  C27      -11.9490  -12.5590  -29.6060 C.ar  1224  99A1224    -0.0026
@<TRIPOS>BOND
     1    34    35   ar
     2    34    33   ar
     3    35    36   ar
     4    32    33    1
     5    32    31    1
     6    33    38   ar
     7    36    37   ar
     8    31    29   am
     9    38    37   ar
    10    30    29    2
    11    29    28    1
    12    28    25   ar
    13    28    27   ar
    14    25    24   ar
    15    27    26   ar
    16    24    23   ar
    17    26    23   ar
    18    23    22    1
    19    22    21    1
    20    22    18    1
    21    21    20    1
    22    21    16    1
    23    18    19    1
    24    18    17    1
    25    19    20    1
    26    17    15    1
    27    16    15    1
    28    15    14    1
    29    14    12   am
    30    13    12    2
    31    12    11    1
    32     1     2    1
    33     2    11   ar
    34     2     3   ar
    35    11    10   ar
    36     3     4   ar
    37    10     8   ar
    38     4     8   ar
    39     4     5    1
    40     8     9    1
    41     5     6    2
    42     5     7   am
