@<TRIPOS>MOLECULE
4awq_592_A_1.pdb
 36 40 0 0 0
SMALL
GASTEIGER

@<TRIPOS>ATOM
      1  C20       -3.9120    5.4300    1.3370 C.3   1224  5921224     0.0344
      2  C13       -3.7550    4.0100    0.7610 C.ar  1224  5921224     0.0165
      3  C14       -3.9880    2.9010    1.5940 C.ar  1224  5921224     0.1348
      4  O2        -4.3300    3.2070    2.8830 O.3   1224  5921224    -0.4717
      5  C19       -4.6800    2.1600    3.7490 C.3   1224  5921224     0.2525
      6  C15       -3.8580    1.5790    1.1330 C.ar  1224  5921224     0.0366
      7  C16       -3.5590    1.3490   -0.2100 C.ar  1224  5921224     0.0032
      8  C1        -3.3250    2.4370   -1.0470 C.ar  1224  5921224     0.0044
      9  C12       -3.4570    3.7530   -0.5790 C.ar  1224  5921224     0.0540
     10  C10       -3.2170    4.8950   -1.5650 C.2   1224  5921224     0.2645
     11  O1        -2.3640    5.7480   -1.3680 O.2   1224  5921224    -0.2684
     12  N1        -4.0030    4.8290   -2.6540 N.am  1224  5921224    -0.2033
     13  C4        -3.9700    5.7980   -3.7550 C.3   1224  5921224     0.0989
     14  C5        -2.6360    5.7390   -4.5990 C.3   1224  5921224     0.0415
     15  C3        -5.2270    5.5630   -4.6840 C.3   1224  5921224     0.0415
     16  C2        -5.0020    4.4430   -5.7550 C.3   1224  5921224     0.0758
     17  C8        -4.5990    3.1240   -5.1460 C.3   1224  5921224     0.0215
     18  C7        -3.0430    3.2230   -5.1030 C.3   1224  5921224     0.0215
     19  C6        -2.6520    4.6090   -5.6440 C.3   1224  5921224     0.0758
     20  N4        -3.8360    4.9150   -6.4890 N.pl3 1224  5921224    -0.2964
     21  C21       -3.8800    5.7400   -7.6010 C.ar  1224  5921224     0.1316
     22  C26       -5.1130    6.0120   -8.2490 C.ar  1224  5921224     0.0345
     23  C25       -5.1160    6.8580   -9.3490 C.ar  1224  5921224     0.0090
     24  N2        -2.7370    6.3510   -8.0200 N.ar  1224  5921224    -0.2290
     25  C23       -2.6980    7.1440   -9.0980 C.ar  1224  5921224     0.1048
     26  C24       -3.8930    7.4400   -9.7670 C.ar  1224  5921224     0.0743
     27  C27       -3.8420    8.3160  -10.9840 C.2   1224  5921224     0.2666
     28  O3        -2.7770    8.7960  -11.3660 O.2   1224  5921224    -0.2683
     29  N3        -5.0430    8.5070  -11.5980 N.am  1224  5921224    -0.1968
     30  C11       -5.1160    9.2520  -12.8890 C.3   1224  5921224     0.1418
     31  C17       -5.0190   10.7640  -12.7700 C.ar  1224  5921224    -0.0006
     32  C18       -4.7600   11.5310  -13.9090 C.ar  1224  5921224    -0.0026
     33  C22       -4.6820   12.9200  -13.8150 C.ar  1224  5921224    -0.0003
     34  C28       -4.8850   13.5300  -12.5690 C.ar  1224  5921224    -0.0000
     35  C9        -5.1180   12.7830  -11.4190 C.ar  1224  5921224    -0.0003
     36  C29       -5.2050   11.3760  -11.5160 C.ar  1224  5921224    -0.0026
@<TRIPOS>BOND
     1    32    33   ar
     2    32    31   ar
     3    33    34   ar
     4    30    31    1
     5    30    29    1
     6    31    36   ar
     7    34    35   ar
     8    29    27   am
     9    36    35   ar
    10    28    27    2
    11    27    26    1
    12    26    23   ar
    13    26    25   ar
    14    23    22   ar
    15    25    24   ar
    16    22    21   ar
    17    24    21   ar
    18    21    20    1
    19    20    16    1
    20    20    19    1
    21    16    17    1
    22    16    15    1
    23    19    18    1
    24    19    14    1
    25    17    18    1
    26    15    13    1
    27    14    13    1
    28    13    12    1
    29    12    10   am
    30    10    11    2
    31    10     9    1
    32     8     9   ar
    33     8     7   ar
    34     9     2   ar
    35     7     6   ar
    36     2     1    1
    37     2     3   ar
    38     6     3   ar
    39     3     4    1
    40     4     5    1
