@<TRIPOS>MOLECULE
4ax6_UWU_A_1.pdb
 19 21 0 0 0
SMALL
GASTEIGER

@<TRIPOS>ATOM
      1  C16       10.1770   -6.1260   -5.6080 C.ar  600  UWU600      0.0000
      2  C15       10.4740   -5.6320   -6.8810 C.ar  600  UWU600      0.0000
      3  C14       10.0670   -6.3320   -8.0160 C.ar  600  UWU600      0.0000
      4  C13        9.3600   -7.5250   -7.8740 C.ar  600  UWU600      0.0000
      5  C12        9.0610   -8.0130   -6.6000 C.ar  600  UWU600      0.0000
      6  C11        9.4600   -7.3160   -5.4550 C.ar  600  UWU600      0.0003
      7  C4         9.1540   -7.8360   -4.1870 C.ar  600  UWU600      0.0094
      8  C3         9.4550   -9.1700   -3.9420 C.ar  600  UWU600      0.0824
      9  C2         9.1710   -9.7440   -2.7090 C.ar  600  UWU600      0.3459
     10  O2         9.4560  -10.9270   -2.5330 O.2   600  UWU600     -0.2445
     11  O8         8.5960   -9.0360   -1.6860 O.2   600  UWU600     -0.4209
     12  C8A        8.2900   -7.7220   -1.9220 C.ar  600  UWU600      0.1519
     13  C8         7.6930   -7.0030   -0.8860 C.ar  600  UWU600      0.0805
     14  C4A        8.5550   -7.1010   -3.1520 C.ar  600  UWU600      0.0359
     15  C5         8.2100   -5.7570   -3.3110 C.ar  600  UWU600      0.0177
     16  C6         7.6170   -5.0400   -2.2730 C.ar  600  UWU600      0.0967
     17 CL          7.2170   -3.3770   -2.5380 Cl    600  UWU600     -0.0789
     18  C7         7.3570   -5.6570   -1.0450 C.ar  600  UWU600      0.2092
     19  O7         6.7660   -4.9500   -0.0270 O.3   600  UWU600     -0.2856
@<TRIPOS>BOND
     1     3     4   ar
     2     3     2   ar
     3     4     5   ar
     4     2     1   ar
     5     5     6   ar
     6     1     6   ar
     7     6     7    1
     8     7     8   ar
     9     7    14   ar
    10     8     9   ar
    11    15    14   ar
    12    15    16   ar
    13    14    12   ar
    14     9    10    2
    15     9    11   ar
    16    17    16    1
    17    16    18   ar
    18    12    11   ar
    19    12    13   ar
    20    18    13   ar
    21    18    19    1
