@<TRIPOS>MOLECULE
4ax6_BGC_A_1.pdb
 11 11 0 0 0
SMALL
GASTEIGER

@<TRIPOS>ATOM
      1  C2         7.6780   -3.8500    1.9870 C.3   601  BGC601      0.2141
      2  C3         7.4940   -3.9250    3.5070 C.3   601  BGC601      0.2173
      3  C4         6.0710   -4.3330    3.9070 C.3   601  BGC601      0.2142
      4  C5         5.4830   -5.4570    3.0300 C.3   601  BGC601      0.1810
      5  C6         4.1770   -4.9760    2.3500 C.3   601  BGC601      0.2141
      6  C1         7.3340   -5.1830    1.2970 C.3   601  BGC601      0.1777
      7  O2         9.0340   -3.5020    1.7080 O.3   601  BGC601     -0.2176
      8  O3         7.8030   -2.6550    4.0850 O.3   601  BGC601     -0.2175
      9  O4         6.1610   -4.7630    5.2790 O.3   601  BGC601     -0.2176
     10  O5         6.4340   -6.0550    2.0690 O.3   601  BGC601     -0.3481
     11  O6         3.7370   -5.9580    1.4070 O.3   601  BGC601     -0.2176
@<TRIPOS>BOND
     1     6     1    1
     2     6    10    1
     3    11     5    1
     4     7     1    1
     5     1     2    1
     6    10     4    1
     7     5     4    1
     8     4     3    1
     9     2     3    1
    10     2     8    1
    11     3     9    1
