@<TRIPOS>MOLECULE
4ax6_MAN_A_1.pdb
 11 11 0 0 0
SMALL
GASTEIGER

@<TRIPOS>ATOM
      1  C1       -10.3680   18.5800    4.3060 C.3   504  MAN504      0.1777
      2  C2       -10.9390   19.4790    3.2050 C.3   504  MAN504      0.2141
      3  C3        -9.9870   20.6270    2.8560 C.3   504  MAN504      0.2173
      4  C4        -9.4300   21.3380    4.0920 C.3   504  MAN504      0.2142
      5  C5        -8.9740   20.3500    5.1720 C.3   504  MAN504      0.1810
      6  C6        -8.6360   21.0700    6.4770 C.3   504  MAN504      0.2141
      7  O2       -12.1940   19.9900    3.6040 O.3   504  MAN504     -0.2176
      8  O3       -10.6490   21.5620    2.0310 O.3   504  MAN504     -0.2175
      9  O4        -8.3400   22.1410    3.6950 O.3   504  MAN504     -0.2176
     10  O5        -9.9630   19.3580    5.4250 O.3   504  MAN504     -0.3481
     11  O6        -9.8170   21.3330    7.2090 O.3   504  MAN504     -0.2176
@<TRIPOS>BOND
     1     8     3    1
     2     3     2    1
     3     3     4    1
     4     2     7    1
     5     2     1    1
     6     9     4    1
     7     4     5    1
     8     1    10    1
     9     5    10    1
    10     5     6    1
    11     6    11    1
