@<TRIPOS>MOLECULE
4ax7_BGC_A_1.pdb
 11 11 0 0 0
SMALL
GASTEIGER

@<TRIPOS>ATOM
      1  C2         5.8720   13.4530  -29.7130 C.3   601  BGC601      0.2141
      2  C3         5.7790   12.1160  -30.4570 C.3   601  BGC601      0.2173
      3  C4         6.5250   10.9920  -29.6970 C.3   601  BGC601      0.2142
      4  C5         5.9740   10.9480  -28.2760 C.3   601  BGC601      0.1810
      5  C6         6.7010    9.8950  -27.4410 C.3   601  BGC601      0.2141
      6  C1         5.4340   13.2920  -28.2570 C.3   601  BGC601      0.1777
      7  O2         5.0360   14.4200  -30.3750 O.3   601  BGC601     -0.2176
      8  O3         6.3420   12.2690  -31.7670 O.3   601  BGC601     -0.2175
      9  O4         6.2450    9.7570  -30.3130 O.3   601  BGC601     -0.2176
     10  O5         6.1880   12.2300  -27.6460 O.3   601  BGC601     -0.3481
     11  O6         6.0170    9.7490  -26.1920 O.3   601  BGC601     -0.2176
@<TRIPOS>BOND
     1     8     2    1
     2     2     1    1
     3     2     3    1
     4     7     1    1
     5     9     3    1
     6     1     6    1
     7     3     4    1
     8     4    10    1
     9     4     5    1
    10     6    10    1
    11     5    11    1
