@<TRIPOS>MOLECULE
4ax7_4MU_A_1.pdb
 13 14 0 0 0
SMALL
GASTEIGER

@<TRIPOS>ATOM
      1  C5         2.7760   16.1670  -26.3330 C.ar  600  4MU600      0.0060
      2  C6         3.5810   15.3210  -27.1070 C.ar  600  4MU600      0.0422
      3  C7         4.9580   15.2410  -26.8610 C.ar  600  4MU600      0.1988
      4  C2         4.5690   18.4610  -23.3500 C.ar  600  4MU600      0.3456
      5  C3         3.1950   18.5790  -23.5550 C.ar  600  4MU600      0.0781
      6  C4         2.5690   17.8080  -24.5270 C.ar  600  4MU600     -0.0125
      7  O2         5.0830   19.1550  -22.4750 O.2   600  4MU600     -0.2445
      8  O1         5.3170   17.6020  -24.1070 O.2   600  4MU600     -0.4209
      9  CM4        1.1880   17.9400  -24.7160 C.3   600  4MU600      0.0313
     10  C4A        3.3460   16.9440  -25.3130 C.ar  600  4MU600      0.0311
     11  C8A        4.7290   16.8540  -25.0920 C.ar  600  4MU600      0.1516
     12  C8         5.5280   16.0150  -25.8590 C.ar  600  4MU600      0.0796
     13  O1'        5.8320   14.4660  -27.5650 O.3   600  4MU600     -0.2865
@<TRIPOS>BOND
     1    13     3    1
     2     2     3   ar
     3     2     1   ar
     4     3    12   ar
     5     1    10   ar
     6    12    11   ar
     7    10    11   ar
     8    10     6   ar
     9    11     8   ar
    10     9     6    1
    11     6     5   ar
    12     8     4   ar
    13     5     4   ar
    14     4     7    2
