@<TRIPOS>MOLECULE
4ax7_MAN_A_1.pdb
 11 11 0 0 0
SMALL
GASTEIGER

@<TRIPOS>ATOM
      1  C1        39.4240   16.2560  -46.7080 C.3   503  MAN503      0.1777
      2  C2        38.9320   17.7020  -46.8720 C.3   503  MAN503      0.2141
      3  C3        39.4360   18.3700  -48.1610 C.3   503  MAN503      0.2173
      4  C4        40.8470   17.9400  -48.5840 C.3   503  MAN503      0.2142
      5  C5        41.0510   16.4430  -48.3930 C.3   503  MAN503      0.1810
      6  C6        42.4630   16.0380  -48.7840 C.3   503  MAN503      0.2141
      7  O2        39.2750   18.4760  -45.7370 O.3   503  MAN503     -0.2176
      8  O3        39.3960   19.7720  -47.9970 O.3   503  MAN503     -0.2175
      9  O4        41.0670   18.2600  -49.9420 O.3   503  MAN503     -0.2176
     10  O5        40.8010   16.1300  -47.0390 O.3   503  MAN503     -0.3481
     11  O6        42.5070   15.7400  -50.1630 O.3   503  MAN503     -0.2176
@<TRIPOS>BOND
     1    11     6    1
     2     9     4    1
     3     6     5    1
     4     4     5    1
     5     4     3    1
     6     5    10    1
     7     3     8    1
     8     3     2    1
     9    10     1    1
    10     2     1    1
    11     2     7    1
