@<TRIPOS>MOLECULE
4ax8_ADP_A_1.pdb
 39 41 0 0 0
SMALL
GASTEIGER

@<TRIPOS>ATOM
      1  PB        34.7820   97.4650  113.0440 P.3   1477  ADP1477     0.5373
      2  O1B       35.8560   97.2470  112.0030 O.2   1477  ADP1477    -0.2221
      3  O2B       34.7540   96.5000  114.2370 O.3   1477  ADP1477    -0.1143
      4  O3B       34.8210   98.9590  113.3220 O.3   1477  ADP1477    -0.1143
      5  PA        32.2620   98.3250  111.9920 P.3   1477  ADP1477     0.2224
      6  O1A       33.0230   99.6570  112.1010 O.2   1477  ADP1477    -0.5170
      7  O2A       30.9520   98.0480  112.7190 O.3   1477  ADP1477    -0.4370
      8  O3A       33.3200   97.1330  112.3540 O.3   1477  ADP1477    -0.2261
      9  O5'       31.8930   98.0770  110.4760 O.3   1477  ADP1477    -0.3245
     10  C5'       32.8670   98.5180  109.5670 C.3   1477  ADP1477     0.0836
     11  C4'       32.0420   98.5930  108.3280 C.3   1477  ADP1477     0.1131
     12  O4'       31.0520   97.5970  108.3880 O.3   1477  ADP1477    -0.3474
     13  C3'       31.3140   99.9150  108.2960 C.3   1477  ADP1477     0.1133
     14  O3'       32.0470  100.8190  107.4850 O.3   1477  ADP1477    -0.3864
     15  C2'       29.9840   99.5940  107.6750 C.3   1477  ADP1477     0.1266
     16  O2'       30.0500   99.8540  106.2710 O.3   1477  ADP1477    -0.3849
     17  C1'       29.8610   98.1200  107.8000 C.3   1477  ADP1477     0.1617
     18  N9        28.7320   97.6940  108.6240 N.pl3 1477  ADP1477    -0.2234
     19  C8        28.8540   97.2150  109.8560 C.2   1477  ADP1477     0.1451
     20  N7        27.6470   96.8350  110.3380 N.2   1477  ADP1477    -0.3871
     21  C5        26.7630   97.0420  109.3520 C.2   1477  ADP1477     0.2211
     22  C6        25.3240   96.8390  109.1740 C.2   1477  ADP1477     0.2227
     23  N6        24.5810   96.3330  110.1760 N.pl3 1477  ADP1477    -0.3300
     24  N1        24.7800   97.1770  107.9860 N.2   1477  ADP1477    -0.3296
     25  C2        25.5220   97.6980  106.9820 C.1   1477  ADP1477     0.0930
     26  N3        26.8430   97.9180  107.0710 N.2   1477  ADP1477    -0.3287
     27  C4        27.4890   97.6040  108.2190 C.2   1477  ADP1477     0.2354
     28 H5'1       33.2950   99.4920  109.8480 H     1477  ADP1477     0.0591
     29 H5'2       33.7060   97.8130  109.4730 H     1477  ADP1477     0.0591
     30  H4'       32.6940   98.4730  107.4500 H     1477  ADP1477     0.0647
     31  H3'       31.1970  100.3800  109.2860 H     1477  ADP1477     0.0647
     32 HO3'       32.9410  100.4260  107.2710 H     1477  ADP1477     0.2100
     33  H2'       29.1690  100.1680  108.1410 H     1477  ADP1477     0.0663
     34 HO2'       30.8820  100.3700  106.0660 H     1477  ADP1477     0.2101
     35  H1'       29.6960   97.7370  106.7820 H     1477  ADP1477     0.0841
     36  H8        29.8020   97.1380  110.4080 H     1477  ADP1477     0.1149
     37 HN61       23.5980   96.1960  110.0500 H     1477  ADP1477     0.1448
     38 HN62       25.0120   96.0940  111.0460 H     1477  ADP1477     0.1448
     39  H2        25.0150   97.9560  106.0410 H     1477  ADP1477     0.1751
@<TRIPOS>BOND
     1    39    25    1
     2    34    16    1
     3    16    15    1
     4    35    17    1
     5    25    26    2
     6    25    24    2
     7    26    27    2
     8    32    14    1
     9    30    11    1
    10    14    13    1
    11    15    17    1
    12    15    33    1
    13    15    13    1
    14    17    12    1
    15    17    18    1
    16    24    22    2
    17    27    18    1
    18    27    21    1
    19    13    11    1
    20    13    31    1
    21    11    12    1
    22    11    10    1
    23    18    19    1
    24    22    21    1
    25    22    23    1
    26    21    20    2
    27    29    10    1
    28    10    28    1
    29    10     9    1
    30    19    20    2
    31    19    36    1
    32    37    23    1
    33    23    38    1
    34     9     5    1
    35     5     6    2
    36     5     8    1
    37     5     7    1
    38     2     1    2
    39     8     1    1
    40     1     4    1
    41     1     3    1
