@<TRIPOS>MOLECULE
4ax8_SAM_A_1.pdb
 49 51 0 0 0
SMALL
GASTEIGER

@<TRIPOS>ATOM
      1  N         44.9910   64.9170   95.6970 N.3   1474  SAM1474    -0.3183
      2  CA        45.2960   63.5360   96.0730 C.3   1474  SAM1474     0.1084
      3  C         45.2030   63.3210   97.5730 C.2   1474  SAM1474     0.3724
      4  O         45.6580   64.1870   98.3750 O.co2 1474  SAM1474    -0.2446
      5  OXT       44.6940   62.2540   97.9950 O.co2 1474  SAM1474    -0.2446
      6  CB        46.7070   63.1300   95.5810 C.3   1474  SAM1474    -0.0189
      7  CG        47.8870   63.9610   96.0750 C.3   1474  SAM1474    -0.0132
      8  SD        49.3110   63.5600   95.3140 S.3   1474  SAM1474    -0.2088
      9  CE        50.6330   63.8630   96.3240 C.3   1474  SAM1474    -0.0267
     10  C5'       49.4760   64.5650   94.0040 C.3   1474  SAM1474     0.0137
     11  C4'       48.6540   64.1710   92.7820 C.3   1474  SAM1474     0.0977
     12  O4'       48.5730   65.2150   91.8180 O.3   1474  SAM1474    -0.3489
     13  C3'       49.2990   63.0530   92.0010 C.3   1474  SAM1474     0.1119
     14  O3'       48.2020   62.2520   91.5640 O.3   1474  SAM1474    -0.3865
     15  C2'       50.0280   63.6570   90.8090 C.3   1474  SAM1474     0.1266
     16  O2'       50.0090   62.7840   89.6940 O.3   1474  SAM1474    -0.3849
     17  C1'       49.1530   64.8520   90.5350 C.3   1474  SAM1474     0.1617
     18  N9        49.7550   66.0920   90.0180 N.pl3 1474  SAM1474    -0.2234
     19  C8        50.8040   66.7530   90.5350 C.2   1474  SAM1474     0.1451
     20  N7        51.0410   67.9120   89.8440 N.2   1474  SAM1474    -0.3871
     21  C5        50.0850   67.9740   88.8840 C.2   1474  SAM1474     0.2211
     22  C6        49.7170   68.9200   87.8330 C.2   1474  SAM1474     0.2227
     23  N6        50.4590   70.0360   87.6700 N.pl3 1474  SAM1474    -0.3300
     24  N1        48.6520   68.6530   87.0590 N.2   1474  SAM1474    -0.3296
     25  C2        47.9220   67.5410   87.2490 C.1   1474  SAM1474     0.0930
     26  N3        48.2090   66.6410   88.2060 N.2   1474  SAM1474    -0.3287
     27  C4        49.2420   66.8000   89.0260 C.2   1474  SAM1474     0.2354
     28  HN1       45.0170   65.1910   94.7360 H     1474  SAM1474     0.1190
     29  HN2       44.7570   65.5870   96.4020 H     1474  SAM1474     0.1190
     30  HA        44.5410   62.9010   95.5870 H     1474  SAM1474     0.0576
     31  HB1       46.8810   62.0840   95.8730 H     1474  SAM1474     0.0293
     32  HB2       46.7060   63.1610   94.4810 H     1474  SAM1474     0.0293
     33  HG1       47.6750   65.0280   95.9100 H     1474  SAM1474     0.0369
     34  HG2       48.0020   63.8200   97.1600 H     1474  SAM1474     0.0369
     35  HE1       50.6580   64.9310   96.5860 H     1474  SAM1474     0.0333
     36  HE2       50.5390   63.2640   97.2420 H     1474  SAM1474     0.0333
     37  HE3       51.5630   63.5920   95.8030 H     1474  SAM1474     0.0333
     38 H5'1       49.1920   65.5840   94.3050 H     1474  SAM1474     0.0395
     39 H5'2       50.5380   64.5980   93.7180 H     1474  SAM1474     0.0395
     40  H4'       47.6750   63.9010   93.2050 H     1474  SAM1474     0.0631
     41  H3'       50.0270   62.4680   92.5810 H     1474  SAM1474     0.0647
     42 HO3'       47.4960   62.8400   91.1700 H     1474  SAM1474     0.2100
     43  H2'       51.0900   63.8750   90.9930 H     1474  SAM1474     0.0663
     44 HO2'       49.1070   62.3580   89.6190 H     1474  SAM1474     0.2101
     45  H1'       48.4850   64.5140   89.7290 H     1474  SAM1474     0.0841
     46  H8        51.3940   66.4100   91.3980 H     1474  SAM1474     0.1149
     47 HN61       50.2220   70.6940   86.9560 H     1474  SAM1474     0.1448
     48 HN62       51.2460   70.2040   88.2640 H     1474  SAM1474     0.1448
     49  H2        47.0560   67.3600   86.5960 H     1474  SAM1474     0.1751
@<TRIPOS>BOND
     1    49    25    1
     2    47    23    1
     3    24    25    2
     4    24    22    2
     5    25    26    2
     6    23    22    1
     7    23    48    1
     8    22    21    1
     9    26    27    2
    10    21    27    1
    11    21    20    2
    12    27    18    1
    13    44    16    1
    14    16    15    1
    15    45    17    1
    16    20    19    2
    17    18    17    1
    18    18    19    1
    19    17    15    1
    20    17    12    1
    21    19    46    1
    22    15    43    1
    23    15    13    1
    24    42    14    1
    25    14    13    1
    26    12    11    1
    27    13    41    1
    28    13    11    1
    29    11    40    1
    30    11    10    1
    31    39    10    1
    32    10    38    1
    33    10     8    1
    34    32     6    1
    35    28     1    1
    36     8     7    1
    37     8     9    1
    38     6    31    1
    39     6     2    1
    40     6     7    1
    41    30     2    1
    42     1     2    1
    43     1    29    1
    44    37     9    1
    45    33     7    1
    46     2     3    1
    47     7    34    1
    48     9    35    1
    49     9    36    1
    50     3     5   ar
    51     3     4   ar
