@<TRIPOS>MOLECULE
4ax9_N5N_H_1.pdb
 39 42 0 0 0
SMALL
GASTEIGER

@<TRIPOS>ATOM
      1  N1        17.7370  -12.9750   21.1270 N.am  1246  N5N1246    -0.2700
      2  C2        18.6830  -13.7220   20.3520 C.3   1246  N5N1246     0.0760
      3  C3        16.8790  -13.6150   22.0190 C.2   1246  N5N1246     0.2442
      4  C4        17.6590  -11.5820   20.8440 C.3   1246  N5N1246     0.2085
      5  C5        20.0700  -13.1470   20.0650 C.3   1246  N5N1246     0.0215
      6  C6        19.9200  -14.3280   20.9770 C.3   1246  N5N1246     0.0215
      7  C7        16.9460  -15.1600   22.1650 C.3   1246  N5N1246     0.1827
      8  O8        16.0580  -12.9750   22.6910 O.2   1246  N5N1246    -0.2733
      9  C9        16.6660  -11.6270   19.6790 C.2   1246  N5N1246     0.3847
     10  N10       16.4850  -15.6460   23.4110 N.3   1246  N5N1246    -0.0694
     11  C11       15.9770  -15.6560   21.0550 C.3   1246  N5N1246     0.1154
     12  O12       16.5900  -10.5570   18.8560 O.co2 1246  N5N1246    -0.2437
     13  O13       15.9200  -12.5530   19.3650 O.co2 1246  N5N1246    -0.2437
     14  S14       17.4120  -16.7460   24.1380 S.O2  1246  N5N1246     0.0772
     15  C15       14.4840  -15.3310   21.3120 C.2   1246  N5N1246     0.2434
     16  C16       18.7430  -15.8260   24.5750 C.ar  1246  N5N1246     0.1236
     17  O17       16.6880  -17.0720   25.2910 O.2   1246  N5N1246    -0.1516
     18  O18       17.6620  -17.6840   23.1350 O.2   1246  N5N1246    -0.1516
     19  N19       13.8870  -14.2270   20.7230 N.am  1246  N5N1246    -0.2053
     20  O20       13.7860  -16.0850   22.0300 O.2   1246  N5N1246    -0.2733
     21  C21       20.0400  -16.0170   24.1530 C.ar  1246  N5N1246     0.0200
     22  C22       18.4750  -14.7500   25.4650 C.ar  1246  N5N1246     0.0200
     23  C23       12.4990  -13.8980   20.8990 C.3   1246  N5N1246     0.1184
     24  C24       21.0570  -15.1400   24.6180 C.ar  1246  N5N1246     0.0013
     25  C25       19.4330  -13.8990   25.9250 C.ar  1246  N5N1246     0.0014
     26  C26       12.1900  -12.4500   21.3330 C.3   1246  N5N1246     0.0591
     27  C27       20.7480  -14.0800   25.5100 C.ar  1246  N5N1246     0.0001
     28  C28       22.3990  -15.2940   24.2120 C.ar  1246  N5N1246     0.0000
     29  C29       12.5760  -12.3160   22.8090 C.3   1246  N5N1246     0.1695
     30  C30       12.9710  -11.4340   20.5020 C.3   1246  N5N1246     0.0084
     31  C31       21.7610  -13.2020   25.9700 C.ar  1246  N5N1246     0.0000
     32  C32       23.3630  -14.4350   24.6580 C.ar  1246  N5N1246     0.0000
     33  N33       12.4380  -10.9660   23.3380 N.pl3 1246  N5N1246    -0.1885
     34  C34       12.6880  -10.0320   21.0300 C.3   1246  N5N1246     0.0407
     35  C35       23.0470  -13.3790   25.5470 C.ar  1246  N5N1246     0.0000
     36  C36       13.0380   -9.9160   22.5120 C.3   1246  N5N1246     0.1678
     37  C37       11.2250  -10.7710   24.1160 C.cat 1246  N5N1246     0.4954
     38  N38       10.4600  -11.9530   24.3330 N.pl3 1246  N5N1246     0.1298
     39  N39       10.8860   -9.6050   24.5720 N.pl3 1246  N5N1246     0.1298
@<TRIPOS>BOND
     1    12     9   ar
     2    13     9   ar
     3     9     4    1
     4     5     2    1
     5     5     6    1
     6     2     6    1
     7     2     1    1
     8    30    34    1
     9    30    26    1
    10    19    23    1
    11    19    15   am
    12     4     1    1
    13    23    26    1
    14    34    36    1
    15    11    15    1
    16    11     7    1
    17     1     3   am
    18    15    20    2
    19    26    29    1
    20     3     7    1
    21     3     8    2
    22     7    10    1
    23    36    33    1
    24    29    33    1
    25    18    14    2
    26    33    37    1
    27    10    14    1
    28    37    38    2
    29    37    39    1
    30    14    16    1
    31    14    17    2
    32    21    16   ar
    33    21    24   ar
    34    28    24   ar
    35    28    32   ar
    36    16    22   ar
    37    24    27   ar
    38    32    35   ar
    39    22    25   ar
    40    27    25   ar
    41    27    31   ar
    42    35    31   ar
