@<TRIPOS>MOLECULE
4axa_RKD_A_1.pdb
 39 41 0 0 0
SMALL
GASTEIGER

@<TRIPOS>ATOM
      1  N1        10.3670    7.2050    3.8540 N.4   1351  RKD1351     0.3804
      2  C2        11.0950    8.1630    2.9800 C.3   1351  RKD1351    -0.0581
      3  C4        11.4510   10.5790    2.2470 C.ar  1351  RKD1351    -0.0135
      4  C5        11.8940   11.8410    2.6190 C.ar  1351  RKD1351    -0.0542
      5  C6        12.4950   12.6720    1.7070 C.ar  1351  RKD1351    -0.0430
      6  C7        12.6610   12.2550    0.4180 C.ar  1351  RKD1351     0.0410
      7  O7        11.2700    9.9320    4.5830 O.3   1351  RKD1351    -0.3812
      8 CL8        13.4240   13.3150   -0.7320 Cl    1351  RKD1351    -0.0835
      9  C9        12.2360   11.0150    0.0160 C.ar  1351  RKD1351    -0.0430
     10  C10       11.6300   10.1750    0.9290 C.ar  1351  RKD1351    -0.0542
     11  C11        9.2450    9.7410    3.2550 C.ar  1351  RKD1351    -0.0135
     12  C12        8.5300    9.4390    2.1050 C.ar  1351  RKD1351    -0.0550
     13  C13        7.1470    9.5100    2.0910 C.ar  1351  RKD1351    -0.0536
     14  C14        6.4360    9.8880    3.2290 C.ar  1351  RKD1351    -0.0149
     15  C15        7.1570   10.1890    4.3810 C.ar  1351  RKD1351    -0.0536
     16  C16        8.5360   10.1170    4.3920 C.ar  1351  RKD1351    -0.0550
     17  C17        4.9570    9.9600    3.2070 C.ar  1351  RKD1351     0.0193
     18  C18        4.1100   10.0260    4.3000 C.ar  1351  RKD1351     0.0568
     19  N19        2.8350   10.0770    3.9340 N.ar  1351  RKD1351    -0.1817
     20  N20        2.8710   10.0410    2.5840 N.ar  1351  RKD1351    -0.2841
     21  C21        4.1250    9.9700    2.1200 C.ar  1351  RKD1351     0.0300
     22  C60       10.7820    9.6600    3.2710 C.3   1351  RKD1351     0.1005
     23  HN1       10.2320    7.5700    4.6900 H     1351  RKD1351    -0.0899
     24 HN1A       10.8530    6.4380    3.9500 H     1351  RKD1351    -0.0899
     25 HN1B        9.5520    6.9900    3.4860 H     1351  RKD1351    -0.0899
     26  H25        2.1230   10.0650    2.0990 H     1351  RKD1351     0.1882
     27  H2        12.0540    8.0100    3.0970 H     1351  RKD1351     0.0083
     28  H2A       10.8590    7.9620    2.0580 H     1351  RKD1351     0.0083
     29  HO7       11.0630   10.6510    4.8030 H     1351  RKD1351     0.2110
     30  H5        11.7810   12.1300    3.5040 H     1351  RKD1351     0.0622
     31  H6        12.7930   13.5260    1.9670 H     1351  RKD1351     0.0632
     32  H9        12.3570   10.7390   -0.8790 H     1351  RKD1351     0.0632
     33  H10       11.3390    9.3290    0.6580 H     1351  RKD1351     0.0622
     34  H16        9.0030   10.3250    5.1820 H     1351  RKD1351     0.0621
     35  H15        6.6970   10.4460    5.1650 H     1351  RKD1351     0.0624
     36  H13        6.6790    9.3010    1.2990 H     1351  RKD1351     0.0624
     37  H12        8.9890    9.1830    1.3270 H     1351  RKD1351     0.0621
     38  H18        4.3840   10.0360    5.2030 H     1351  RKD1351     0.0854
     39  H21        4.3650    9.9360    1.2070 H     1351  RKD1351     0.0830
@<TRIPOS>BOND
     1    32     9    1
     2     8     6    1
     3     9     6   ar
     4     9    10   ar
     5     6     5   ar
     6    33    10    1
     7    10     3   ar
     8    39    21    1
     9    36    13    1
    10    37    12    1
    11     5    31    1
    12     5     4   ar
    13    28     2    1
    14    13    12   ar
    15    13    14   ar
    16    26    20    1
    17    12    11   ar
    18    21    20   ar
    19    21    17   ar
    20     3     4   ar
    21     3    22    1
    22    20    19   ar
    23     4    30    1
    24     2    27    1
    25     2    22    1
    26     2     1    1
    27    17    14    1
    28    17    18   ar
    29    14    15   ar
    30    11    22    1
    31    11    16   ar
    32    22     7    1
    33    25     1    1
    34     1    24    1
    35     1    23    1
    36    19    18   ar
    37    18    38    1
    38    15    16   ar
    39    15    35    1
    40    16    34    1
    41     7    29    1
