@<TRIPOS>MOLECULE
4axb_FP1_A_1.pdb
 10 10 0 0 0
SMALL
GASTEIGER

@<TRIPOS>ATOM
      1  O1       -23.6050  -39.0350  -19.9190 O.3   1535  FP11535    -0.1001
      2  N2       -22.8760  -38.4710  -21.0660 N.4   1535  FP11535    -0.0456
      3  C6       -22.8860  -39.1050  -22.2470 C.3   1535  FP11535     0.1488
      4  C5       -22.1090  -38.4670  -23.1960 C.3   1535  FP11535     0.1153
      5  C4       -21.9100  -37.1070  -23.0710 C.2   1535  FP11535    -0.0052
      6  C3       -21.1440  -36.4150  -23.9940 C.2   1535  FP11535    -0.0016
      7  C2       -20.5750  -37.0960  -25.0370 C.2   1535  FP11535     0.0155
      8  C1       -20.7730  -38.4620  -25.1260 C.2   1535  FP11535     0.0616
      9  N1       -21.5500  -39.1720  -24.2040 N.pl3 1535  FP11535    -0.3012
     10  C7       -21.7690  -40.7130  -24.3700 C.3   1535  FP11535     0.1125
@<TRIPOS>BOND
     1     8     7    2
     2     8     9    1
     3     7     6    1
     4    10     9    1
     5     9     4    1
     6     6     5    2
     7     4     5    1
     8     4     3    1
     9     3     2    1
    10     2     1    1
