@<TRIPOS>MOLECULE
4axb_FUL_A_1.pdb
 10 10 0 0 0
SMALL
GASTEIGER

@<TRIPOS>ATOM
      1  C1        -1.1570  -56.5960  -28.1710 C.3   1550  FUL1550     0.1776
      2  C2        -2.3020  -56.9660  -27.2360 C.3   1550  FUL1550     0.2141
      3  O2        -1.9840  -56.5800  -25.9230 O.3   1550  FUL1550    -0.2176
      4  C3        -3.5230  -56.1710  -27.7230 C.3   1550  FUL1550     0.2172
      5  O3        -4.6910  -56.6360  -27.0620 O.3   1550  FUL1550    -0.2175
      6  C4        -3.6520  -56.1730  -29.2660 C.3   1550  FUL1550     0.2116
      7  O4        -4.5440  -57.1880  -29.6510 O.3   1550  FUL1550    -0.2177
      8  C5        -2.3100  -56.2940  -30.0530 C.3   1550  FUL1550     0.1483
      9  C6        -2.4400  -56.5340  -31.5590 C.3   1550  FUL1550     0.0349
     10  O5        -1.4010  -57.1990  -29.4320 O.3   1550  FUL1550    -0.3508
@<TRIPOS>BOND
     1     9     8    1
     2     8    10    1
     3     8     6    1
     4     7     6    1
     5    10     1    1
     6     6     4    1
     7     1     2    1
     8     4     2    1
     9     4     5    1
    10     2     3    1
