@<TRIPOS>MOLECULE
4axd_ANP_A_1.pdb
 31 33 0 0 0
SMALL
GASTEIGER

@<TRIPOS>ATOM
      1  PG       -22.0810    0.1340  -25.2910 P.3   600  ANP600      0.4884
      2  O1G      -22.9750   -1.1740  -25.0720 O.3   600  ANP600     -0.1240
      3  O2G      -22.8920    1.2880  -26.0730 O.2   600  ANP600     -0.2331
      4  O3G      -20.8560   -0.2770  -26.0330 O.3   600  ANP600     -0.1240
      5  PB       -20.3660    0.1990  -22.7660 P.3   600  ANP600      0.4669
      6  O1B      -20.0660   -1.2330  -22.9660 O.2   600  ANP600     -0.2351
      7  O2B      -18.9790    1.0110  -22.8290 O.3   600  ANP600     -0.1253
      8  N3B      -21.5580    0.8740  -23.8230 N.3   600  ANP600     -0.0163
      9  PA       -21.6900    1.7300  -20.8000 P.3   600  ANP600      0.2220
     10  O1A      -22.9680    1.9250  -21.5760 O.2   600  ANP600     -0.5170
     11  O2A      -20.6550    2.8250  -20.7300 O.3   600  ANP600     -0.4370
     12  O3A      -20.9820    0.3680  -21.2890 O.3   600  ANP600     -0.2360
     13  O5'      -22.0360    1.2980  -19.2950 O.3   600  ANP600     -0.3111
     14  C5'      -22.9210    0.2210  -19.0370 C.3   600  ANP600      0.1813
     15  C4'      -23.9350    0.6410  -17.9800 C.3   600  ANP600      0.1821
     16  O4'      -23.2550    1.0140  -16.7870 O.3   600  ANP600     -0.3135
     17  C3'      -24.7540    1.8630  -18.3720 C.3   600  ANP600      0.2184
     18  O3'      -25.9100    1.5020  -19.1410 O.3   600  ANP600     -0.2174
     19  C2'      -25.0560    2.5330  -17.0430 C.3   600  ANP600      0.2570
     20  O2'      -26.2320    2.0190  -16.4280 O.3   600  ANP600     -0.2130
     21  C1'      -23.8760    2.1350  -16.1670 C.3   600  ANP600      0.3186
     22  N9       -22.9190    3.2610  -16.1100 N.pl3 600  ANP600     -0.1439
     23  C8       -21.9720    3.5660  -17.0180 C.3   600  ANP600      0.3377
     24  N7       -21.2850    4.6590  -16.6340 N.2   600  ANP600     -0.2095
     25  C5       -21.7950    5.0710  -15.4640 C.2   600  ANP600      0.2526
     26  C6       -21.5290    6.1610  -14.5030 C.2   600  ANP600      0.4393
     27  N6       -20.5630    7.0790  -14.7180 N.pl3 600  ANP600      0.2180
     28  N1       -22.2980    6.2140  -13.3930 N.2   600  ANP600      0.0021
     29  C2       -23.2830    5.3240  -13.1600 C.3   600  ANP600      0.5254
     30  N3       -23.5760    4.3040  -13.9850 N.2   600  ANP600     -0.0055
     31  C4       -22.8760    4.1430  -15.1280 C.2   600  ANP600      0.3518
@<TRIPOS>BOND
     1     3     1    2
     2     4     1    1
     3     1     2    1
     4     1     8    1
     5     8     5    1
     6     6     5    2
     7     7     5    1
     8     5    12    1
     9    10     9    2
    10    12     9    1
    11     9    11    1
    12     9    13    1
    13    13    14    1
    14    18    17    1
    15    14    15    1
    16    17    15    1
    17    17    19    1
    18    15    16    1
    19    19    20    1
    20    19    21    1
    21    23    24    1
    22    23    22    1
    23    16    21    1
    24    24    25    2
    25    21    22    1
    26    22    31    1
    27    25    31    1
    28    25    26    1
    29    31    30    2
    30    27    26    1
    31    26    28    2
    32    30    29    1
    33    28    29    1
