@<TRIPOS>MOLECULE
4axe_ADP_A_1.pdb
 27 29 0 0 0
SMALL
GASTEIGER

@<TRIPOS>ATOM
      1  PB       -20.4840    0.2680  -22.8340 P.3   1435  ADP1435     0.5373
      2  O1B      -21.7450    0.5700  -23.6170 O.2   1435  ADP1435    -0.2221
      3  O2B      -19.3740    1.2810  -23.0070 O.3   1435  ADP1435    -0.1143
      4  O3B      -20.0140   -1.1670  -22.9500 O.3   1435  ADP1435    -0.1143
      5  PA       -21.4200    1.8080  -20.6230 P.3   1435  ADP1435     0.2231
      6  O1A      -20.1860    2.6220  -20.3180 O.3   1435  ADP1435    -0.4370
      7  O2A      -22.5590    2.4030  -21.4170 O.2   1435  ADP1435    -0.5169
      8  O3A      -20.9390    0.4140  -21.2880 O.3   1435  ADP1435    -0.2261
      9  O5'      -22.0260    1.3230  -19.2160 O.3   1435  ADP1435    -0.3111
     10  C5'      -23.0480    0.3330  -19.1720 C.3   1435  ADP1435     0.1813
     11  C4'      -24.0350    0.6510  -18.0590 C.3   1435  ADP1435     0.1821
     12  O4'      -23.3540    1.0020  -16.8450 O.3   1435  ADP1435    -0.3135
     13  C3'      -24.9100    1.8400  -18.4250 C.3   1435  ADP1435     0.2184
     14  O3'      -26.1070    1.4230  -19.1010 O.3   1435  ADP1435    -0.2174
     15  C2'      -25.1650    2.5210  -17.0910 C.3   1435  ADP1435     0.2570
     16  O2'      -26.3350    1.9850  -16.4790 O.3   1435  ADP1435    -0.2130
     17  C1'      -23.9790    2.1360  -16.2280 C.3   1435  ADP1435     0.3186
     18  N9       -23.0430    3.2880  -16.1290 N.pl3 1435  ADP1435    -0.1439
     19  C8       -22.0670    3.6050  -17.0050 C.3   1435  ADP1435     0.3377
     20  N7       -21.3990    4.7200  -16.6120 N.2   1435  ADP1435    -0.2095
     21  C5       -21.9480    5.1400  -15.4580 C.2   1435  ADP1435     0.2526
     22  C6       -21.7210    6.2550  -14.5040 C.2   1435  ADP1435     0.4393
     23  N6       -20.7520    7.1850  -14.6930 N.pl3 1435  ADP1435     0.2180
     24  N1       -22.5240    6.3160  -13.4190 N.2   1435  ADP1435     0.0021
     25  C2       -23.5030    5.4110  -13.1990 C.3   1435  ADP1435     0.5254
     26  N3       -23.7610    4.3770  -14.0230 N.2   1435  ADP1435    -0.0055
     27  C4       -23.0310    4.1900  -15.1470 C.2   1435  ADP1435     0.3518
@<TRIPOS>BOND
     1     2     1    2
     2     3     1    1
     3     4     1    1
     4     1     8    1
     5     7     5    2
     6     8     5    1
     7     5     6    1
     8     5     9    1
     9     9    10    1
    10    10    11    1
    11    14    13    1
    12    13    11    1
    13    13    15    1
    14    11    12    1
    15    15    16    1
    16    15    17    1
    17    19    20    1
    18    19    18    1
    19    12    17    1
    20    20    21    2
    21    17    18    1
    22    18    27    1
    23    21    27    1
    24    21    22    1
    25    27    26    2
    26    23    22    1
    27    22    24    2
    28    26    25    1
    29    24    25    1
