@<TRIPOS>MOLECULE
4axf_ANP_A_1.pdb
 31 33 0 0 0
SMALL
GASTEIGER

@<TRIPOS>ATOM
      1  PG       -19.0750   -9.0120  -14.1920 P.3   600  ANP600      0.4884
      2  O1G      -18.8650   -7.6620  -13.5210 O.3   600  ANP600     -0.1240
      3  O2G      -17.9390   -9.9930  -13.9820 O.2   600  ANP600     -0.2331
      4  O3G      -20.4270   -9.6510  -13.9230 O.3   600  ANP600     -0.1240
      5  PB       -19.7870   -7.1720  -16.5530 P.3   600  ANP600      0.4669
      6  O1B      -21.2660   -7.1720  -16.2430 O.2   600  ANP600     -0.2351
      7  O2B      -18.9770   -5.9970  -16.0600 O.3   600  ANP600     -0.1253
      8  N3B      -19.0660   -8.6450  -15.9150 N.3   600  ANP600     -0.0163
      9  PA       -18.3060   -7.6640  -18.9560 P.3   600  ANP600      0.2220
     10  O1A      -17.7840   -8.9630  -18.3710 O.3   600  ANP600     -0.4370
     11  O2A      -17.3920   -6.4620  -19.0820 O.2   600  ANP600     -0.5170
     12  O3A      -19.6480   -7.1980  -18.1650 O.3   600  ANP600     -0.2360
     13  O5'      -18.8890   -7.9950  -20.4230 O.3   600  ANP600     -0.3111
     14  C5'      -19.9060   -8.9890  -20.5620 C.3   600  ANP600      0.1813
     15  C4'      -19.6340   -9.8740  -21.7700 C.3   600  ANP600      0.1821
     16  O4'      -19.5810   -9.0790  -22.9570 O.3   600  ANP600     -0.3135
     17  C3'      -18.2960  -10.5840  -21.6620 C.3   600  ANP600      0.2184
     18  O3'      -18.4600  -11.8930  -21.1150 O.3   600  ANP600     -0.2174
     19  C2'      -17.7800  -10.6140  -23.0880 C.3   600  ANP600      0.2570
     20  O2'      -18.1380  -11.8390  -23.7360 O.3   600  ANP600     -0.2130
     21  C1'      -18.4960   -9.4810  -23.8000 C.3   600  ANP600      0.3186
     22  N9       -17.5430   -8.3630  -24.0280 N.pl3 600  ANP600     -0.1439
     23  C8       -17.3050   -7.3340  -23.1890 C.3   600  ANP600      0.3377
     24  N7       -16.3710   -6.4830  -23.6940 N.2   600  ANP600     -0.2095
     25  C5       -15.9890   -6.9730  -24.8920 C.2   600  ANP600      0.2526
     26  C6       -15.0340   -6.5740  -25.9640 C.2   600  ANP600      0.4393
     27  N6       -14.2860   -5.4490  -25.8520 N.pl3 600  ANP600      0.2180
     28  N1       -14.9440   -7.3670  -27.0600 N.2   600  ANP600      0.0021
     29  C2       -15.6880   -8.4870  -27.1890 C.3   600  ANP600      0.5254
     30  N3       -16.5680   -8.9150  -26.2580 N.2   600  ANP600     -0.0055
     31  C4       -16.7640   -8.2150  -25.1060 C.2   600  ANP600      0.3518
@<TRIPOS>BOND
     1    29    28    1
     2    29    30    1
     3    28    26    2
     4    30    31    2
     5    26    27    1
     6    26    25    1
     7    31    25    1
     8    31    22    1
     9    25    24    2
    10    22    21    1
    11    22    23    1
    12    21    19    1
    13    21    16    1
    14    20    19    1
    15    24    23    1
    16    19    17    1
    17    16    15    1
    18    15    17    1
    19    15    14    1
    20    17    18    1
    21    14    13    1
    22    13     9    1
    23    11     9    2
    24     9    10    1
    25     9    12    1
    26    12     5    1
    27     5     6    2
    28     5     7    1
    29     5     8    1
    30     8     1    1
    31     1     3    2
    32     1     4    1
    33     1     2    1
