@<TRIPOS>MOLECULE
4axf_4MY_A_1.pdb
 28 28 0 0 0
SMALL
GASTEIGER

@<TRIPOS>ATOM
      1  C1       -20.7670  -12.8340  -10.7280 C.3   900  4MY900      0.2146
      2  C2       -20.4560  -11.3860  -11.1180 C.3   900  4MY900      0.2146
      3  C3       -20.0740  -10.5730   -9.8820 C.3   900  4MY900      0.1891
      4  P3       -20.6040   -7.9950  -10.2880 P.3   900  4MY900      0.5327
      5  C4       -18.9430  -11.2150   -9.0780 C.3   900  4MY900      0.1864
      6  P4       -17.3380   -9.9670   -7.3540 P.3   900  4MY900      0.5327
      7  C5       -19.1640  -12.7030   -8.7720 C.3   900  4MY900      0.1864
      8  P5       -17.8350  -14.1110   -6.9120 P.3   900  4MY900      0.5327
      9  C6       -19.5700  -13.4870  -10.0240 C.3   900  4MY900      0.1891
     10  P6       -19.1450  -16.1190  -10.3810 P.3   900  4MY900      0.5327
     11  O11      -21.1570  -13.5790  -11.8910 O.3   900  4MY900     -0.2176
     12  O12      -19.3890  -11.3400  -12.0790 O.3   900  4MY900     -0.2176
     13  O13      -19.6250   -9.2810  -10.2830 O.3   900  4MY900     -0.2674
     14  O14      -18.7850  -10.4610   -7.8760 O.3   900  4MY900     -0.2675
     15  O15      -17.9410  -13.2490   -8.2740 O.3   900  4MY900     -0.2675
     16  O16      -19.8560  -14.8440   -9.6750 O.3   900  4MY900     -0.2674
     17  O23      -21.1590   -8.0160  -11.6940 O.2   900  4MY900     -0.2224
     18  O24      -17.5060   -8.4990   -7.0180 O.3   900  4MY900     -0.1145
     19  O25      -18.6650  -15.3500   -7.1390 O.2   900  4MY900     -0.2224
     20  O26      -20.2270  -16.6810  -11.2820 O.2   900  4MY900     -0.2224
     21  O33      -21.6170   -8.2840   -9.1940 O.3   900  4MY900     -0.1145
     22  O34      -16.4060  -10.2100   -8.5140 O.2   900  4MY900     -0.2224
     23  O35      -16.3480  -14.3860   -6.8070 O.3   900  4MY900     -0.1145
     24  O36      -17.9280  -15.5870  -11.1070 O.3   900  4MY900     -0.1145
     25  O43      -19.6790   -6.8200  -10.0230 O.3   900  4MY900     -0.1145
     26  O44      -17.0690  -10.8530   -6.1560 O.3   900  4MY900     -0.1145
     27  O45      -18.4180  -13.2200   -5.8390 O.3   900  4MY900     -0.1145
     28  O46      -18.7960  -17.0110   -9.2160 O.3   900  4MY900     -0.1145
@<TRIPOS>BOND
     1    12     2    1
     2    11     1    1
     3    17     4    2
     4    20    10    2
     5     2     1    1
     6     2     3    1
     7    24    10    1
     8     1     9    1
     9    10    16    1
    10    10    28    1
    11     4    13    1
    12     4    25    1
    13     4    21    1
    14    13     3    1
    15     9    16    1
    16     9     7    1
    17     3     5    1
    18     5     7    1
    19     5    14    1
    20     7    15    1
    21    22     6    2
    22    15     8    1
    23    14     6    1
    24     6    18    1
    25     6    26    1
    26    19     8    2
    27     8    23    1
    28     8    27    1
