@<TRIPOS>MOLECULE
4ay1_NAG_A_1.pdb
 14 14 0 0 0
SMALL
GASTEIGER

@<TRIPOS>ATOM
      1  C1        93.3280  144.8410   55.0770 C.3   400  NAG400      0.1665
      2  C2        93.1610  143.3200   55.1230 C.3   400  NAG400      0.1576
      3  C3        94.4790  142.6810   55.5290 C.3   400  NAG400      0.2069
      4  C4        95.6020  143.2030   54.6140 C.3   400  NAG400      0.2134
      5  C5        95.6350  144.7270   54.6360 C.3   400  NAG400      0.1809
      6  C6        96.7850  145.3140   53.7430 C.3   400  NAG400      0.2141
      7  C7        90.9150  142.4450   55.6450 C.2   400  NAG400      0.2420
      8  C8        89.8840  142.1170   56.7740 C.3   400  NAG400      0.0964
      9  N2        92.0860  142.9260   56.0560 N.am  400  NAG400     -0.2019
     10  O3        94.3580  141.2500   55.4240 O.3   400  NAG400     -0.2184
     11  O4        96.8270  142.7620   55.1600 O.3   400  NAG400     -0.2176
     12  O5        94.3650  145.1700   54.1580 O.3   400  NAG400     -0.3489
     13  O6        96.7400  146.7630   53.8460 O.3   400  NAG400     -0.2176
     14  O7        90.6400  142.2380   54.4670 O.2   400  NAG400     -0.2733
@<TRIPOS>BOND
     1     6    13    1
     2     6     5    1
     3    12     5    1
     4    12     1    1
     5    14     7    2
     6     4     5    1
     7     4    11    1
     8     4     3    1
     9     1     2    1
    10     2     3    1
    11     2     9    1
    12    10     3    1
    13     7     9   am
    14     7     8    1
