@<TRIPOS>MOLECULE
4ay2_ADP_A_1.pdb
 27 29 0 0 0
SMALL
GASTEIGER

@<TRIPOS>ATOM
      1  O1A      -12.4270    1.3680  -14.9330 O.2   1924  ADP1924    -0.5169
      2  PA       -12.7180    0.9010  -13.5210 P.3   1924  ADP1924     0.2231
      3  O2A      -13.5200    1.8270  -12.6460 O.3   1924  ADP1924    -0.4370
      4  O3A      -11.3670    0.4230  -12.7900 O.3   1924  ADP1924    -0.2261
      5  PB       -10.0440    1.3230  -12.8340 P.3   1924  ADP1924     0.5373
      6  O1B       -9.7340    1.5650  -14.2940 O.2   1924  ADP1924    -0.2221
      7  O2B       -9.0190    0.4770  -12.1260 O.3   1924  ADP1924    -0.1143
      8  O3B      -10.4460    2.5550  -12.0720 O.3   1924  ADP1924    -0.1143
      9  O5'      -13.4320   -0.5330  -13.4800 O.3   1924  ADP1924    -0.3111
     10  C5'      -14.0180   -1.0070  -12.2630 C.3   1924  ADP1924     0.1813
     11  C4'      -15.2250   -1.8480  -12.6390 C.3   1924  ADP1924     0.1821
     12  C3'      -16.1510   -1.0460  -13.5390 C.3   1924  ADP1924     0.2184
     13  O3'      -16.2780   -1.7150  -14.8000 O.3   1924  ADP1924    -0.2174
     14  C2'      -17.4760   -0.9610  -12.8180 C.3   1924  ADP1924     0.2570
     15  O2'      -18.5020   -1.4690  -13.6780 O.3   1924  ADP1924    -0.2130
     16  C1'      -17.2930   -1.7590  -11.5220 C.3   1924  ADP1924     0.3186
     17  O4'      -15.9510   -2.2530  -11.4790 O.3   1924  ADP1924    -0.3135
     18  N9       -17.5030   -0.8280  -10.3820 N.pl3 1924  ADP1924    -0.1439
     19  C4       -18.3120   -1.0070   -9.3290 C.2   1924  ADP1924     0.3518
     20  C5       -18.1840    0.1910   -8.4820 C.2   1924  ADP1924     0.2526
     21  N7       -17.3050    0.9970   -9.1060 N.2   1924  ADP1924    -0.2095
     22  C8       -16.9020    0.3730  -10.2450 C.3   1924  ADP1924     0.3377
     23  N3       -19.1560   -1.9840   -8.9210 N.2   1924  ADP1924    -0.0055
     24  C2       -19.8630   -1.8800   -7.7730 C.3   1924  ADP1924     0.5254
     25  N1       -19.7940   -0.8180   -6.9540 N.2   1924  ADP1924     0.0021
     26  C6       -19.0000    0.2350   -7.2380 C.2   1924  ADP1924     0.4393
     27  N6       -18.9630    1.2870   -6.3920 N.pl3 1924  ADP1924     0.2180
@<TRIPOS>BOND
     1     1     2    2
     2    13    12    1
     3     6     5    2
     4    15    14    1
     5    12    14    1
     6    12    11    1
     7     2     9    1
     8     2     4    1
     9     2     3    1
    10     9    10    1
    11     5     4    1
    12     5     7    1
    13     5     8    1
    14    14    16    1
    15    11    10    1
    16    11    17    1
    17    16    17    1
    18    16    18    1
    19    18    22    1
    20    18    19    1
    21    22    21    1
    22    19    23    2
    23    19    20    1
    24    21    20    2
    25    23    24    1
    26    20    26    1
    27    24    25    1
    28    26    25    2
    29    26    27    1
