@<TRIPOS>MOLECULE
4ay5_NAG_I_1.pdb
 14 14 0 0 0
SMALL
GASTEIGER

@<TRIPOS>ATOM
      1  C1       134.0330  -29.3980   36.9840 C.3   1202  NAG1202     0.1665
      2  C2       133.4270  -29.1570   38.3870 C.3   1202  NAG1202     0.1576
      3  C3       134.4960  -28.9270   39.5120 C.3   1202  NAG1202     0.2069
      4  C4       135.6180  -29.9290   39.3280 C.3   1202  NAG1202     0.2134
      5  C5       136.2180  -29.8820   37.9630 C.3   1202  NAG1202     0.1809
      6  C6       137.0470  -31.1720   37.7890 C.3   1202  NAG1202     0.2141
      7  C7       131.1640  -28.2850   38.5000 C.2   1202  NAG1202     0.2420
      8  C8       130.2480  -27.0750   38.3270 C.3   1202  NAG1202     0.0964
      9  N2       132.4720  -28.0520   38.2690 N.am  1202  NAG1202    -0.2019
     10  O3       134.0040  -29.0710   40.9610 O.3   1202  NAG1202    -0.2184
     11  O4       136.6090  -29.6980   40.2980 O.3   1202  NAG1202    -0.2176
     12  O5       135.2030  -30.1570   37.0340 O.3   1202  NAG1202    -0.3489
     13  O6       136.1680  -32.3390   37.7090 O.3   1202  NAG1202    -0.2176
     14  O7       130.6960  -29.3860   38.8210 O.2   1202  NAG1202    -0.2733
@<TRIPOS>BOND
     1     1    12    1
     2     1     2    1
     3    12     5    1
     4    13     6    1
     5     6     5    1
     6     5     4    1
     7     9     2    1
     8     9     7   am
     9     8     7    1
    10     2     3    1
    11     7    14    2
    12     4     3    1
    13     4    11    1
    14     3    10    1
