@<TRIPOS>MOLECULE
4ay5_UDP_A_1.pdb
 25 26 0 0 0
SMALL
GASTEIGER

@<TRIPOS>ATOM
      1  N1       137.3800  -22.6440   29.7990 N.am  1201  UDP1201    -0.1766
      2  C2       138.1520  -22.5080   28.6070 C.1   1201  UDP1201     0.2845
      3  N3       137.9130  -21.4560   27.8250 N.2   1201  UDP1201    -0.2452
      4  C4       136.9720  -20.5550   28.1270 C.1   1201  UDP1201     0.2182
      5  C5       136.2050  -20.6700   29.2730 C.2   1201  UDP1201     0.1242
      6  C6       136.4230  -21.7490   30.1080 C.2   1201  UDP1201     0.0929
      7  O2       139.0610  -23.3250   28.2540 O.2   1201  UDP1201    -0.1918
      8  O4       136.7940  -19.5910   27.3630 O.2   1201  UDP1201    -0.2085
      9  C1'      137.5560  -23.8310   30.6600 C.3   1201  UDP1201     0.2401
     10  C2'      137.9690  -23.7090   32.1170 C.3   1201  UDP1201     0.2319
     11  O2'      139.3450  -23.3690   32.2860 O.3   1201  UDP1201    -0.2157
     12  C3'      137.7130  -25.1490   32.5180 C.3   1201  UDP1201     0.2158
     13  C4'      136.3160  -25.3480   31.9250 C.3   1201  UDP1201     0.1799
     14  O4'      136.3160  -24.5770   30.7280 O.3   1201  UDP1201    -0.3320
     15  O3'      138.7020  -26.0360   31.8910 O.3   1201  UDP1201    -0.2175
     16  C5'      135.1710  -24.8570   32.7960 C.3   1201  UDP1201     0.1813
     17  O5'      134.3210  -25.9620   33.1280 O.3   1201  UDP1201    -0.3111
     18  PA       133.4040  -25.8010   34.4260 P.3   1201  UDP1201     0.2231
     19  O1A      132.6430  -24.4370   34.4220 O.2   1201  UDP1201    -0.5169
     20  O2A      132.7100  -27.1280   34.6170 O.3   1201  UDP1201    -0.4370
     21  O3A      134.5940  -25.6460   35.5230 O.3   1201  UDP1201    -0.2261
     22  PB       134.3230  -25.0810   37.0130 P.3   1201  UDP1201     0.5373
     23  O1B      134.8340  -23.6610   37.0090 O.2   1201  UDP1201    -0.2221
     24  O2B      135.3100  -26.0000   37.6550 O.3   1201  UDP1201    -0.1143
     25  O3B      132.8210  -25.3330   37.2800 O.3   1201  UDP1201    -0.1143
@<TRIPOS>BOND
     1     8     4    2
     2     3     4    2
     3     3     2    2
     4     4     5    1
     5     7     2    2
     6     2     1   am
     7     5     6    2
     8     1     6    1
     9     1     9    1
    10     9    14    1
    11     9    10    1
    12    14    13    1
    13    15    12    1
    14    13    12    1
    15    13    16    1
    16    10    11    1
    17    10    12    1
    18    16    17    1
    19    17    18    1
    20    19    18    2
    21    18    20    1
    22    18    21    1
    23    21    22    1
    24    23    22    2
    25    22    25    1
    26    22    24    1
