@<TRIPOS>MOLECULE
4ay6_12V_A_1.pdb
 39 41 0 0 0
SMALL
GASTEIGER

@<TRIPOS>ATOM
      1  N1       137.5090  -22.9200   29.8180 N.am  1200  12V1200    -0.1766
      2  C2       138.2490  -22.7280   28.6950 C.1   1200  12V1200     0.2845
      3  O2       139.1520  -23.4800   28.3410 O.2   1200  12V1200    -0.1918
      4  N3       138.0170  -21.6270   27.8940 N.2   1200  12V1200    -0.2452
      5  C4       137.0050  -20.7190   28.2300 C.1   1200  12V1200     0.2182
      6  O4       136.8170  -19.7650   27.4890 O.2   1200  12V1200    -0.2085
      7  C5       136.2270  -20.8880   29.3650 C.2   1200  12V1200     0.1242
      8  C6       136.4740  -21.9990   30.1580 C.2   1200  12V1200     0.0929
      9  PA       133.4920  -26.4350   34.1260 P.3   1200  12V1200     0.2189
     10  PB       134.1170  -25.6700   36.8450 P.3   1200  12V1200     0.2196
     11  C1'      134.0650  -28.2120   37.3610 C.3   1200  12V1200     0.1916
     12  O1'      134.6280  -26.9020   37.6800 O.3   1200  12V1200    -0.3033
     13  O1A      132.9710  -27.7950   34.3150 O.3   1200  12V1200    -0.4371
     14  C1B      137.7390  -24.1390   30.6670 C.3   1200  12V1200     0.2401
     15  O1B      134.8560  -24.4560   37.2570 O.3   1200  12V1200    -0.4371
     16  C2'      133.3600  -28.8890   38.5470 C.3   1200  12V1200     0.1659
     17  N2'      132.2810  -27.9860   38.9710 N.am  1200  12V1200    -0.2010
     18  O2'      139.4080  -23.6710   32.2930 O.3   1200  12V1200    -0.2157
     19  O2A      132.5150  -25.3080   34.0500 O.2   1200  12V1200    -0.5170
     20  C2B      138.0360  -23.9710   32.1330 C.3   1200  12V1200     0.2319
     21  O2B      132.6210  -25.7000   36.9200 O.2   1200  12V1200    -0.5170
     22  C3'      134.3600  -29.1890   39.6790 C.3   1200  12V1200     0.2061
     23  O3'      133.6590  -29.5710   40.8850 O.3   1200  12V1200    -0.2184
     24  O3A      134.5830  -26.1150   35.3550 O.3   1200  12V1200    -0.2703
     25  C3B      137.7830  -25.3860   32.5910 C.3   1200  12V1200     0.2158
     26  O3B      138.7860  -26.2890   32.0340 O.3   1200  12V1200    -0.2175
     27  C4'      135.3930  -30.2790   39.2950 C.3   1200  12V1200     0.1964
     28  O4'      136.3270  -30.4040   40.3810 O.3   1200  12V1200    -0.2193
     29  C4B      136.4900  -25.6560   31.9000 C.3   1200  12V1200     0.1799
     30  O4B      136.4580  -24.7550   30.7610 O.3   1200  12V1200    -0.3320
     31  C5'      136.2030  -29.9060   38.0600 C.3   1200  12V1200     0.1158
     32  S5'      135.3510  -29.2340   36.6730 S.3   1200  12V1200    -0.1053
     33  C5B      135.3200  -25.3010   32.7830 C.3   1200  12V1200     0.1813
     34  O5B      134.4580  -26.4210   32.8820 O.3   1200  12V1200    -0.3112
     35  C6'      136.6210  -31.1440   37.2740 C.3   1200  12V1200     0.1955
     36  O6'      136.8770  -32.2480   38.1380 O.3   1200  12V1200    -0.2194
     37  C7'      131.0250  -28.1890   38.5720 C.2   1200  12V1200     0.2420
     38  O7'      130.6710  -29.1490   37.8910 O.2   1200  12V1200    -0.2733
     39  C8'      130.0110  -27.1630   39.0590 C.3   1200  12V1200     0.0964
@<TRIPOS>BOND
     1     6     5    2
     2     4     5    2
     3     4     2    2
     4     5     7    1
     5     3     2    2
     6     2     1   am
     7     7     8    2
     8     1     8    1
     9     1    14    1
    10    14    30    1
    11    14    20    1
    12    30    29    1
    13    29    25    1
    14    29    33    1
    15    26    25    1
    16    20    18    1
    17    20    25    1
    18    33    34    1
    19    34     9    1
    20    19     9    2
    21     9    13    1
    22     9    24    1
    23    24    10    1
    24    32    11    1
    25    32    31    1
    26    10    21    2
    27    10    15    1
    28    10    12    1
    29    35    31    1
    30    35    36    1
    31    11    12    1
    32    11    16    1
    33    38    37    2
    34    31    27    1
    35    16    17    1
    36    16    22    1
    37    37    17   am
    38    37    39    1
    39    27    22    1
    40    27    28    1
    41    22    23    1
