@<TRIPOS>MOLECULE
4ayj_BGC_A_1.pdb
 12 12 0 0 0
SMALL
GASTEIGER

@<TRIPOS>ATOM
      1  C2        30.2290   28.6330   18.3190 C.3   1232  BGC1232     0.2434
      2  C3        29.4860   27.4680   19.0410 C.3   1232  BGC1232     0.2199
      3  C4        30.0460   27.2370   20.4500 C.3   1232  BGC1232     0.2144
      4  C5        30.2260   28.5320   21.2710 C.3   1232  BGC1232     0.1836
      5  C6        31.3520   28.3910   22.2850 C.3   1232  BGC1232     0.2142
      6  C1        29.9220   29.8520   19.1990 C.3   1232  BGC1232     0.3024
      7  O1        30.3560   31.0230   18.5620 O.3   1232  BGC1232    -0.1869
      8  O2        29.7760   28.7880   16.9740 O.3   1232  BGC1232    -0.2148
      9  O3        29.6060   26.2880   18.2760 O.3   1232  BGC1232    -0.2174
     10  O4        29.1350   26.3390   21.2430 O.3   1232  BGC1232    -0.2176
     11  O5        30.6880   29.6400   20.4410 O.3   1232  BGC1232    -0.3236
     12  O6        30.8100   28.0130   23.5560 O.3   1232  BGC1232    -0.2176
@<TRIPOS>BOND
     1     8     1    1
     2     9     2    1
     3     1     2    1
     4     1     6    1
     5     7     6    1
     6     2     3    1
     7     6    11    1
     8    11     4    1
     9     3    10    1
    10     3     4    1
    11     4     5    1
    12     5    12    1
