@<TRIPOS>MOLECULE
4ayj_GAL_A_1.pdb
 11 11 0 0 0
SMALL
GASTEIGER

@<TRIPOS>ATOM
      1  C1        29.2550   24.8660   21.0960 C.3   1233  GAL1233     0.1777
      2  C2        28.3310   24.1920   22.0650 C.3   1233  GAL1233     0.2141
      3  C4        27.9690   22.3830   20.2840 C.3   1233  GAL1233     0.2142
      4  C5        28.9040   23.2320   19.3690 C.3   1233  GAL1233     0.1810
      5  C6        28.4840   23.2150   17.9420 C.3   1233  GAL1233     0.2141
      6  O2        28.7740   24.4320   23.4130 O.3   1233  GAL1233    -0.2176
      7  O3        27.5860   21.9130   22.6400 O.3   1233  GAL1233    -0.2175
      8  O4        26.6180   22.7890   20.0700 O.3   1233  GAL1233    -0.2176
      9  O5        28.8840   24.6100   19.7470 O.3   1233  GAL1233    -0.3481
     10  O6        29.7060   23.0080   17.2270 O.3   1233  GAL1233    -0.2176
     11  C3        28.4500   22.6290   21.7200 C.3   1233  GAL1233     0.2173
@<TRIPOS>BOND
     1    10     5    1
     2     5     4    1
     3     4     9    1
     4     4     3    1
     5     9     1    1
     6     8     3    1
     7     3    11    1
     8     1     2    1
     9    11     2    1
    10    11     7    1
    11     2     6    1
