@<TRIPOS>MOLECULE
4ayk_CGS_A_1.pdb
 50 51 0 0 0
SMALL
GASTEIGER

@<TRIPOS>ATOM
      1  N1         3.2700   -3.9190    0.2570 N.3   173  CGS173     -0.1632
      2  CC         3.7400   -5.2430    0.8100 C.3   173  CGS173      0.0375
      3  CA         1.8430   -3.6230   -0.1250 C.3   173  CGS173      0.1121
      4  S4         4.5000   -2.9900   -0.6310 S.O2  173  CGS173      0.0616
      5  C5         4.1150   -5.3580    2.2810 C.3   173  CGS173      0.0658
      6  CD         5.0340   -4.4200    2.9010 C.2   173  CGS173     -0.0668
      7  CE         5.3930   -4.5240    4.2980 C.2   173  CGS173     -0.0347
      8  CZ         4.8100   -5.5890    5.0570 C.2   173  CGS173      0.0772
      9  N11        3.9310   -6.5000    4.4980 N.2   173  CGS173     -0.4231
     10  CY         3.5940   -6.3860    3.1450 C.2   173  CGS173      0.0676
     11  C17        4.7250   -3.6850   -2.2550 C.ar  173  CGS173      0.1057
     12  CE2        5.6510   -4.7820   -2.4760 C.ar  173  CGS173     -0.0319
     13  CD2        5.7890   -5.3680   -3.8000 C.ar  173  CGS173     -0.0181
     14  C20        5.0000   -4.8630   -4.9300 C.ar  173  CGS173      0.1202
     15  CD1        4.0750   -3.7520   -4.6810 C.ar  173  CGS173     -0.0181
     16  CE1        3.9460   -3.1740   -3.3580 C.ar  173  CGS173     -0.0319
     17  O27        5.1270   -5.4270   -6.2150 O.3   173  CGS173     -0.4951
     18  COM        6.1390   -4.8800   -7.0610 C.3   173  CGS173      0.0788
     19  O32        5.6830   -3.1650    0.1540 O.2   173  CGS173     -0.1528
     20  O33        3.9120   -1.6900   -0.7440 O.2   173  CGS173     -0.1528
     21  C34        1.4250   -4.4440   -1.3640 C.2   173  CGS173      0.2546
     22  N35        1.2060   -3.7420   -2.4690 N.am  173  CGS173     -0.1961
     23  CB         0.7150   -3.5490    0.9440 C.3   173  CGS173     -0.0209
     24  CG2       -0.0880   -2.2510    0.8890 C.3   173  CGS173     -0.0607
     25  CG1        1.2110   -3.6980    2.3790 C.3   173  CGS173     -0.0607
     26  O47        1.2870   -5.6700   -1.3510 O.2   173  CGS173     -0.2719
     27  O48        0.8190   -4.3910   -3.6280 O.3   173  CGS173     -0.2951
     28  HC1        2.9620   -5.9770    0.5940 H     173  CGS173      0.0457
     29  HC2        4.5980   -5.5530    0.2120 H     173  CGS173      0.0457
     30  HA         1.8750   -2.5960   -0.4920 H     173  CGS173      0.0579
     31  HD         5.4660   -3.6220    2.3180 H     173  CGS173      0.0583
     32  HE         6.0780   -3.8240    4.7590 H     173  CGS173      0.0640
     33  HZ         5.0330   -5.7240    6.0990 H     173  CGS173      0.0969
     34  HY         2.9100   -7.1110    2.7500 H     173  CGS173      0.0931
     35  HE2        6.2330   -5.1580   -1.6500 H     173  CGS173      0.0638
     36  HD2        6.4870   -6.1880   -3.9380 H     173  CGS173      0.0655
     37  HD1        3.4710   -3.3430   -5.4800 H     173  CGS173      0.0655
     38  HE1        3.2650   -2.3550   -3.1820 H     173  CGS173      0.0638
     39 HOM1        6.6020   -4.0060   -6.6070 H     173  CGS173      0.0660
     40 HOM2        6.9250   -5.6100   -7.2550 H     173  CGS173      0.0660
     41 HOM3        5.7260   -4.5760   -8.0220 H     173  CGS173      0.0660
     42  H49        1.3340   -2.7410   -2.4140 H     173  CGS173      0.1822
     43  HB         0.0100   -4.3530    0.7790 H     173  CGS173      0.0316
     44 HG21        0.5090   -1.4100    1.2350 H     173  CGS173      0.0233
     45 HG22       -0.9740   -2.3170    1.5170 H     173  CGS173      0.0233
     46 HG23       -0.4110   -2.0390   -0.1280 H     173  CGS173      0.0233
     47 HG11        2.1890   -3.2370    2.5020 H     173  CGS173      0.0233
     48 HG12        1.2970   -4.7480    2.6510 H     173  CGS173      0.0233
     49 HG13        0.5240   -3.2240    3.0770 H     173  CGS173      0.0233
     50  H50        0.9010   -5.3590   -3.5580 H     173  CGS173      0.2414
@<TRIPOS>BOND
     1    41    18    1
     2    40    18    1
     3    18    39    1
     4    18    17    1
     5    17    14    1
     6    37    15    1
     7    14    15   ar
     8    14    13   ar
     9    15    16   ar
    10    36    13    1
    11    13    12   ar
    12    27    50    1
    13    27    22    1
    14    16    38    1
    15    16    11   ar
    16    12    11   ar
    17    12    35    1
    18    22    42    1
    19    22    21   am
    20    11     4    1
    21    21    26    2
    22    21     3    1
    23    20     4    2
    24     4    19    2
    25     4     1    1
    26    30     3    1
    27    46    24    1
    28     3     1    1
    29     3    23    1
    30    29     2    1
    31     1     2    1
    32    28     2    1
    33    43    23    1
    34     2     5    1
    35    24    23    1
    36    24    44    1
    37    24    45    1
    38    23    25    1
    39     5     6    1
    40     5    10    1
    41    31     6    1
    42    25    47    1
    43    25    48    1
    44    25    49    1
    45    34    10    1
    46     6     7    2
    47    10     9    2
    48     7    32    1
    49     7     8    1
    50     9     8    2
    51     8    33    1
