@<TRIPOS>MOLECULE
4ayp_SMD_A_1.pdb
 24 25 0 0 0
SMALL
GASTEIGER

@<TRIPOS>ATOM
      1  O12      -27.3730  -14.8440  -14.3440 O.3   503  SMD503     -0.2167
      2  C12      -27.6430  -13.5110  -13.9120 C.3   503  SMD503      0.2219
      3  C13      -27.5580  -12.6200  -15.1350 C.3   503  SMD503      0.2181
      4  O13      -28.3010  -13.2160  -16.2050 O.3   503  SMD503     -0.2175
      5  C14      -28.0890  -11.2290  -14.8100 C.3   503  SMD503      0.2143
      6  O14      -27.2980  -10.6220  -13.7860 O.3   503  SMD503     -0.2176
      7  C15      -29.5510  -11.2920  -14.3450 C.3   503  SMD503      0.1820
      8  C16      -30.4720  -10.9430  -15.5130 C.3   503  SMD503      0.2142
      9  O16      -31.8530  -11.0800  -15.2030 O.3   503  SMD503     -0.2176
     10  O15      -29.9660  -12.6030  -13.9100 O.3   503  SMD503     -0.3398
     11  C11      -29.0200  -13.4110  -13.2050 C.3   503  SMD503      0.1957
     12  S22      -28.7020  -12.9060  -11.4820 S.3   503  SMD503     -0.1024
     13  C22      -30.2590  -13.3220  -10.6560 C.3   503  SMD503      0.1391
     14  C21      -30.3310  -12.5080   -9.3640 C.3   503  SMD503      0.2482
     15  O21      -31.6460  -12.6030   -8.8510 O.3   503  SMD503     -0.3271
     16  C27      -31.8040  -11.8930   -7.6140 C.3   503  SMD503      0.1769
     17  O25      -29.3740  -12.9780   -8.4150 O.3   503  SMD503     -0.3269
     18  C23      -30.4140  -14.8120  -10.3120 C.3   503  SMD503      0.1995
     19  O23      -30.2340  -15.6000  -11.4880 O.3   503  SMD503     -0.2192
     20  C24      -29.4390  -15.2590   -9.2280 C.3   503  SMD503      0.2127
     21  O24      -29.7360  -16.5900   -8.8100 O.3   503  SMD503     -0.2177
     22  C25      -29.5590  -14.3430   -8.0150 C.3   503  SMD503      0.1834
     23  C26      -28.5190  -14.6210   -6.9550 C.3   503  SMD503      0.2142
     24  O26      -28.7580  -13.7340   -5.8600 O.3   503  SMD503     -0.2176
@<TRIPOS>BOND
     1     4     3    1
     2     8     9    1
     3     8     7    1
     4     3     5    1
     5     3     2    1
     6     5     7    1
     7     5     6    1
     8     7    10    1
     9     1     2    1
    10     2    11    1
    11    10    11    1
    12    11    12    1
    13    19    18    1
    14    12    13    1
    15    13    18    1
    16    13    14    1
    17    18    20    1
    18    14    15    1
    19    14    17    1
    20    20    21    1
    21    20    22    1
    22    15    16    1
    23    17    22    1
    24    22    23    1
    25    23    24    1
