@<TRIPOS>MOLECULE
4ayq_MVL_A_1.pdb
 14 15 0 0 0
SMALL
GASTEIGER

@<TRIPOS>ATOM
      1  C1         2.8400  -31.8050  -19.8990 C.ar  503  MVL503      0.1538
      2  N10        4.1660  -31.9290  -19.7440 N.ar  503  MVL503     -0.3082
      3  C3         2.7330  -30.0420  -18.2030 C.3   503  MVL503      0.2215
      4  C4         4.2090  -29.7600  -18.5240 C.3   503  MVL503      0.2082
      5  C5         5.0020  -30.9950  -18.9290 C.3   503  MVL503      0.1525
      6  C6         5.5160  -31.7260  -17.6830 C.3   503  MVL503      0.2072
      7  C7         3.4990  -33.6170  -20.9670 C.ar  503  MVL503      0.1189
      8  C8         4.5820  -33.0430  -20.4070 C.ar  503  MVL503      0.0979
      9  N1         2.4410  -32.8390  -20.6410 N.ar  503  MVL503     -0.2266
     10  O3         2.6140  -30.9240  -17.0920 O.3   503  MVL503     -0.2171
     11  O2         0.7300  -31.0920  -18.9740 O.3   503  MVL503     -0.2121
     12  O4         4.2840  -28.8170  -19.5920 O.3   503  MVL503     -0.2182
     13  C2         2.0270  -30.6760  -19.3810 C.3   503  MVL503      0.2405
     14  O6         6.2480  -32.9080  -18.0070 O.3   503  MVL503     -0.2182
@<TRIPOS>BOND
     1     7     9   ar
     2     7     8   ar
     3     9     1   ar
     4     8     2   ar
     5     1     2   ar
     6     1    13    1
     7     2     5    1
     8    12     4    1
     9    13    11    1
    10    13     3    1
    11     5     4    1
    12     5     6    1
    13     4     3    1
    14     3    10    1
    15    14     6    1
