@<TRIPOS>MOLECULE
4ayr_IFL_A_1.pdb
 11 11 0 0 0
SMALL
GASTEIGER

@<TRIPOS>ATOM
      1  O4         4.3720   28.8010    2.8460 O.3   503  IFL503     -0.2201
      2  C4         4.2470   29.7620    1.7850 C.3   503  IFL503      0.1901
      3  C3         2.7590   30.0870    1.5900 C.3   503  IFL503      0.2291
      4  O3         2.5840   30.9180    0.4270 O.3   503  IFL503     -0.2161
      5  C2         2.1650   30.8680    2.6990 C.3   503  IFL503      0.2586
      6  N          2.9520   32.0610    3.0060 N.3   503  IFL503     -0.1868
      7  C7         4.4090   31.8670    3.2200 C.3   503  IFL503      0.0966
      8  C5         5.0740   30.9970    2.1420 C.3   503  IFL503      0.0836
      9  C6         5.4610   31.7690    0.8780 C.3   503  IFL503      0.1861
     10  O6         6.2220   32.9530    1.1930 O.3   503  IFL503     -0.2203
     11  O2         0.8620   31.1980    2.4110 O.3   503  IFL503     -0.2007
@<TRIPOS>BOND
     1     4     3    1
     2     9    10    1
     3     9     8    1
     4     3     2    1
     5     3     5    1
     6     2     8    1
     7     2     1    1
     8     8     7    1
     9    11     5    1
    10     5     6    1
    11     6     7    1
