@<TRIPOS>MOLECULE
4ayt_ACP_A_1.pdb
 31 33 0 0 0
SMALL
GASTEIGER

@<TRIPOS>ATOM
      1  PG       -16.9840   22.8330    7.1760 P.3   900  ACP900      0.1295
      2  O1G      -15.7910   21.9320    7.1020 O.2   900  ACP900     -0.4595
      3  O2G      -16.6800   24.1790    7.8740 O.3   900  ACP900     -0.3567
      4  O3G      -18.2020   22.1880    7.8830 O.3   900  ACP900     -0.3567
      5  PB       -18.4000   22.0080    4.7820 P.3   900  ACP900      0.3815
      6  O1B      -17.6480   20.9050    4.0530 O.2   900  ACP900     -0.2547
      7  O2B      -19.6080   21.5530    5.6680 O.3   900  ACP900     -0.1391
      8  C3B      -17.4710   23.2210    5.5510 C.3   900  ACP900      0.1768
      9  PA       -20.4650   23.4290    3.2750 P.3   900  ACP900      0.2209
     10  O1A      -20.9590   24.2210    4.4250 O.3   900  ACP900     -0.4371
     11  O2A      -21.4420   22.4740    2.6030 O.2   900  ACP900     -0.5170
     12  O3A      -19.1310   22.5970    3.4790 O.3   900  ACP900     -0.2483
     13  O5'      -20.2900   24.3750    1.9710 O.3   900  ACP900     -0.3111
     14  C5'      -19.4170   24.1570    0.8430 C.3   900  ACP900      0.1813
     15  C4'      -19.0910   25.4880    0.2050 C.3   900  ACP900      0.1821
     16  O4'      -20.3080   26.2010   -0.1170 O.3   900  ACP900     -0.3135
     17  C3'      -18.2210   26.4460    1.0240 C.3   900  ACP900      0.2184
     18  O3'      -17.1290   26.9480    0.2570 O.3   900  ACP900     -0.2174
     19  C2'      -19.2130   27.5220    1.4910 C.3   900  ACP900      0.2570
     20  O2'      -18.6180   28.8020    1.6800 O.3   900  ACP900     -0.2130
     21  C1'      -20.2230   27.5360    0.3440 C.3   900  ACP900      0.3186
     22  N9       -21.5670   27.9910    0.7040 N.pl3 900  ACP900     -0.1439
     23  C8       -22.3130   27.5910    1.7810 C.3   900  ACP900      0.3377
     24  N7       -23.5150   28.1160    1.8270 N.2   900  ACP900     -0.2095
     25  C5       -23.5670   28.9180    0.6970 C.2   900  ACP900      0.2526
     26  C6       -24.5890   29.7180    0.1440 C.2   900  ACP900      0.4393
     27  N6       -25.8010   29.8550    0.6920 N.pl3 900  ACP900      0.2180
     28  N1       -24.3260   30.3710   -1.0140 N.2   900  ACP900      0.0021
     29  C2       -23.1140   30.2360   -1.5680 C.3   900  ACP900      0.5254
     30  N3       -22.0750   29.5090   -1.1430 N.2   900  ACP900     -0.0055
     31  C4       -22.3690   28.8610    0.0000 C.2   900  ACP900      0.3518
@<TRIPOS>BOND
     1    29    30    1
     2    29    28    1
     3    30    31    2
     4    28    26    2
     5    16    15    1
     6    16    21    1
     7    31    25    1
     8    31    22    1
     9    26    27    1
    10    26    25    1
    11    15    14    1
    12    15    17    1
    13    18    17    1
    14    21    22    1
    15    21    19    1
    16    25    24    2
    17    22    23    1
    18    14    13    1
    19    17    19    1
    20    19    20    1
    21    23    24    1
    22    13     9    1
    23    11     9    2
    24     9    12    1
    25     9    10    1
    26    12     5    1
    27     6     5    2
    28     5     8    1
    29     5     7    1
    30     8     1    1
    31     2     1    2
    32     1     3    1
    33     1     4    1
