@<TRIPOS>MOLECULE
4ayv_9MQ_B_1.pdb
 43 46 0 0 0
SMALL
GASTEIGER

@<TRIPOS>ATOM
      1  C1        29.8930   13.1300   25.2750 C.3   1258  9MQ1258     0.1828
      2  C2        31.3070   13.5900   24.8610 C.2   1258  9MQ1258     0.2445
      3  N3        29.7500   13.4180   26.6610 N.3   1258  9MQ1258    -0.0694
      4  C4        28.8640   13.9020   24.4000 C.3   1258  9MQ1258     0.1154
      5  N5        31.8680   13.0410   23.7070 N.am  1258  9MQ1258    -0.2642
      6  O6        31.9250   14.4320   25.5460 O.2   1258  9MQ1258    -0.2733
      7  S7        29.3100   12.2750   27.7580 S.O2  1258  9MQ1258     0.0772
      8  C8        28.8340   15.4080   24.5570 C.2   1258  9MQ1258     0.2434
      9  C9        31.1810   11.9550   22.9330 C.3   1258  9MQ1258     0.1207
     10  C10       33.0980   13.5900   23.1120 C.3   1258  9MQ1258     0.2088
     11  C11       30.6550   11.3050   27.9310 C.ar  1258  9MQ1258     0.1236
     12  O12       29.0630   13.0620   28.9540 O.2   1258  9MQ1258    -0.1516
     13  O13       28.3600   11.4260   27.1480 O.2   1258  9MQ1258    -0.1516
     14  N14       29.5500   16.1520   23.5980 N.am  1258  9MQ1258    -0.2053
     15  O15       28.2160   15.9780   25.4840 O.2   1258  9MQ1258    -0.2733
     16  C16       32.1270   10.8190   22.7310 C.ar  1258  9MQ1258    -0.0023
     17  C17       32.6770   14.5420   21.9980 C.2   1258  9MQ1258     0.3847
     18  C18       30.7640   10.0600   27.3130 C.ar  1258  9MQ1258     0.0200
     19  C19       31.7320   11.7770   28.7590 C.ar  1258  9MQ1258     0.0200
     20  C20       29.5220   17.6380   23.6890 C.3   1258  9MQ1258     0.1184
     21  C21       32.7400   10.1950   23.8550 C.ar  1258  9MQ1258    -0.0026
     22  C22       32.4150   10.4040   21.4390 C.ar  1258  9MQ1258    -0.0026
     23  O23       33.6120   14.6840   21.0680 O.co2 1258  9MQ1258    -0.2437
     24  O24       31.6230   15.1370   21.8670 O.co2 1258  9MQ1258    -0.2437
     25  C25       31.9400    9.2660   27.5250 C.ar  1258  9MQ1258     0.0013
     26  C26       32.8630   11.0470   28.9660 C.ar  1258  9MQ1258     0.0014
     27  C27       30.8390   18.3690   24.0410 C.3   1258  9MQ1258     0.0591
     28  C28       33.6560    9.1490   23.6740 C.ar  1258  9MQ1258    -0.0003
     29  C29       33.3350    9.3500   21.2520 C.ar  1258  9MQ1258    -0.0003
     30  C30       33.0030    9.7730   28.3620 C.ar  1258  9MQ1258     0.0001
     31  C31       32.0880    7.9720   26.9330 C.ar  1258  9MQ1258     0.0000
     32  C32       31.3550   18.0230   25.4550 C.3   1258  9MQ1258     0.1695
     33  C33       31.9390   18.0500   22.9780 C.3   1258  9MQ1258     0.0084
     34  C34       33.9590    8.7220   22.3530 C.ar  1258  9MQ1258    -0.0000
     35  C35       34.1770    9.0060   28.5940 C.ar  1258  9MQ1258     0.0000
     36  C36       33.2400    7.2410   27.1760 C.ar  1258  9MQ1258     0.0000
     37  N37       32.5790   18.8780   25.6450 N.pl3 1258  9MQ1258    -0.1885
     38  C38       33.1470   18.9460   23.2170 C.3   1258  9MQ1258     0.0407
     39  C39       34.2830    7.7690   28.0090 C.ar  1258  9MQ1258     0.0000
     40  C40       33.7130   18.6960   24.6470 C.3   1258  9MQ1258     0.1678
     41  C41       32.4270   20.0940   26.3010 C.cat 1258  9MQ1258     0.4954
     42  N42       33.5130   20.8500   26.3420 N.pl3 1258  9MQ1258     0.1298
     43  N43       31.2690   20.4210   26.8120 N.pl3 1258  9MQ1258     0.1298
@<TRIPOS>BOND
     1    23    17   ar
     2    29    22   ar
     3    29    34   ar
     4    22    16   ar
     5    24    17   ar
     6    17    10    1
     7    34    28   ar
     8    16     9    1
     9    16    21   ar
    10     9     5    1
    11    33    38    1
    12    33    27    1
    13    10     5    1
    14    38    40    1
    15    14    20    1
    16    14     8   am
    17    28    21   ar
    18    20    27    1
    19     5     2   am
    20    27    32    1
    21     4     8    1
    22     4     1    1
    23     8    15    2
    24    40    37    1
    25     2     1    1
    26     2     6    2
    27     1     3    1
    28    32    37    1
    29    37    41    1
    30    41    42    2
    31    41    43    1
    32     3     7    1
    33    31    36   ar
    34    31    25   ar
    35    13     7    2
    36    36    39   ar
    37    18    25   ar
    38    18    11   ar
    39    25    30   ar
    40     7    11    1
    41     7    12    2
    42    11    19   ar
    43    39    35   ar
    44    30    35   ar
    45    30    26   ar
    46    19    26   ar
