@<TRIPOS>MOLECULE
4ayw_ANP_A_1.pdb
 31 33 0 0 0
SMALL
GASTEIGER

@<TRIPOS>ATOM
      1  PG       -26.9970   38.8810   21.4150 P.3   1719  ANP1719     0.4884
      2  O1G      -27.0620   39.5770   20.1100 O.2   1719  ANP1719    -0.2331
      3  O2G      -27.9630   37.6410   21.6330 O.3   1719  ANP1719    -0.1240
      4  O3G      -27.5850   39.7680   22.5960 O.3   1719  ANP1719    -0.1240
      5  PB       -24.7500   36.8730   21.9080 P.3   1719  ANP1719     0.4669
      6  O1B      -24.4040   36.3900   23.2550 O.3   1719  ANP1719    -0.1253
      7  O2B      -25.7160   35.9040   21.1100 O.2   1719  ANP1719    -0.2351
      8  N3B      -25.4760   38.3610   21.8490 N.3   1719  ANP1719    -0.0163
      9  PA       -22.8820   36.2550   19.5320 P.3   1719  ANP1719     0.2220
     10  O1A      -22.7660   34.7800   19.5250 O.3   1719  ANP1719    -0.4370
     11  O2A      -23.7290   36.8970   18.4320 O.2   1719  ANP1719    -0.5170
     12  O3A      -23.5960   36.8150   20.8290 O.3   1719  ANP1719    -0.2360
     13  O5'      -21.4490   36.9780   19.3090 O.3   1719  ANP1719    -0.3111
     14  C5'      -21.1200   38.2920   19.8090 C.3   1719  ANP1719     0.1813
     15  C4'      -20.8320   39.2240   18.6570 C.3   1719  ANP1719     0.1821
     16  O4'      -20.1020   38.5280   17.6260 O.3   1719  ANP1719    -0.3135
     17  C3'      -22.0470   39.8010   17.9430 C.3   1719  ANP1719     0.2184
     18  O3'      -22.5810   40.9180   18.6450 O.3   1719  ANP1719    -0.2174
     19  C2'      -21.4790   40.1730   16.5680 C.3   1719  ANP1719     0.2570
     20  O2'      -20.9610   41.4980   16.5100 O.3   1719  ANP1719    -0.2130
     21  C1'      -20.3600   39.1340   16.3710 C.3   1719  ANP1719     0.3186
     22  N9       -20.6490   38.0890   15.3880 N.pl3 1719  ANP1719    -0.1439
     23  C8       -21.6900   37.1960   15.3990 C.3   1719  ANP1719     0.3377
     24  N7       -21.7110   36.3870   14.3670 N.2   1719  ANP1719    -0.2095
     25  C5       -20.6040   36.7700   13.6250 C.2   1719  ANP1719     0.2526
     26  C6       -20.0660   36.3020   12.4070 C.2   1719  ANP1719     0.4393
     27  N6       -20.6050   35.3150   11.6880 N.pl3 1719  ANP1719     0.2180
     28  N1       -18.9420   36.9000   11.9430 N.2   1719  ANP1719     0.0021
     29  C2       -18.4050   37.9000   12.6520 C.3   1719  ANP1719     0.5254
     30  N3       -18.8230   38.4260   13.8090 N.2   1719  ANP1719    -0.0055
     31  C4       -19.9360   37.8150   14.2450 C.2   1719  ANP1719     0.3518
@<TRIPOS>BOND
     1    27    26    1
     2    28    26    2
     3    28    29    1
     4    26    25    1
     5    29    30    1
     6    25    31    1
     7    25    24    2
     8    30    31    2
     9    31    22    1
    10    24    23    1
    11    22    23    1
    12    22    21    1
    13    21    19    1
    14    21    16    1
    15    20    19    1
    16    19    17    1
    17    16    15    1
    18    17    18    1
    19    17    15    1
    20    11     9    2
    21    15    14    1
    22    13     9    1
    23    13    14    1
    24    10     9    1
    25     9    12    1
    26     2     1    2
    27    12     5    1
    28     7     5    2
    29     1     3    1
    30     1     8    1
    31     1     4    1
    32     8     5    1
    33     5     6    1
