@<TRIPOS>MOLECULE
4ayw_Y01_A_1.pdb
 35 38 0 0 0
SMALL
GASTEIGER

@<TRIPOS>ATOM
      1  CAA      -41.3450   26.4250  -45.2990 C.3   1730  Y011730     0.0047
      2  CBA      -40.7700   27.3210  -44.2170 C.3   1730  Y011730     0.0217
      3  CAB      -41.8480   28.1970  -43.6190 C.3   1730  Y011730     0.0047
      4  CAN      -39.9070   26.6130  -43.1620 C.2   1730  Y011730    -0.0310
      5  CAJ      -38.5950   26.0010  -43.6560 C.2   1730  Y011730    -0.0307
      6  CAO      -37.7300   25.3620  -42.5690 C.3   1730  Y011730     0.0257
      7  CBB      -38.2210   24.0170  -41.9860 C.3   1730  Y011730     0.0043
      8  CAC      -38.0810   22.9050  -43.0280 C.3   1730  Y011730     0.0003
      9  CBE      -37.5060   23.7250  -40.6450 C.3   1730  Y011730     0.0003
     10  CAP      -37.6440   24.9000  -39.6460 C.3   1730  Y011730     0.0000
     11  CAQ      -37.5300   24.3000  -38.2370 C.3   1730  Y011730     0.0000
     12  CBG      -37.0920   22.8530  -38.4850 C.3   1730  Y011730     0.0003
     13  CBI      -37.8270   22.4610  -39.7940 C.3   1730  Y011730     0.0000
     14  CAE      -39.3490   22.2690  -39.5960 C.3   1730  Y011730     0.0000
     15  CAU      -37.1770   21.1420  -40.2580 C.3   1730  Y011730     0.0000
     16  CAS      -37.2090   20.0340  -39.1970 C.3   1730  Y011730     0.0003
     17  CBF      -36.6330   20.4510  -37.8280 C.3   1730  Y011730     0.0038
     18  CBD      -37.1660   21.8190  -37.3450 C.3   1730  Y011730     0.0046
     19  CAK      -36.3550   22.2860  -36.1350 C.3   1730  Y011730     0.0254
     20  CAI      -36.1110   21.1880  -35.1440 C.2   1730  Y011730    -0.0345
     21  CAZ      -36.2790   19.8890  -35.3820 C.2   1730  Y011730    -0.0455
     22  CAV      -36.0110   18.8720  -34.2900 C.3   1730  Y011730     0.0653
     23  CBH      -36.7540   19.3400  -36.7350 C.3   1730  Y011730     0.0151
     24  CAD      -38.2160   18.8600  -36.5770 C.3   1730  Y011730     0.0040
     25  CAT      -35.8490   18.1510  -37.1300 C.3   1730  Y011730     0.0074
     26  CAR      -35.6470   17.1060  -36.0260 C.3   1730  Y011730     0.0443
     27  CBC      -35.1140   17.7400  -34.7580 C.3   1730  Y011730     0.1728
     28  OAW      -35.1670   16.7190  -33.7090 O.3   1730  Y011730    -0.4519
     29  CAY      -34.0240   16.2920  -33.1340 C.2   1730  Y011730     0.3175
     30  OAG      -32.9300   16.7070  -33.4150 O.2   1730  Y011730    -0.2501
     31  CAM      -34.3000   15.2180  -32.1220 C.3   1730  Y011730     0.1213
     32  CAL      -33.7820   15.5380  -30.7250 C.3   1730  Y011730     0.1257
     33  CAX      -34.5260   16.6310  -30.0110 C.2   1730  Y011730     0.3654
     34  OAH      -33.9590   16.9660  -28.8820 O.co2 1730  Y011730    -0.2456
     35  OAF      -35.5510   17.1490  -30.4190 O.co2 1730  Y011730    -0.2456
@<TRIPOS>BOND
     1     1     2    1
     2     2     3    1
     3     2     4    1
     4     5     4    2
     5     5     6    1
     6     8     7    1
     7     6     7    1
     8     7     9    1
     9     9    13    1
    10     9    10    1
    11    15    13    1
    12    15    16    1
    13    13    14    1
    14    13    12    1
    15    10    11    1
    16    16    17    1
    17    12    11    1
    18    12    18    1
    19    17    18    1
    20    17    23    1
    21    18    19    1
    22    25    23    1
    23    25    26    1
    24    23    24    1
    25    23    21    1
    26    19    20    1
    27    26    27    1
    28    21    20    2
    29    21    22    1
    30    27    22    1
    31    27    28    1
    32    28    29    1
    33    30    29    2
    34    29    31    1
    35    31    32    1
    36    32    33    1
    37    35    33   ar
    38    33    34   ar
