@<TRIPOS>MOLECULE
4ayx_ACP_A_1.pdb
 31 33 0 0 0
SMALL
GASTEIGER

@<TRIPOS>ATOM
      1  PG       -19.8770   21.3900    5.2170 P.3   900  ACP900      0.1295
      2  O1G      -19.4050   19.9900    4.9820 O.2   900  ACP900     -0.4595
      3  O2G      -18.7220   22.3530    5.5690 O.3   900  ACP900     -0.3567
      4  O3G      -20.9500   21.4940    6.3250 O.3   900  ACP900     -0.3567
      5  PB       -21.7180   20.8930    3.0970 P.3   900  ACP900      0.3815
      6  O1B      -21.1650   19.7220    2.3040 O.2   900  ACP900     -0.2547
      7  O2B      -22.8680   20.5980    4.1110 O.3   900  ACP900     -0.1391
      8  C3B      -20.5960   21.9860    3.7600 C.3   900  ACP900      0.1768
      9  PA       -23.8100   22.4610    1.7590 P.3   900  ACP900      0.2209
     10  O1A      -24.0640   23.4290    2.8520 O.3   900  ACP900     -0.4371
     11  O2A      -24.9530   21.5520    1.3010 O.2   900  ACP900     -0.5170
     12  O3A      -22.5280   21.5250    1.8690 O.3   900  ACP900     -0.2483
     13  O5'      -23.7320   23.2350    0.3410 O.3   900  ACP900     -0.3111
     14  C5'      -22.8830   22.9040   -0.7770 C.3   900  ACP900      0.1813
     15  C4'      -22.5280   24.1850   -1.4890 C.3   900  ACP900      0.1821
     16  O4'      -23.7230   24.9690   -1.7040 O.3   900  ACP900     -0.3135
     17  C3'      -21.5210   25.0920   -0.7770 C.3   900  ACP900      0.2184
     18  O3'      -20.4700   25.4890   -1.6530 O.3   900  ACP900     -0.2174
     19  C2'      -22.3880   26.2440   -0.2440 C.3   900  ACP900      0.2570
     20  O2'      -21.6990   27.4860   -0.1350 O.3   900  ACP900     -0.2130
     21  C1'      -23.5070   26.3020   -1.2870 C.3   900  ACP900      0.3186
     22  N9       -24.7760   26.8550   -0.8080 N.pl3 900  ACP900     -0.1439
     23  C8       -25.4580   26.5040    0.3280 C.3   900  ACP900      0.3377
     24  N7       -26.5560   27.1930    0.5290 N.2   900  ACP900     -0.2095
     25  C5       -26.6030   28.0580   -0.5560 C.2   900  ACP900      0.2526
     26  C6       -27.5220   29.0610   -0.9330 C.2   900  ACP900      0.4393
     27  N6       -28.5830   29.4070   -0.1990 N.pl3 900  ACP900      0.2180
     28  N1       -27.2880   29.7290   -2.0890 N.2   900  ACP900      0.0021
     29  C2       -26.2000   29.4180   -2.8040 C.3   900  ACP900      0.5254
     30  N3       -25.2590   28.5040   -2.5430 N.2   900  ACP900     -0.0055
     31  C4       -25.5180   27.8540   -1.3940 C.2   900  ACP900      0.3518
@<TRIPOS>BOND
     1    29    30    1
     2    29    28    1
     3    30    31    2
     4    28    26    2
     5    16    15    1
     6    16    21    1
     7    18    17    1
     8    15    14    1
     9    15    17    1
    10    31    22    1
    11    31    25    1
    12    21    22    1
    13    21    19    1
    14    26    25    1
    15    26    27    1
    16    22    23    1
    17    14    13    1
    18    17    19    1
    19    25    24    2
    20    19    20    1
    21    23    24    1
    22    13     9    1
    23    11     9    2
    24     9    12    1
    25     9    10    1
    26    12     5    1
    27     6     5    2
    28     5     8    1
    29     5     7    1
    30     8     1    1
    31     2     1    2
    32     1     3    1
    33     1     4    1
