@<TRIPOS>MOLECULE
4ayy_9MX_B_1.pdb
 41 44 0 0 0
SMALL
GASTEIGER

@<TRIPOS>ATOM
      1  C20       29.5640   17.7300   23.4910 C.3   1258  9MX1258     0.1184
      2  C27       30.9530   18.3840   23.6240 C.3   1258  9MX1258     0.0591
      3  C32       31.3890   18.3680   25.0910 C.3   1258  9MX1258     0.1695
      4  C33       31.9960   17.6880   22.7530 C.3   1258  9MX1258     0.0084
      5  N37       32.6740   18.9930   25.3520 N.pl3 1258  9MX1258    -0.1885
      6  C38       33.4130   18.0870   23.1160 C.3   1258  9MX1258     0.0407
      7  C40       33.4670   19.2010   24.1530 C.3   1258  9MX1258     0.1678
      8  C41       32.5850   20.0970   26.3130 C.cat 1258  9MX1258     0.4954
      9  N43       31.2670   20.3120   26.8370 N.pl3 1258  9MX1258     0.1298
     10  N42       33.6300   20.8030   26.6660 N.pl3 1258  9MX1258     0.1298
     11  N3        29.4700   13.4370   26.6140 N.3   1258  9MX1258    -0.0694
     12  C1        29.6730   13.3400   25.1930 C.3   1258  9MX1258     0.1827
     13  C2        31.1430   13.7460   24.8330 C.2   1258  9MX1258     0.2442
     14  O6        31.7370   14.6350   25.4800 O.2   1258  9MX1258    -0.2733
     15  C4        28.6260   14.0900   24.3030 C.3   1258  9MX1258     0.1154
     16  C8        28.6610   15.6220   24.3470 C.2   1258  9MX1258     0.2434
     17  O15       27.9170   16.2470   25.1430 O.2   1258  9MX1258    -0.2733
     18  N14       29.5030   16.2970   23.4930 N.am  1258  9MX1258    -0.2053
     19  S7        29.1590   12.2070   27.6450 S.O2  1258  9MX1258     0.0772
     20  O12       28.8270   12.7870   28.8980 O.2   1258  9MX1258    -0.1516
     21  O13       28.2170   11.3520   27.0330 O.2   1258  9MX1258    -0.1516
     22  C18       30.7720   10.0930   27.2600 C.ar  1258  9MX1258     0.0200
     23  C11       30.5840   11.3240   27.8610 C.ar  1258  9MX1258     0.1236
     24  C19       31.6070   11.8410   28.7060 C.ar  1258  9MX1258     0.0200
     25  C26       32.7700   11.1520   28.9240 C.ar  1258  9MX1258     0.0014
     26  C35       34.1730    9.1510   28.5150 C.ar  1258  9MX1258     0.0000
     27  C39       34.3360    7.9290   27.9000 C.ar  1258  9MX1258     0.0000
     28  C36       33.3310    7.3820   27.0600 C.ar  1258  9MX1258     0.0000
     29  C31       32.1680    8.0830   26.8470 C.ar  1258  9MX1258     0.0000
     30  C25       31.9650    9.3530   27.4650 C.ar  1258  9MX1258     0.0013
     31  C30       32.9790    9.8910   28.3080 C.ar  1258  9MX1258     0.0001
     32  N5        31.7810   13.0840   23.8000 N.am  1258  9MX1258    -0.2701
     33  C21       31.0250   12.4100   22.7610 C.3   1258  9MX1258     0.1790
     34  C28       31.5490   10.9830   22.5040 C.3   1258  9MX1258     0.0315
     35  C10       33.0650   10.9090   22.3340 C.3   1258  9MX1258     0.0039
     36  C16       33.8230   11.7880   23.3200 C.3   1258  9MX1258     0.0216
     37  C9        33.1940   13.1710   23.4970 C.3   1258  9MX1258     0.0939
     38  C17       30.9370   13.2140   21.4660 C.2   1258  9MX1258     0.3825
     39  O23       31.1350   12.4680   20.3380 O.co2 1258  9MX1258    -0.2438
     40  O24       30.7180   14.4300   21.3340 O.co2 1258  9MX1258    -0.2438
     41  C29       33.5290    9.4700   22.4580 C.3   1258  9MX1258     0.0001
@<TRIPOS>BOND
     1    39    38   ar
     2    40    38   ar
     3    38    33    1
     4    35    41    1
     5    35    34    1
     6    35    36    1
     7    34    33    1
     8     4     6    1
     9     4     2    1
    10    33    32    1
    11     6     7    1
    12    36    37    1
    13     1    18    1
    14     1     2    1
    15    18    16   am
    16    37    32    1
    17     2     3    1
    18    32    13   am
    19     7     5    1
    20    15    16    1
    21    15    12    1
    22    16    17    2
    23    13    12    1
    24    13    14    2
    25     3     5    1
    26    12    11    1
    27     5     8    1
    28     8    10    2
    29     8     9    1
    30    11    19    1
    31    29    28   ar
    32    29    30   ar
    33    21    19    2
    34    28    27   ar
    35    22    30   ar
    36    22    23   ar
    37    30    31   ar
    38    19    23    1
    39    19    20    2
    40    23    24   ar
    41    27    26   ar
    42    31    26   ar
    43    31    25   ar
    44    24    25   ar
