@<TRIPOS>MOLECULE
4az0_S61_A_1.pdb
 28 30 0 0 0
SMALL
GASTEIGER

@<TRIPOS>ATOM
      1  C26      -36.2270    9.5390   15.4780 C.3   1262  S611262     0.0308
      2  C25      -35.0660    8.7130   15.9760 C.ar  1262  S611262    -0.0242
      3  C24      -35.2550    7.3440   16.1780 C.ar  1262  S611262    -0.0045
      4  C23      -34.2180    6.5230   16.5810 C.ar  1262  S611262    -0.0003
      5  C22      -32.9710    7.0520   16.7970 C.ar  1262  S611262    -0.0003
      6  C21      -32.7540    8.4080   16.6140 C.ar  1262  S611262    -0.0029
      7  C20      -33.7860    9.2540   16.2070 C.ar  1262  S611262    -0.0060
      8  C16      -33.5220   10.7350   15.9900 C.3   1262  S611262     0.1288
      9  C17      -32.0720   11.2100   15.7410 C.3   1262  S611262     0.1401
     10  C18      -31.4710   10.7410   14.4370 C.2   1262  S611262     0.3670
     11  O27      -30.3230   10.3620   14.3520 O.co2 1262  S611262    -0.2456
     12  O19      -32.2810   10.7940   13.4170 O.co2 1262  S611262    -0.2456
     13  N15      -34.0680   11.4350   17.1510 N.am  1262  S611262    -0.1973
     14  C14      -34.7000   12.6190   17.1910 C.2   1262  S611262     0.2807
     15  O28      -34.9970   13.2620   16.1840 O.2   1262  S611262    -0.2670
     16  C10      -34.9970   13.1500   18.5480 C.2   1262  S611262     0.1408
     17  N9       -34.7850   12.2670   19.5470 N.2   1262  S611262    -0.1707
     18  C11      -35.4520   14.3870   19.0370 C.3   1262  S611262     0.1393
     19  C12      -35.5280   14.2680   20.4140 C.2   1262  S611262     0.2546
     20  O13      -35.8900   15.0890   21.4200 O.2   1262  S611262    -0.2724
     21  N7       -35.1130   12.9690   20.6940 N.am  1262  S611262    -0.1561
     22  C5       -34.9930   12.3210   21.9540 C.ar  1262  S611262     0.1041
     23  C4       -33.7530   12.2720   22.5890 C.ar  1262  S611262     0.0191
     24  C3       -33.6390   11.6950   23.8500 C.ar  1262  S611262     0.0015
     25  C2       -34.7470   11.1610   24.4860 C.ar  1262  S611262     0.0024
     26  C1       -35.9890   11.1890   23.8720 C.ar  1262  S611262     0.0310
     27  C6       -36.0910   11.7630   22.6290 C.ar  1262  S611262     0.1555
     28  F8       -37.3000   11.8050   22.0260 F     1262  S611262    -0.2028
@<TRIPOS>BOND
     1    12    10   ar
     2    11    10   ar
     3    10     9    1
     4     1     2    1
     5     9     8    1
     6     2     3   ar
     7     2     7   ar
     8     8     7    1
     9     8    13    1
    10     3     4   ar
    11    15    14    2
    12     7     6   ar
    13     4     5   ar
    14     6     5   ar
    15    13    14   am
    16    14    16    1
    17    16    18    1
    18    16    17    2
    19    18    19    1
    20    17    21    1
    21    19    21   am
    22    19    20    2
    23    21    22    1
    24    22    23   ar
    25    22    27   ar
    26    28    27    1
    27    23    24   ar
    28    27    26   ar
    29    24    25   ar
    30    26    25   ar
