@<TRIPOS>MOLECULE
4az2_9MU_B_1.pdb
 35 38 0 0 0
SMALL
GASTEIGER

@<TRIPOS>ATOM
      1  N12       30.4020   13.2940   24.1520 N.3   1258  9MU1258    -0.0695
      2  C15       29.4670   13.7990   25.2030 C.3   1258  9MU1258     0.1794
      3  C17       29.1270   15.2790   24.9440 C.2   1258  9MU1258     0.2594
      4  O20       28.3660   15.8740   25.7070 O.2   1258  9MU1258    -0.2718
      5  C16       28.1650   12.9530   25.3460 C.3   1258  9MU1258     0.0551
      6  C18       28.5550   11.6340   26.0070 C.ar  1258  9MU1258    -0.0202
      7  C21       28.7050   11.5810   27.4570 C.ar  1258  9MU1258    -0.0042
      8  C22       28.8520   10.4580   25.2160 C.ar  1258  9MU1258    -0.0042
      9  C24       29.1620   10.3850   28.0920 C.ar  1258  9MU1258    -0.0003
     10  C25       29.3030    9.2690   25.8610 C.ar  1258  9MU1258    -0.0003
     11  C27       29.4600    9.2360   27.2820 C.ar  1258  9MU1258    -0.0000
     12  S11       32.0500   13.2000   24.4410 S.O2  1258  9MU1258     0.0772
     13  O14       32.3020   14.2650   25.3840 O.2   1258  9MU1258    -0.1516
     14  O13       32.7500   13.1370   23.2370 O.2   1258  9MU1258    -0.1516
     15  C3        32.4710   11.6600   26.6110 C.ar  1258  9MU1258     0.0200
     16  C7        32.3400   11.7490   25.2160 C.ar  1258  9MU1258     0.1236
     17  C9        32.5770   10.5550   24.4440 C.ar  1258  9MU1258     0.0200
     18  C5        32.9460    9.3510   25.0250 C.ar  1258  9MU1258     0.0014
     19  C6        33.4770    8.0490   27.0660 C.ar  1258  9MU1258     0.0000
     20  C10       33.5990    8.0170   28.4400 C.ar  1258  9MU1258     0.0000
     21  C8        33.3620    9.1710   29.2380 C.ar  1258  9MU1258     0.0000
     22  C4        32.9980   10.3650   28.6510 C.ar  1258  9MU1258     0.0000
     23  C1        32.8570   10.4400   27.2300 C.ar  1258  9MU1258     0.0013
     24  C2        33.0980    9.2720   26.4330 C.ar  1258  9MU1258     0.0001
     25  N19       29.7300   15.8930   23.8630 N.am  1258  9MU1258    -0.2041
     26  C23       29.5070   17.3030   23.5000 C.3   1258  9MU1258     0.1184
     27  C26       30.7560   18.2080   23.7690 C.3   1258  9MU1258     0.0591
     28  C28       31.1850   18.1050   25.2770 C.3   1258  9MU1258     0.1695
     29  C29       31.9300   17.8520   22.8110 C.3   1258  9MU1258     0.0084
     30  N30       32.3940   18.9750   25.4330 N.pl3 1258  9MU1258    -0.1885
     31  C31       33.1550   18.7320   23.1060 C.3   1258  9MU1258     0.0407
     32  C32       33.5990   18.6520   24.6080 C.3   1258  9MU1258     0.1678
     33  C33       32.3420   20.0960   26.3190 C.cat 1258  9MU1258     0.4954
     34  N34       33.4560   20.8780   26.4390 N.pl3 1258  9MU1258     0.1298
     35  N35       31.2690   20.3120   26.9520 N.pl3 1258  9MU1258     0.1298
@<TRIPOS>BOND
     1    29    31    1
     2    29    27    1
     3    31    32    1
     4    14    12    2
     5    26    27    1
     6    26    25    1
     7    27    28    1
     8    25     3   am
     9     1    12    1
    10     1     2    1
    11    12    16    1
    12    12    13    2
    13    17    18   ar
    14    17    16   ar
    15    32    30    1
    16     3     2    1
    17     3     4    2
    18    18    24   ar
    19     2     5    1
    20    16    15   ar
    21     8    10   ar
    22     8     6   ar
    23    28    30    1
    24     5     6    1
    25    30    33    1
    26    10    11   ar
    27     6     7   ar
    28    33    34    2
    29    33    35    1
    30    24    19   ar
    31    24    23   ar
    32    15    23   ar
    33    19    20   ar
    34    23    22   ar
    35    11     9   ar
    36     7     9   ar
    37    20    21   ar
    38    22    21   ar
