@<TRIPOS>MOLECULE
4az3_S35_A_1.pdb
 35 37 0 0 0
SMALL
GASTEIGER

@<TRIPOS>ATOM
      1  C35      -36.2570    9.5860   15.4020 C.3   1259  S351259     0.0308
      2  C30      -35.0480    8.7390   15.8270 C.ar  1259  S351259    -0.0242
      3  C31      -35.2460    7.3580   15.9480 C.ar  1259  S351259    -0.0045
      4  C32      -34.1980    6.5160   16.3310 C.ar  1259  S351259    -0.0003
      5  C33      -32.9390    7.0600   16.5960 C.ar  1259  S351259    -0.0003
      6  C34      -32.7350    8.4370   16.4730 C.ar  1259  S351259    -0.0029
      7  C29      -33.7740    9.2990   16.0790 C.ar  1259  S351259    -0.0060
      8  C24      -33.5290   10.8340   15.9660 C.3   1259  S351259     0.1288
      9  C25      -32.0610   11.2200   15.6830 C.3   1259  S351259     0.1401
     10  C26      -31.5580   10.8240   14.2860 C.2   1259  S351259     0.3670
     11  O28      -32.3350   10.9850   13.3220 O.co2 1259  S351259    -0.2456
     12  O27      -30.3800   10.4170   14.2100 O.co2 1259  S351259    -0.2456
     13  N23      -33.9400   11.4910   17.2190 N.am  1259  S351259    -0.1970
     14  C21      -34.5870   12.6590   17.3070 C.2   1259  S351259     0.2847
     15  O22      -34.9460   13.3540   16.3530 O.2   1259  S351259    -0.2666
     16  C10      -34.8410   13.1040   18.7530 C.ar  1259  S351259     0.1608
     17  N9       -34.7920   12.2730   19.7910 N.ar  1259  S351259    -0.1577
     18  C11      -35.0910   14.3430   19.1730 C.ar  1259  S351259     0.0832
     19  C12      -35.2330   14.2080   20.4940 C.ar  1259  S351259     0.2278
     20  O13      -35.4530   15.2000   21.4170 O.3   1259  S351259    -0.4574
     21  C14      -36.4210   16.2360   21.0980 C.3   1259  S351259     0.2397
     22  C15      -35.7530   17.6350   21.1320 C.3   1259  S351259     0.1953
     23  C17      -36.6870   18.8680   21.3740 C.3   1259  S351259     0.0318
     24  C19      -35.9900   20.1210   20.8340 C.3   1259  S351259     0.0027
     25  C20      -38.0300   18.7430   20.6350 C.3   1259  S351259     0.0027
     26  C18      -36.9720   19.0880   22.8700 C.3   1259  S351259     0.0027
     27  O16      -34.6310   17.6280   22.0330 O.3   1259  S351259    -0.2191
     28  N8       -34.9870   12.9340   20.8080 N.ar  1259  S351259    -0.1958
     29  C6       -35.0460   12.3890   22.0230 C.ar  1259  S351259     0.1132
     30  C5       -33.8760   12.1840   22.7630 C.ar  1259  S351259     0.0215
     31  C4       -33.9450   11.5770   24.0220 C.ar  1259  S351259     0.0017
     32  C3       -35.1770   11.1610   24.5370 C.ar  1259  S351259     0.0024
     33  C2       -36.3450   11.3540   23.7920 C.ar  1259  S351259     0.0312
     34  C1       -36.2770   11.9570   22.5300 C.ar  1259  S351259     0.1578
     35  F7       -37.4020   12.1360   21.8080 F     1259  S351259    -0.2026
@<TRIPOS>BOND
     1    11    10   ar
     2    12    10   ar
     3    10     9    1
     4     1     2    1
     5     9     8    1
     6     2     3   ar
     7     2     7   ar
     8     3     4   ar
     9     8     7    1
    10     8    13    1
    11     7     6   ar
    12     4     5   ar
    13    15    14    2
    14     6     5   ar
    15    13    14   am
    16    14    16    1
    17    16    18   ar
    18    16    17   ar
    19    18    19   ar
    20    17    28   ar
    21    19    28   ar
    22    19    20    1
    23    25    23    1
    24    28    29    1
    25    24    23    1
    26    21    22    1
    27    21    20    1
    28    22    23    1
    29    22    27    1
    30    23    26    1
    31    35    34    1
    32    29    34   ar
    33    29    30   ar
    34    34    33   ar
    35    30    31   ar
    36    33    32   ar
    37    31    32   ar
