@<TRIPOS>MOLECULE
4aza_MGO_A_1.pdb
 33 35 0 0 0
SMALL
GASTEIGER

@<TRIPOS>ATOM
      1  OAJ      -17.1700    7.4260  -27.2840 O.2   1218  MGO1218    -0.2221
      2  PBE      -17.8660    8.4360  -26.2090 P.3   1218  MGO1218     0.5373
      3  OAD      -19.4140    7.9450  -26.1500 O.3   1218  MGO1218    -0.1143
      4  OAI      -17.7550    9.8820  -26.5740 O.3   1218  MGO1218    -0.1143
      5  OAS      -17.1900    8.1120  -24.7920 O.3   1218  MGO1218    -0.2258
      6  PBG      -18.0840    7.7970  -23.5180 P.3   1218  MGO1218     0.2277
      7  OAL      -16.9880    7.7210  -22.3370 O.3   1218  MGO1218    -0.4368
      8  OAF      -19.1280    8.8250  -23.2820 O.2   1218  MGO1218    -0.5168
      9  OAT      -18.6740    6.3280  -23.7900 O.3   1218  MGO1218    -0.2700
     10  PBF      -17.9620    4.9680  -23.3290 P.3   1218  MGO1218     0.2189
     11  OAK      -19.0910    3.8740  -23.6010 O.2   1218  MGO1218    -0.5170
     12  OAE      -17.5300    4.9590  -21.9090 O.3   1218  MGO1218    -0.4371
     13  O5'      -16.7830    4.6810  -24.3980 O.3   1218  MGO1218    -0.3112
     14  C5'      -15.4700    5.2140  -24.2230 C.3   1218  MGO1218     0.1813
     15  C4'      -14.4480    4.1880  -24.6970 C.3   1218  MGO1218     0.1799
     16  O4'      -14.4580    3.0450  -23.7850 O.3   1218  MGO1218    -0.3326
     17  C3'      -14.8640    3.5870  -26.0390 C.3   1218  MGO1218     0.2158
     18  O3'      -14.4550    4.4070  -27.1360 O.3   1218  MGO1218    -0.2175
     19  C2'      -14.0760    2.3080  -26.0320 C.3   1218  MGO1218     0.2309
     20  O2'      -12.6960    2.5620  -26.3460 O.3   1218  MGO1218    -0.2158
     21  C1'      -14.2010    1.8560  -24.5700 C.3   1218  MGO1218     0.2271
     22  NBC      -15.3290    0.8680  -24.4060 N.pl3 1218  MGO1218    -0.2678
     23  CAN      -16.5540    1.1190  -23.9540 C.3   1218  MGO1218     0.1908
     24  NBD      -17.2440   -0.0150  -23.9660 N.pl3 1218  MGO1218    -0.2784
     25  CAA      -18.6740   -0.0630  -23.5160 C.3   1218  MGO1218     0.1145
     26  CAX      -16.4510   -0.9880  -24.4190 C.2   1218  MGO1218     0.1553
     27  CAW      -15.2620   -0.4280  -24.6930 C.2   1218  MGO1218     0.0624
     28  CAM      -14.2410   -1.1400  -25.1730 C.3   1218  MGO1218     0.1221
     29  CAU      -14.3710   -2.4980  -25.4080 C.2   1218  MGO1218     0.2152
     30  NAB      -13.3440   -3.1890  -25.8910 N.pl3 1218  MGO1218    -0.0966
     31  NAP      -15.6050   -3.1040  -25.1360 N.2   1218  MGO1218    -0.3176
     32  CAV      -16.6520   -2.3080  -24.6260 C.1   1218  MGO1218     0.2205
     33  OAC      -17.7290   -2.8480  -24.3810 O.2   1218  MGO1218    -0.2080
@<TRIPOS>BOND
     1     1     2    2
     2    18    17    1
     3     4     2    1
     4    20    19    1
     5     2     3    1
     6     2     5    1
     7    17    19    1
     8    17    15    1
     9    19    21    1
    10    30    29    1
    11    29    28    1
    12    29    31    2
    13    28    27    1
    14    31    32    2
    15     5     6    1
    16    15    14    1
    17    15    16    1
    18    27    26    2
    19    27    22    1
    20    32    26    1
    21    32    33    2
    22    21    22    1
    23    21    16    1
    24    26    24    1
    25    22    23    1
    26    13    14    1
    27    13    10    1
    28    24    23    1
    29    24    25    1
    30     9     6    1
    31     9    10    1
    32    11    10    2
    33     6     8    2
    34     6     7    1
    35    10    12    1
