@<TRIPOS>MOLECULE
4aze_III_G_1.pdb
 25 24 0 0 0
SMALL
GASTEIGER

@<TRIPOS>ATOM
      1  N        -77.1570  -24.5500   13.5310 N.3   899  UNK899     -0.1231
      2  CA       -76.0720  -23.5630   13.2680 C.3   899  UNK899      0.1694
      3  C        -75.1460  -24.0270   12.1290 C.2   899  UNK899      0.2593
      4  O        -75.0840  -25.2170   11.8040 O.2   899  UNK899     -0.2718
      5  CB       -75.2750  -23.3000   14.5430 C.3   899  UNK899      0.0304
      6  N        -74.4470  -23.0730   11.5180 N.am  900  SER900     -0.1939
      7  CA       -73.4520  -23.3560   10.4700 C.3   900  SER900      0.2027
      8  CB       -73.7230  -22.3920    9.3230 C.3   900  SER900      0.1847
      9  OG       -72.9350  -21.2480    9.5630 O.3   900  SER900     -0.2679
     10  C        -72.0530  -23.2000   11.0530 C.2   900  SER900      0.2642
     11  O        -71.9120  -22.9470   12.2550 O.2   900  SER900     -0.2714
     12  P        -73.5130  -19.7700    9.3700 P.3   900  SER900      0.5327
     13  O1P      -72.2780  -18.9690    9.6870 O.3   900  SER900     -0.1145
     14  O2P      -73.9670  -19.8150    7.9380 O.2   900  SER900     -0.2224
     15  O3P      -74.6060  -19.5640   10.3830 O.3   900  SER900     -0.1145
     16  N        -71.0140  -23.3320   10.2170 N.am  901  UNK901     -0.1963
     17  CA       -69.6030  -23.3430   10.6830 C.3   901  UNK901      0.1728
     18  C        -68.7920  -22.0700   10.3410 C.2   901  UNK901      0.2616
     19  O        -68.2580  -21.9440    9.2330 O.2   901  UNK901     -0.2715
     20  CB       -68.8860  -24.5790   10.1430 C.3   901  UNK901      0.0334
     21  N        -68.7090  -21.1470   11.3060 N.am  902  UNK902     -0.1977
     22  CA       -67.8550  -19.9410   11.2380 C.3   902  UNK902      0.1597
     23  C        -68.4310  -18.8470   12.1280 C.2   902  UNK902      0.2287
     24  O        -67.8280  -17.7880   12.2880 O.2   902  UNK902     -0.2864
     25  CB       -67.6950  -19.4220    9.8090 C.3   902  UNK902      0.0319
@<TRIPOS>BOND
     1    14    12    2
     2    19    18    2
     3     8     9    1
     4     8     7    1
     5    12     9    1
     6    12    13    1
     7    12    15    1
     8    25    22    1
     9    20    17    1
    10    16    17    1
    11    16    10   am
    12    18    17    1
    13    18    21   am
    14     7    10    1
    15     7     6    1
    16    10    11    2
    17    22    21    1
    18    22    23    1
    19     6     3   am
    20     4     3    2
    21    23    24    2
    22     3     2    1
    23     2     1    1
    24     2     5    1
