@<TRIPOS>MOLECULE
4aze_3RA_A_1.pdb
 23 26 0 0 0
SMALL
GASTEIGER

@<TRIPOS>ATOM
      1  CAA      -38.2640  -19.3670   25.0830 C.ar  700  3RA700      0.0174
      2  CAB      -38.0660  -18.0870   24.5790 C.ar  700  3RA700      0.0014
      3  CAC      -37.8160  -17.8390   23.2400 C.ar  700  3RA700      0.0001
      4  CAD      -37.7450  -18.9100   22.3760 C.ar  700  3RA700      0.0014
      5  CAE      -37.9340  -20.2030   22.8710 C.ar  700  3RA700      0.0174
      6  CAF      -38.1920  -20.4400   24.2190 C.ar  700  3RA700      0.0835
      7  NAG      -38.3790  -21.6870   24.6360 N.pl3 700  3RA700     -0.1248
      8  CAH      -37.8670  -22.1410   25.7720 C.1   700  3RA700      0.2354
      9  NAI      -37.2150  -21.4330   26.6940 N.2   700  3RA700     -0.3174
     10  CAJ      -36.8410  -22.2760   27.6490 C.2   700  3RA700      0.2209
     11  CAK      -37.3080  -23.5170   27.2650 C.1   700  3RA700      0.2428
     12  NAL      -37.9260  -23.4150   26.1070 N.2   700  3RA700     -0.2489
     13  OAM      -37.1760  -24.5610   27.9020 O.2   700  3RA700     -0.2062
     14  CAN      -36.1510  -22.1290   28.8580 C.3   700  3RA700      0.0998
     15  CAO      -35.6010  -20.9340   29.3480 C.ar  700  3RA700     -0.0111
     16  CAP      -35.8350  -19.6940   28.7680 C.ar  700  3RA700      0.0364
     17  CAQ      -35.2480  -18.5640   29.2960 C.ar  700  3RA700      0.1761
     18  CAR      -34.4400  -18.6560   30.4200 C.ar  700  3RA700      0.1764
     19  CAS      -34.2130  -19.8830   31.0090 C.ar  700  3RA700      0.0399
     20  CAT      -34.8010  -21.0200   30.4820 C.ar  700  3RA700     -0.0005
     21  OAU      -35.3080  -17.2640   28.9090 O.3   700  3RA700     -0.4346
     22  CAV      -34.1450  -16.6840   29.5010 C.3   700  3RA700      0.4294
     23  OAW      -34.0000  -17.4170   30.7430 O.3   700  3RA700     -0.4346
@<TRIPOS>BOND
     1     4     5   ar
     2     4     3   ar
     3     5     6   ar
     4     3     2   ar
     5     6     7    1
     6     6     1   ar
     7     2     1   ar
     8     7     8    1
     9     8    12    2
    10     8     9    2
    11    12    11    2
    12     9    10    2
    13    11    10    1
    14    11    13    2
    15    10    14    1
    16    16    17   ar
    17    16    15   ar
    18    14    15    1
    19    21    17    1
    20    21    22    1
    21    17    18   ar
    22    15    20   ar
    23    22    23    1
    24    18    23    1
    25    18    19   ar
    26    20    19   ar
