@<TRIPOS>MOLECULE
4azs_SAM_A_1.pdb
 27 29 0 0 0
SMALL
GASTEIGER

@<TRIPOS>ATOM
      1  N          9.6360  -36.7730  -19.3060 N.3   1475  SAM1475    -0.1208
      2  CA        10.1300  -36.3720  -20.6290 C.3   1475  SAM1475     0.1952
      3  C         11.5990  -36.6570  -20.7000 C.2   1475  SAM1475     0.3819
      4  O         12.2810  -36.4380  -19.6690 O.co2 1475  SAM1475    -0.2441
      5  OXT       12.0640  -37.1110  -21.7460 O.co2 1475  SAM1475    -0.2441
      6  CB         9.8550  -34.9060  -20.9090 C.3   1475  SAM1475     0.0414
      7  CG        10.3970  -33.8450  -19.9700 C.3   1475  SAM1475     0.0503
      8  SD         9.8600  -32.2750  -20.3820 S.3   1475  SAM1475    -0.1761
      9  CE        11.0290  -31.2170  -19.8780 C.3   1475  SAM1475     0.0590
     10  C5'        8.5370  -32.0370  -19.3680 C.3   1475  SAM1475     0.0806
     11  C4'        7.2430  -32.6810  -19.9060 C.3   1475  SAM1475     0.1622
     12  O4'        6.2290  -32.7000  -18.9190 O.3   1475  SAM1475    -0.3153
     13  C3'        6.6000  -31.8720  -21.0490 C.3   1475  SAM1475     0.2168
     14  O3'        6.1720  -32.8170  -22.0320 O.3   1475  SAM1475    -0.2175
     15  C2'        5.3890  -31.1400  -20.4800 C.3   1475  SAM1475     0.2569
     16  O2'        4.2680  -31.0620  -21.3580 O.3   1475  SAM1475    -0.2130
     17  C1'        4.9850  -32.1090  -19.3900 C.3   1475  SAM1475     0.3185
     18  N9         4.3700  -31.5140  -18.1910 N.pl3 1475  SAM1475    -0.1439
     19  C8         4.8840  -30.4960  -17.4510 C.3   1475  SAM1475     0.3377
     20  N7         4.1140  -30.2840  -16.3650 N.2   1475  SAM1475    -0.2095
     21  C5         3.0780  -31.1700  -16.4220 C.2   1475  SAM1475     0.2526
     22  C6         1.9290  -31.4760  -15.5870 C.2   1475  SAM1475     0.4393
     23  N6         1.7570  -30.7050  -14.4790 N.pl3 1475  SAM1475     0.2180
     24  N1         1.1100  -32.5000  -15.9480 N.2   1475  SAM1475     0.0021
     25  C2         1.3260  -33.2020  -17.0660 C.3   1475  SAM1475     0.5254
     26  N3         2.3930  -32.9760  -17.8830 N.2   1475  SAM1475    -0.0055
     27  C4         3.2640  -31.9920  -17.6070 C.2   1475  SAM1475     0.3518
@<TRIPOS>BOND
     1    14    13    1
     2     5     3   ar
     3    16    15    1
     4    13    15    1
     5    13    11    1
     6     6     2    1
     7     6     7    1
     8     3     2    1
     9     3     4   ar
    10     2     1    1
    11    15    17    1
    12     8     7    1
    13     8     9    1
    14     8    10    1
    15    11    10    1
    16    11    12    1
    17    17    12    1
    18    17    18    1
    19    18    27    1
    20    18    19    1
    21    26    27    2
    22    26    25    1
    23    27    21    1
    24    19    20    1
    25    25    24    1
    26    21    20    2
    27    21    22    1
    28    24    22    2
    29    22    23    1
