@<TRIPOS>MOLECULE
4azs_AMP_A_1.pdb
 23 25 0 0 0
SMALL
GASTEIGER

@<TRIPOS>ATOM
      1  P         21.0970  -50.6900   14.6700 P.3   1474  AMP1474     0.5327
      2  O1P       21.8610  -49.4040   14.9730 O.3   1474  AMP1474    -0.1145
      3  O2P       20.6000  -51.3660   15.9210 O.3   1474  AMP1474    -0.1145
      4  O3P       21.7350  -51.6200   13.6600 O.2   1474  AMP1474    -0.2224
      5  O5'       19.7760  -50.1890   13.8870 O.3   1474  AMP1474    -0.2675
      6  C5'       18.5200  -50.0590   14.5380 C.3   1474  AMP1474     0.1860
      7  C4'       17.8090  -51.4050   14.4810 C.3   1474  AMP1474     0.1823
      8  O4'       18.4900  -52.3590   13.6460 O.3   1474  AMP1474    -0.3135
      9  C3'       17.6980  -52.0530   15.8510 C.3   1474  AMP1474     0.2184
     10  O3'       16.3160  -52.1570   16.2070 O.3   1474  AMP1474    -0.2174
     11  C2'       18.3760  -53.4140   15.7080 C.3   1474  AMP1474     0.2570
     12  O2'       17.7310  -54.4330   16.4710 O.3   1474  AMP1474    -0.2130
     13  C1'       18.2780  -53.6410   14.2190 C.3   1474  AMP1474     0.3186
     14  N9        19.2150  -54.5900   13.6090 N.pl3 1474  AMP1474    -0.1439
     15  C8        20.4010  -54.3510   13.0450 C.3   1474  AMP1474     0.3377
     16  N7        20.9120  -55.4940   12.5300 N.2   1474  AMP1474    -0.2095
     17  C5        20.0090  -56.4720   12.7660 C.2   1474  AMP1474     0.2526
     18  C6        19.9010  -57.9180   12.5130 C.2   1474  AMP1474     0.4393
     19  N6        20.8890  -58.5790   11.8640 N.pl3 1474  AMP1474     0.2180
     20  N1        18.7890  -58.5520   12.9200 N.2   1474  AMP1474     0.0021
     21  C2        17.8010  -57.8980   13.5470 C.3   1474  AMP1474     0.5254
     22  N3        17.8460  -56.5900   13.8370 N.2   1474  AMP1474    -0.0055
     23  C4        18.9120  -55.8600   13.4730 C.2   1474  AMP1474     0.3518
@<TRIPOS>BOND
     1    19    18    1
     2    18    17    1
     3    18    20    2
     4    16    17    2
     5    16    15    1
     6    17    23    1
     7    20    21    1
     8    15    14    1
     9    23    14    1
    10    23    22    2
    11    21    22    1
    12    14    13    1
    13     8    13    1
    14     8     7    1
    15     4     1    2
    16     5     6    1
    17     5     1    1
    18    13    11    1
    19     7     6    1
    20     7     9    1
    21     1     2    1
    22     1     3    1
    23    11     9    1
    24    11    12    1
    25     9    10    1
