@<TRIPOS>MOLECULE
4azt_SAM_A_1.pdb
 27 29 0 0 0
SMALL
GASTEIGER

@<TRIPOS>ATOM
      1  N          9.5950  -36.7400  -19.2630 N.3   1472  SAM1472    -0.1208
      2  CA        10.0140  -36.4020  -20.6280 C.3   1472  SAM1472     0.1952
      3  C         11.5010  -36.6790  -20.7450 C.2   1472  SAM1472     0.3819
      4  O         12.2800  -36.4040  -19.8060 O.co2 1472  SAM1472    -0.2441
      5  OXT       11.9510  -37.2000  -21.7710 O.co2 1472  SAM1472    -0.2441
      6  CB         9.7190  -34.9290  -20.9520 C.3   1472  SAM1472     0.0414
      7  CG        10.3820  -33.8860  -20.0490 C.3   1472  SAM1472     0.0503
      8  SD         9.9350  -32.3000  -20.4020 S.3   1472  SAM1472    -0.1761
      9  CE        11.0890  -31.2810  -19.7710 C.3   1472  SAM1472     0.0590
     10  C5'        8.6080  -32.0340  -19.3650 C.3   1472  SAM1472     0.0806
     11  C4'        7.2930  -32.6370  -19.9160 C.3   1472  SAM1472     0.1622
     12  O4'        6.2570  -32.6320  -18.9440 O.3   1472  SAM1472    -0.3153
     13  C3'        6.7060  -31.7890  -21.0490 C.3   1472  SAM1472     0.2168
     14  O3'        6.3270  -32.7290  -22.0490 O.3   1472  SAM1472    -0.2175
     15  C2'        5.4410  -31.1050  -20.5210 C.3   1472  SAM1472     0.2569
     16  O2'        4.3490  -31.1240  -21.4590 O.3   1472  SAM1472    -0.2130
     17  C1'        5.0080  -32.0780  -19.4540 C.3   1472  SAM1472     0.3185
     18  N9         4.3990  -31.5010  -18.2590 N.pl3 1472  SAM1472    -0.1439
     19  C8         4.9260  -30.4770  -17.5080 C.3   1472  SAM1472     0.3377
     20  N7         4.1770  -30.2620  -16.4010 N.2   1472  SAM1472    -0.2095
     21  C5         3.1560  -31.1530  -16.4550 C.2   1472  SAM1472     0.2526
     22  C6         2.0200  -31.4690  -15.5980 C.2   1472  SAM1472     0.4393
     23  N6         1.8230  -30.7250  -14.4860 N.pl3 1472  SAM1472     0.2180
     24  N1         1.2090  -32.4830  -15.9440 N.2   1472  SAM1472     0.0021
     25  C2         1.4070  -33.1920  -17.0670 C.3   1472  SAM1472     0.5254
     26  N3         2.4330  -32.9620  -17.9050 N.2   1472  SAM1472    -0.0055
     27  C4         3.3040  -31.9680  -17.6680 C.2   1472  SAM1472     0.3518
@<TRIPOS>BOND
     1    14    13    1
     2     5     3   ar
     3    16    15    1
     4    13    15    1
     5    13    11    1
     6     6     2    1
     7     6     7    1
     8     3     2    1
     9     3     4   ar
    10     2     1    1
    11    15    17    1
    12     8     7    1
    13     8     9    1
    14     8    10    1
    15    11    10    1
    16    11    12    1
    17    17    12    1
    18    17    18    1
    19    18    27    1
    20    18    19    1
    21    26    27    2
    22    26    25    1
    23    27    21    1
    24    19    20    1
    25    25    24    1
    26    21    20    2
    27    21    22    1
    28    24    22    2
    29    22    23    1
