@<TRIPOS>MOLECULE
4azt_LY2_A_1.pdb
 23 26 0 0 0
SMALL
GASTEIGER

@<TRIPOS>ATOM
      1  N14       15.7620  -56.0660   14.9240 N.pl3 1483  LY21483    -0.2742
      2  C15       15.2500  -54.6800   15.0640 C.3   1483  LY21483     0.1257
      3  C19       14.8350  -57.0760   14.3350 C.3   1483  LY21483     0.1257
      4  C11       16.9640  -56.0320   14.3210 C.ar  1483  LY21483     0.2024
      5  C16       13.8200  -54.6340   15.4670 C.3   1483  LY21483     0.1637
      6  O17       13.0780  -55.3620   14.4770 O.3   1483  LY21483    -0.3501
      7  C18       13.3730  -56.7870   14.6880 C.3   1483  LY21483     0.1637
      8  C1        21.4440  -54.4580   12.7670 C.ar  1483  LY21483     0.0003
      9  C2        20.8370  -55.7270   12.7960 C.ar  1483  LY21483     0.0062
     10  C6        20.7670  -53.3280   13.2420 C.ar  1483  LY21483     0.0030
     11  C3        19.5360  -55.8940   13.2810 C.ar  1483  LY21483     0.0736
     12  C4        18.8920  -54.7600   13.7570 C.ar  1483  LY21483     0.1498
     13  C9        18.8910  -57.1450   13.3360 C.ar  1483  LY21483     0.2030
     14  C5        19.4590  -53.4990   13.7410 C.ar  1483  LY21483     0.0347
     15  O12       17.6080  -54.8260   14.2600 O.2   1483  LY21483    -0.4398
     16  C20       18.6700  -52.4650   14.2330 C.ar  1483  LY21483     0.0029
     17  C25       18.7010  -51.1950   13.6520 C.ar  1483  LY21483     0.0001
     18  C24       17.8770  -50.1540   14.1300 C.ar  1483  LY21483     0.0000
     19  C21       17.7870  -52.7110   15.2910 C.ar  1483  LY21483     0.0001
     20  C22       16.9760  -51.6740   15.7760 C.ar  1483  LY21483     0.0000
     21  C23       17.0160  -50.3930   15.2040 C.ar  1483  LY21483     0.0000
     22  C10       17.6030  -57.2030   13.8810 C.ar  1483  LY21483     0.0955
     23  O13       19.3940  -58.1900   12.8940 O.2   1483  LY21483    -0.2863
@<TRIPOS>BOND
     1     8     9   ar
     2     8    10   ar
     3     9    11   ar
     4    23    13    2
     5    10    14   ar
     6    11    13   ar
     7    11    12   ar
     8    13    22   ar
     9    17    18   ar
    10    17    16   ar
    11    14    12   ar
    12    14    16    1
    13    12    15   ar
    14    22     4   ar
    15    18    21   ar
    16    16    19   ar
    17    15     4   ar
    18     4     1    1
    19     3     7    1
    20     3     1    1
    21     6     7    1
    22     6     5    1
    23     1     2    1
    24     2     5    1
    25    21    20   ar
    26    19    20   ar
