@<TRIPOS>MOLECULE
4azv_SAM_A_1.pdb
 45 47 0 0 0
SMALL
GASTEIGER

@<TRIPOS>ATOM
      1  N          9.5640  -36.8710  -19.4190 N.3   1474  SAM1474    -0.2420
      2  CA        10.0850  -36.4680  -20.7190 C.3   1474  SAM1474     0.1238
      3  C         11.6040  -36.6290  -20.8170 C.2   1474  SAM1474     0.3739
      4  O         12.3790  -36.2460  -19.9460 O.co2 1474  SAM1474    -0.2446
      5  OXT       12.1450  -37.1520  -21.7840 O.co2 1474  SAM1474    -0.2446
      6  CB         9.7120  -35.0210  -20.9950 C.3   1474  SAM1474    -0.0174
      7  CG        10.2580  -33.9990  -20.0060 C.3   1474  SAM1474    -0.0123
      8  SD         9.6720  -32.3640  -20.4700 S.3   1474  SAM1474    -0.1952
      9  CE        10.8810  -31.2710  -19.7010 C.3   1474  SAM1474     0.0577
     10  C5'        8.2330  -32.1520  -19.3990 C.3   1474  SAM1474     0.0146
     11  C4'        7.0020  -32.8240  -19.9790 C.3   1474  SAM1474     0.0977
     12  O4'        6.0340  -32.9340  -18.9740 O.3   1474  SAM1474    -0.3489
     13  C3'        6.3660  -32.0420  -21.1000 C.3   1474  SAM1474     0.1119
     14  O3'        6.0450  -32.9360  -22.1360 O.3   1474  SAM1474    -0.3865
     15  C2'        5.1170  -31.4310  -20.4960 C.3   1474  SAM1474     0.1266
     16  O2'        4.0740  -31.3500  -21.4330 O.3   1474  SAM1474    -0.3849
     17  C1'        4.8010  -32.3990  -19.3690 C.3   1474  SAM1474     0.1617
     18  N9         4.1840  -31.8430  -18.1610 N.pl3 1474  SAM1474    -0.2234
     19  C8         4.6200  -30.7950  -17.4030 C.2   1474  SAM1474     0.1451
     20  N7         3.7570  -30.6370  -16.3750 N.2   1474  SAM1474    -0.3871
     21  C5         2.8060  -31.5800  -16.4670 C.2   1474  SAM1474     0.2211
     22  C6         1.7110  -31.8610  -15.6980 C.2   1474  SAM1474     0.2227
     23  N6         1.4180  -31.1480  -14.6190 N.pl3 1474  SAM1474    -0.3300
     24  N1         0.9250  -32.9070  -16.0880 N.2   1474  SAM1474    -0.3296
     25  C2         1.1940  -33.6890  -17.1830 C.1   1474  SAM1474     0.0930
     26  N3         2.2870  -33.3910  -17.9470 N.2   1474  SAM1474    -0.3287
     27  C4         3.0680  -32.3540  -17.5810 C.2   1474  SAM1474     0.2354
     28  HN1        9.4940  -37.7230  -19.3190 H     1474  SAM1474     0.1415
     29  HA         9.6770  -37.0260  -21.4140 H     1474  SAM1474     0.0591
     30  HB1       10.0660  -34.7630  -21.9940 H     1474  SAM1474     0.0294
     31  HB2        8.6250  -34.9460  -21.0100 H     1474  SAM1474     0.0294
     32  HG1       11.3480  -34.0190  -20.0160 H     1474  SAM1474     0.0369
     33  HG2        9.9210  -34.2420  -18.9980 H     1474  SAM1474     0.0369
     34 H5'1        8.0350  -31.0890  -19.2660 H     1474  SAM1474     0.0395
     35 H5'2        8.4470  -32.5760  -18.4180 H     1474  SAM1474     0.0395
     36  H4'        7.2760  -33.8130  -20.3460 H     1474  SAM1474     0.0631
     37  H3'        7.0420  -31.2590  -21.4440 H     1474  SAM1474     0.0647
     38 HO3'        5.0720  -32.9720  -22.2460 H     1474  SAM1474     0.2100
     39  H2'        5.3500  -30.4490  -20.0830 H     1474  SAM1474     0.0663
     40 HO2'        3.3440  -31.9450  -21.1620 H     1474  SAM1474     0.2101
     41  H1'        4.1710  -33.1940  -19.7660 H     1474  SAM1474     0.0841
     42  H8         5.4920  -30.1730  -17.6100 H     1474  SAM1474     0.1149
     43 HN61        2.0130  -30.3720  -14.3460 H     1474  SAM1474     0.1448
     44 HN62        0.6010  -31.3810  -14.0630 H     1474  SAM1474     0.1448
     45  H2         0.4370  -34.3780  -17.5590 H     1474  SAM1474     0.1751
@<TRIPOS>BOND
     1    38    14    1
     2    14    13    1
     3    30     6    1
     4     5     3   ar
     5    37    13    1
     6    16    40    1
     7    16    15    1
     8    29     2    1
     9    13    15    1
    10    13    11    1
    11    31     6    1
    12     6     2    1
    13     6     7    1
    14     3     2    1
    15     3     4   ar
    16     2     1    1
    17    15    39    1
    18    15    17    1
    19     8     7    1
    20     8     9    1
    21     8    10    1
    22    36    11    1
    23    32     7    1
    24     7    33    1
    25    11    10    1
    26    11    12    1
    27    41    17    1
    28     1    28    1
    29    10    34    1
    30    10    35    1
    31    17    12    1
    32    17    18    1
    33    18    27    1
    34    18    19    1
    35    26    27    2
    36    26    25    2
    37    42    19    1
    38    27    21    1
    39    45    25    1
    40    19    20    2
    41    25    24    2
    42    21    20    2
    43    21    22    1
    44    24    22    2
    45    22    23    1
    46    23    43    1
    47    23    44    1
