@<TRIPOS>MOLECULE
4azw_SAM_A_1.pdb
 27 29 0 0 0
SMALL
GASTEIGER

@<TRIPOS>ATOM
      1  N        -25.7390   28.2470  -45.7370 N.3   1451  SAM1451    -0.1208
      2  CA       -25.2900   28.8330  -47.0100 C.3   1451  SAM1451     0.1952
      3  C        -23.8010   28.8830  -47.0850 C.2   1451  SAM1451     0.3819
      4  O        -23.1550   29.2400  -46.0720 O.co2 1451  SAM1451    -0.2441
      5  OXT      -23.2450   28.5990  -48.1670 O.co2 1451  SAM1451    -0.2441
      6  CB       -25.7900   30.2610  -47.3080 C.3   1451  SAM1451     0.0414
      7  CG       -25.5090   31.3600  -46.2760 C.3   1451  SAM1451     0.0503
      8  SD       -26.3090   32.7920  -46.6670 S.3   1451  SAM1451    -0.1761
      9  CE       -25.2550   34.0330  -46.2730 C.3   1451  SAM1451     0.0590
     10  C5'      -27.7080   33.0610  -45.7860 C.3   1451  SAM1451     0.0806
     11  C4'      -28.9160   32.3090  -46.3300 C.3   1451  SAM1451     0.1622
     12  O4'      -29.8630   32.1860  -45.2750 O.3   1451  SAM1451    -0.3153
     13  C3'      -29.6490   33.0380  -47.4520 C.3   1451  SAM1451     0.2168
     14  O3'      -29.8450   32.1150  -48.5050 O.3   1451  SAM1451    -0.2175
     15  C2'      -30.9490   33.5230  -46.8380 C.3   1451  SAM1451     0.2569
     16  O2'      -32.0600   33.4230  -47.7160 O.3   1451  SAM1451    -0.2130
     17  C1'      -31.1480   32.5820  -45.6760 C.3   1451  SAM1451     0.3185
     18  N9       -31.7100   33.1410  -44.4440 N.pl3 1451  SAM1451    -0.1439
     19  C8       -31.3060   34.2030  -43.7250 C.3   1451  SAM1451     0.3377
     20  N7       -32.0940   34.3540  -42.6130 N.2   1451  SAM1451    -0.2095
     21  C5       -32.9910   33.3690  -42.6270 C.2   1451  SAM1451     0.2526
     22  C6       -34.0860   32.9250  -41.7850 C.2   1451  SAM1451     0.4393
     23  N6       -34.4080   33.6050  -40.6600 N.pl3 1451  SAM1451     0.2180
     24  N1       -34.7900   31.8510  -42.1630 N.2   1451  SAM1451     0.0021
     25  C2       -34.5000   31.1580  -43.2610 C.3   1451  SAM1451     0.5254
     26  N3       -33.5190   31.4860  -44.0760 N.2   1451  SAM1451    -0.0055
     27  C4       -32.7460   32.5780  -43.8230 C.2   1451  SAM1451     0.3518
@<TRIPOS>BOND
     1    14    13    1
     2     5     3   ar
     3    16    15    1
     4    13    15    1
     5    13    11    1
     6     6     2    1
     7     6     7    1
     8     3     2    1
     9     3     4   ar
    10     2     1    1
    11    15    17    1
    12     8     7    1
    13     8     9    1
    14     8    10    1
    15    11    10    1
    16    11    12    1
    17    17    12    1
    18    17    18    1
    19    18    27    1
    20    18    19    1
    21    26    27    2
    22    26    25    1
    23    27    21    1
    24    19    20    1
    25    25    24    1
    26    21    20    2
    27    21    22    1
    28    24    22    2
    29    22    23    1
