@<TRIPOS>MOLECULE
4azw_ATP_A_1.pdb
 31 33 0 0 0
SMALL
GASTEIGER

@<TRIPOS>ATOM
      1  PG        -8.9010   18.1820  -10.4810 P.3   1450  ATP1450     0.5373
      2  O1G       -9.3830   19.5820  -10.2390 O.3   1450  ATP1450    -0.1143
      3  O2G       -9.4740   17.1280   -9.5300 O.3   1450  ATP1450    -0.1143
      4  O3G       -7.3940   18.2200  -10.6210 O.2   1450  ATP1450    -0.2221
      5  PB        -8.9520   17.0850  -13.2310 P.3   1450  ATP1450     0.2277
      6  O1B       -7.5450   16.6230  -12.9560 O.3   1450  ATP1450    -0.4368
      7  O2B       -9.2710   17.9300  -14.4280 O.2   1450  ATP1450    -0.5168
      8  O3B       -9.5710   17.8370  -11.9320 O.3   1450  ATP1450    -0.2258
      9  PA        -9.8870   14.3800  -12.8410 P.3   1450  ATP1450     0.2189
     10  O1A       -9.9900   14.5770  -11.3520 O.3   1450  ATP1450    -0.4371
     11  O2A       -8.9010   13.4240  -13.3990 O.2   1450  ATP1450    -0.5170
     12  O3A       -9.8350   15.7810  -13.6100 O.3   1450  ATP1450    -0.2700
     13  O5'      -11.2850   13.8170  -13.3960 O.3   1450  ATP1450    -0.3112
     14  C5'      -12.4900   14.5090  -13.1800 C.3   1450  ATP1450     0.1813
     15  C4'      -13.5800   13.5820  -12.6820 C.3   1450  ATP1450     0.1821
     16  O4'      -13.9430   12.5710  -13.6590 O.3   1450  ATP1450    -0.3135
     17  C3'      -13.1290   12.8250  -11.4420 C.3   1450  ATP1450     0.2184
     18  O3'      -13.3240   13.5190  -10.2280 O.3   1450  ATP1450    -0.2174
     19  C2'      -13.9760   11.5860  -11.5360 C.3   1450  ATP1450     0.2570
     20  O2'      -15.2890   11.8740  -11.1210 O.3   1450  ATP1450    -0.2130
     21  C1'      -14.0550   11.2930  -13.0130 C.3   1450  ATP1450     0.3186
     22  N9       -13.0130   10.4000  -13.5920 N.pl3 1450  ATP1450    -0.1439
     23  C8       -11.8790   10.8050  -14.1960 C.3   1450  ATP1450     0.3377
     24  N7       -11.2010    9.7370  -14.7270 N.2   1450  ATP1450    -0.2095
     25  C5       -11.9650    8.6470  -14.4780 C.2   1450  ATP1450     0.2526
     26  C6       -11.8590    7.2240  -14.7470 C.2   1450  ATP1450     0.4393
     27  N6       -10.7900    6.7500  -15.3910 N.pl3 1450  ATP1450     0.2180
     28  N1       -12.8330    6.4090  -14.3110 N.2   1450  ATP1450     0.0021
     29  C2       -13.9330    6.8730  -13.6640 C.3   1450  ATP1450     0.5254
     30  N3       -14.0780    8.1630  -13.3840 N.2   1450  ATP1450    -0.0055
     31  C4       -13.1260    9.0740  -13.7220 C.2   1450  ATP1450     0.3518
@<TRIPOS>BOND
     1    27    26    1
     2    26    25    1
     3    26    28    2
     4    24    25    2
     5    24    23    1
     6    25    31    1
     7     7     5    2
     8    28    29    1
     9    23    22    1
    10    31    22    1
    11    31    30    2
    12    29    30    1
    13    16    21    1
    14    16    15    1
    15    12     5    1
    16    12     9    1
    17    22    21    1
    18    11     9    2
    19    13    14    1
    20    13     9    1
    21     5     6    1
    22     5     8    1
    23    14    15    1
    24    21    19    1
    25     9    10    1
    26    15    17    1
    27     8     1    1
    28    19    17    1
    29    19    20    1
    30    17    18    1
    31     4     1    2
    32     1     2    1
    33     1     3    1
