@<TRIPOS>MOLECULE
4azy_7F3_A_1.pdb
 34 38 0 0 0
SMALL
GASTEIGER

@<TRIPOS>ATOM
      1  C1         8.2810    3.0250  -18.2660 C.ar  1507  7F31507     0.0021
      2  C2         7.7380    2.6200  -19.4940 C.ar  1507  7F31507     0.0008
      3  C3         6.3820    2.8480  -19.7560 C.ar  1507  7F31507     0.0393
      4  C4         5.5500    3.3770  -18.7610 C.ar  1507  7F31507     0.1181
      5  C5         6.0860    3.7580  -17.5170 C.ar  1507  7F31507     0.1473
      6  C6         7.4590    3.5860  -17.2770 C.ar  1507  7F31507     0.0299
      7  F7         5.2880    4.3430  -16.5850 F     1507  7F31507    -0.2039
      8  C8         4.1840    3.3980  -19.3330 C.2   1507  7F31507     0.4131
      9  N9         4.1810    2.9500  -20.5440 N.2   1507  7F31507    -0.0540
     10  C10        5.5350    2.5630  -20.9970 C.3   1507  7F31507     0.2311
     11  C11        5.7060    1.0900  -21.3190 C.ar  1507  7F31507     0.0298
     12  C12        6.5160    0.6550  -22.3850 C.ar  1507  7F31507     0.0027
     13  C13        6.7180   -0.7030  -22.6130 C.ar  1507  7F31507     0.0295
     14  C14        6.1280   -1.6380  -21.7650 C.ar  1507  7F31507     0.1402
     15  C15        5.3320   -1.2260  -20.6780 C.ar  1507  7F31507     0.0303
     16  C16        5.1550    0.1470  -20.4700 C.ar  1507  7F31507     0.0027
     17  C17        4.7120   -2.2120  -19.7110 C.ar  1507  7F31507     0.0405
     18  C18        5.4520   -3.2990  -19.1640 C.ar  1507  7F31507     0.1022
     19  N19        4.8990   -4.1080  -18.2490 N.ar  1507  7F31507    -0.2224
     20  C20        3.6430   -3.8390  -17.8710 C.ar  1507  7F31507     0.1989
     21  N21        2.8710   -2.8480  -18.3160 N.ar  1507  7F31507    -0.2224
     22  C22        3.3860   -2.0400  -19.2450 C.ar  1507  7F31507     0.1022
     23  F23        6.3350   -2.9450  -21.9610 F     1507  7F31507    -0.2042
     24  C24        5.8660    3.4360  -22.2120 C.ar  1507  7F31507     0.0327
     25  C25        7.0800    4.1420  -22.3190 C.ar  1507  7F31507     0.0211
     26  C26        7.3370    4.9510  -23.4270 C.ar  1507  7F31507     0.0986
     27  N27        6.5180    5.0190  -24.4600 N.ar  1507  7F31507    -0.2399
     28  C28        5.3740    4.3420  -24.3950 C.ar  1507  7F31507     0.1525
     29  C29        4.9830    3.5540  -23.3080 C.ar  1507  7F31507     0.0235
     30  C30        4.4350    4.4930  -25.5640 C.3   1507  7F31507     0.4348
     31  F31        4.9410    3.8260  -26.6580 F     1507  7F31507    -0.1644
     32  F32        3.1810    3.9740  -25.3000 F     1507  7F31507    -0.1644
     33  F33        4.2250    5.8190  -25.8810 F     1507  7F31507    -0.1644
     34  N34        3.0540    3.8180  -18.6680 N.pl3 1507  7F31507     0.2160
@<TRIPOS>BOND
     1    31    30    1
     2    33    30    1
     3    30    32    1
     4    30    28    1
     5    27    28   ar
     6    27    26   ar
     7    28    29   ar
     8    26    25   ar
     9    29    24   ar
    10    13    12   ar
    11    13    14   ar
    12    12    11   ar
    13    25    24   ar
    14    24    10    1
    15    23    14    1
    16    14    15   ar
    17    11    10    1
    18    11    16   ar
    19    10     9    1
    20    10     3    1
    21    15    16   ar
    22    15    17    1
    23     9     8    2
    24     3     2   ar
    25     3     4   ar
    26    17    22   ar
    27    17    18   ar
    28     2     1   ar
    29     8     4    1
    30     8    34    1
    31    22    21   ar
    32    18    19   ar
    33     4     5   ar
    34    21    20   ar
    35     1     6   ar
    36    19    20   ar
    37     5     6   ar
    38     5     7    1
