@<TRIPOS>MOLECULE
4b00_I6X_A_1.pdb
 36 40 0 0 0
SMALL
GASTEIGER

@<TRIPOS>ATOM
      1  C1         7.4070    8.0310  -22.7420 C.3   1507  I6X1507     0.0266
      2  C2         7.9850    6.6420  -22.9300 C.3   1507  I6X1507     0.1091
      3  N3         6.9370    5.6560  -23.1440 N.ar  1507  I6X1507    -0.2946
      4  C4         6.7130    4.7870  -22.0930 C.ar  1507  I6X1507     0.0786
      5  C5         5.7900    3.8150  -22.1410 C.ar  1507  I6X1507     0.0468
      6  C6         4.9700    3.7420  -23.3430 C.ar  1507  I6X1507     0.0023
      7  C7         5.1170    4.5700  -24.3930 C.ar  1507  I6X1507     0.0342
      8  C8         6.1790    5.6260  -24.3200 C.ar  1507  I6X1507     0.2568
      9  O9         6.3100    6.3960  -25.2630 O.2   1507  I6X1507    -0.2673
     10  C10        4.2890    4.4770  -25.6300 C.3   1507  I6X1507     0.0360
     11  C11        5.5620    2.8120  -21.0190 C.3   1507  I6X1507     0.2324
     12  C12        6.3750    3.1150  -19.7890 C.ar  1507  I6X1507     0.0393
     13  C13        7.7430    3.0340  -19.5900 C.ar  1507  I6X1507     0.0008
     14  C14        8.2610    3.3830  -18.3530 C.ar  1507  I6X1507     0.0021
     15  C15        7.4290    3.8200  -17.3360 C.ar  1507  I6X1507     0.0299
     16  C16        6.0570    3.8700  -17.5320 C.ar  1507  I6X1507     0.1473
     17  C17        5.5570    3.5110  -18.7710 C.ar  1507  I6X1507     0.1181
     18  C18        4.1960    3.4430  -19.3060 C.2   1507  I6X1507     0.4131
     19  N19        4.1830    3.0320  -20.5330 N.2   1507  I6X1507    -0.0539
     20  N20        3.0770    3.7260  -18.5590 N.pl3 1507  I6X1507     0.2160
     21  F21        5.2860    4.3020  -16.5230 F     1507  I6X1507    -0.2039
     22  C22        5.8560    1.3770  -21.4190 C.ar  1507  I6X1507     0.0297
     23  C23        6.6660    1.0800  -22.5070 C.ar  1507  I6X1507     0.0004
     24  C24        6.9510   -0.2350  -22.8390 C.ar  1507  I6X1507    -0.0002
     25  C25        6.4390   -1.2560  -22.0600 C.ar  1507  I6X1507     0.0000
     26  C26        5.6380   -1.0060  -20.9590 C.ar  1507  I6X1507     0.0014
     27  C27        5.3620    0.3220  -20.6550 C.ar  1507  I6X1507     0.0004
     28  C28        5.1520   -2.1100  -20.1190 C.ar  1507  I6X1507     0.0198
     29  C29        3.9610   -2.0860  -19.4070 C.ar  1507  I6X1507     0.0113
     30  C30        3.6380   -3.1260  -18.5580 C.ar  1507  I6X1507     0.0608
     31  C31        4.5050   -4.1970  -18.4710 C.ar  1507  I6X1507     0.1071
     32  N32        5.6470   -4.2860  -19.1580 N.ar  1507  I6X1507    -0.2417
     33  C33        5.9360   -3.2410  -19.9410 C.ar  1507  I6X1507     0.0989
     34  C34        2.4740   -3.1740  -17.7480 C.1   1507  I6X1507    -0.0628
     35  C35        1.4920   -3.2190  -17.0620 C.1   1507  I6X1507    -0.0853
     36  C36        0.2970   -3.2730  -16.2260 C.3   1507  I6X1507     0.0903
@<TRIPOS>BOND
     1    10     7    1
     2     9     8    2
     3     7     8   ar
     4     7     6   ar
     5     8     3   ar
     6     6     5   ar
     7     3     2    1
     8     3     4   ar
     9     2     1    1
    10    24    23   ar
    11    24    25   ar
    12    23    22   ar
    13     5     4   ar
    14     5    11    1
    15    25    26   ar
    16    22    11    1
    17    22    27   ar
    18    11    19    1
    19    11    12    1
    20    26    27   ar
    21    26    28    1
    22    19    18    2
    23    28    33   ar
    24    28    29   ar
    25    33    32   ar
    26    12    13   ar
    27    12    17   ar
    28    13    14   ar
    29    29    30   ar
    30    18    17    1
    31    18    20    1
    32    32    31   ar
    33    17    16   ar
    34    30    31   ar
    35    30    34    1
    36    14    15   ar
    37    34    35    3
    38    16    15   ar
    39    16    21    1
    40    35    36    1
