@<TRIPOS>MOLECULE
4b05_32D_A_1.pdb
 32 36 0 0 0
SMALL
GASTEIGER

@<TRIPOS>ATOM
      1  C1         8.1610    3.3190  -18.3450 C.ar  1391  32D1391     0.0021
      2  C2         7.6400    2.9580  -19.5770 C.ar  1391  32D1391     0.0008
      3  C3         6.2770    3.0760  -19.7920 C.ar  1391  32D1391     0.0393
      4  C4         5.4800    3.5280  -18.7840 C.ar  1391  32D1391     0.1181
      5  C5         5.9770    3.9060  -17.5480 C.ar  1391  32D1391     0.1473
      6  C6         7.3400    3.7970  -17.3350 C.ar  1391  32D1391     0.0299
      7  F7         5.2130    4.4070  -16.5580 F     1391  32D1391    -0.2039
      8  C8         4.1170    3.5120  -19.3240 C.2   1391  32D1391     0.4131
      9  N9         4.0820    3.0720  -20.5470 N.2   1391  32D1391    -0.0540
     10  C10        5.4540    2.7750  -21.0260 C.3   1391  32D1391     0.2311
     11  C11        5.6710    1.3070  -21.3290 C.ar  1391  32D1391     0.0297
     12  C12        6.5360    0.9060  -22.3370 C.ar  1391  32D1391     0.0004
     13  C13        6.7260   -0.4340  -22.6020 C.ar  1391  32D1391    -0.0002
     14  C14        6.0860   -1.3950  -21.8400 C.ar  1391  32D1391     0.0001
     15  C15        5.2340   -1.0330  -20.8130 C.ar  1391  32D1391     0.0028
     16  C16        5.0460    0.3230  -20.5780 C.ar  1391  32D1391     0.0005
     17  C17        4.6280   -2.0420  -19.9520 C.ar  1391  32D1391     0.0384
     18  C18        5.3190   -3.1660  -19.5380 C.ar  1391  32D1391     0.1022
     19  N19        4.8560   -4.0740  -18.6700 N.ar  1391  32D1391    -0.2224
     20  C20        3.6220   -3.8310  -18.2040 C.ar  1391  32D1391     0.1989
     21  N21        2.8260   -2.8090  -18.5430 N.ar  1391  32D1391    -0.2224
     22  C22        3.3640   -1.9370  -19.4080 C.ar  1391  32D1391     0.1022
     23  C24        5.7520    3.6940  -22.2230 C.ar  1391  32D1391     0.0326
     24  C25        6.9300    4.4150  -22.1970 C.ar  1391  32D1391     0.0210
     25  C26        7.2710    5.2430  -23.2350 C.ar  1391  32D1391     0.0985
     26  N27        6.5160    5.4010  -24.3230 N.ar  1391  32D1391    -0.2426
     27  C28        5.3590    4.7380  -24.3740 C.ar  1391  32D1391     0.1248
     28  C29        4.9460    3.8690  -23.3600 C.ar  1391  32D1391     0.0207
     29  C30        4.5960    4.9460  -25.6540 C.3   1391  32D1391     0.3581
     30  F31        3.4530    5.7240  -25.6200 F     1391  32D1391    -0.1915
     31  F32        4.3210    3.7920  -26.3130 F     1391  32D1391    -0.1915
     32  N34        3.0330    3.8580  -18.5610 N.pl3 1391  32D1391     0.2160
@<TRIPOS>BOND
     1    31    29    1
     2    29    30    1
     3    29    27    1
     4    27    26   ar
     5    27    28   ar
     6    26    25   ar
     7    28    23   ar
     8    25    24   ar
     9    13    12   ar
    10    13    14   ar
    11    12    11   ar
    12    23    24   ar
    13    23    10    1
    14    14    15   ar
    15    11    10    1
    16    11    16   ar
    17    10     9    1
    18    10     3    1
    19    15    16   ar
    20    15    17    1
    21     9     8    2
    22    17    18   ar
    23    17    22   ar
    24     3     2   ar
    25     3     4   ar
    26     2     1   ar
    27    18    19   ar
    28    22    21   ar
    29     8     4    1
    30     8    32    1
    31     4     5   ar
    32    19    20   ar
    33    21    20   ar
    34     1     6   ar
    35     5     6   ar
    36     5     7    1
