@<TRIPOS>MOLECULE
4b0b_54F_A_1.pdb
 14 15 0 0 0
SMALL
GASTEIGER

@<TRIPOS>ATOM
      1  N1        22.5810   18.3240   14.5760 N.2   1172  54F1172    -0.2362
      2  C2        22.2150   17.0220   14.5250 C.2   1172  54F1172     0.2060
      3  C3        21.9120   16.3600   15.7050 C.3   1172  54F1172     0.1106
      4  C4        21.9480   17.0370   16.9210 C.2   1172  54F1172    -0.0190
      5  C5        22.2420   18.3870   16.9560 C.2   1172  54F1172    -0.0040
      6  C6        22.5060   19.0500   15.7500 C.3   1172  54F1172     0.1542
      7  N8        24.7900   17.0730    9.3640 N.pl3 1172  54F1172    -0.1280
      8  C9        23.6470   17.0950   10.0520 C.ar  1172  54F1172     0.0921
      9  C10       23.6080   16.7310   11.4010 C.ar  1172  54F1172     0.0556
     10  C11       22.4290   16.7940   12.1290 C.ar  1172  54F1172     0.1482
     11  C12       21.2600   17.0820   11.4380 C.ar  1172  54F1172     0.0376
     12  C13       21.2890   17.4690   10.0980 C.ar  1172  54F1172     0.0045
     13  C14       22.4960   17.5250    9.4100 C.ar  1172  54F1172     0.0183
     14  OAK       22.3300   16.2540   13.4010 O.3   1172  54F1172    -0.4399
@<TRIPOS>BOND
     1     7     8    1
     2    13     8   ar
     3    13    12   ar
     4     8     9   ar
     5    12    11   ar
     6     9    10   ar
     7    11    10   ar
     8    10    14    1
     9    14     2    1
    10     2     1    2
    11     2     3    1
    12     1     6    1
    13     3     4    1
    14     6     5    1
    15     4     5    2
