@<TRIPOS>MOLECULE
4b0c_C9H_A_1.pdb
 11 11 0 0 0
SMALL
GASTEIGER

@<TRIPOS>ATOM
      1  CAA       20.1220  -14.2410   29.3770 C.3   501  C9H501      0.0000
      2  CAB       18.2440  -21.0500   24.7670 C.2   501  C9H501      0.2322
      3  CAC       21.4320  -14.9680   29.0570 C.3   501  C9H501      0.0000
      4  CAD       21.4680  -15.4430   27.5890 C.3   501  C9H501      0.0009
      5  CAE       21.9530  -16.8930   27.4560 C.3   501  C9H501      0.0127
      6  CAF       20.8260  -17.8790   27.1170 C.3   501  C9H501      0.0725
      7  NAG       17.5430  -19.9350   25.0240 N.2   501  C9H501     -0.1152
      8  NAH       18.3000  -18.9900   25.2470 N.2   501  C9H501     -0.0858
      9  NAI       19.5290  -20.7420   24.8520 N.2   501  C9H501     -0.1627
     10  SAJ       20.9980  -18.5020   25.3920 S.3   501  C9H501     -0.0409
     11  CAK       19.5430  -19.4510   25.1560 C.1   501  C9H501      0.0862
@<TRIPOS>BOND
     1     2     9    1
     2     2     7    2
     3     9    11    2
     4     7     8    1
     5    11     8    2
     6    11    10    1
     7    10     6    1
     8     6     5    1
     9     5     4    1
    10     4     3    1
    11     3     1    1
