@<TRIPOS>MOLECULE
4b0i_KBP_A_1.pdb
 19 18 0 0 0
SMALL
GASTEIGER

@<TRIPOS>ATOM
      1  CAA      -23.0280   20.9270  -19.9600 C.2   1170  KBP1170     0.2013
      2  CAB      -22.1920   21.9600  -20.6750 C.3   1170  KBP1170     0.1086
      3  CAC      -23.0390   23.2330  -20.7450 C.3   1170  KBP1170     0.1602
      4  CAD      -22.1580   24.4210  -20.3850 C.3   1170  KBP1170     0.0334
      5  CAE      -21.9420   24.4210  -18.8730 C.3   1170  KBP1170     0.0026
      6  CAF      -23.2500   24.7320  -18.1400 C.3   1170  KBP1170     0.0001
      7  CAG      -22.9440   25.5640  -16.8950 C.3   1170  KBP1170     0.0000
      8  CAH      -21.6240   25.1280  -16.2240 C.3   1170  KBP1170     0.0000
      9  CAI      -20.4800   26.1320  -16.4430 C.3   1170  KBP1170     0.0000
     10  CAJ      -19.9750   26.6930  -15.1010 C.3   1170  KBP1170     0.0000
     11  OAM      -23.7460   21.2720  -19.0210 O.2   1170  KBP1170    -0.2844
     12  OAN      -23.6110   23.3740  -22.0480 O.3   1170  KBP1170    -0.2227
     13  SAO      -23.2460   19.4010  -20.7490 S.3   1170  KBP1170    -0.0752
     14  CAP      -24.7070   18.7370  -19.8720 C.3   1170  KBP1170     0.0883
     15  CAQ      -26.0290   19.0010  -20.5860 C.3   1170  KBP1170     0.1272
     16  NAR      -27.1090   18.5960  -19.6860 N.am  1170  KBP1170    -0.2045
     17  CAS      -27.3670   17.3090  -19.4200 C.2   1170  KBP1170     0.2419
     18  CAT      -28.4860   17.0590  -18.3480 C.3   1170  KBP1170     0.0964
     19  OAY      -26.7060   16.3860  -19.9180 O.2   1170  KBP1170    -0.2733
@<TRIPOS>BOND
     1    12     3    1
     2    13     1    1
     3    13    14    1
     4     3     2    1
     5     3     4    1
     6     2     1    1
     7    15    14    1
     8    15    16    1
     9     4     5    1
    10     1    11    2
    11    19    17    2
    12    16    17   am
    13    17    18    1
    14     5     6    1
    15     6     7    1
    16     7     8    1
    17     9     8    1
    18     9    10    1
