@<TRIPOS>MOLECULE
4b0j_3MQ_A_1.pdb
 12 13 0 0 0
SMALL
GASTEIGER

@<TRIPOS>ATOM
      1  C10       13.0670  -12.3790   78.7400 C.ar  1172  3MQ1172     0.0355
      2  C01       16.0480   -9.9550   77.8170 C.ar  1172  3MQ1172     0.1826
      3  C02       17.0240   -9.2950   78.5160 C.ar  1172  3MQ1172     0.0613
      4  C03       17.8440   -8.5810   77.7180 C.ar  1172  3MQ1172     0.1338
      5  N04       17.3990   -8.7560   76.4530 N.ar  1172  3MQ1172    -0.0787
      6  O05       16.2220   -9.6500   76.4820 O.2   1172  3MQ1172    -0.3531
      7  C06       19.0680   -7.6970   78.1680 C.3   1172  3MQ1172     0.2308
      8  O07       20.4260   -8.3070   78.0830 O.3   1172  3MQ1172    -0.2133
      9  C08       15.0050  -10.7880   78.3000 C.ar  1172  3MQ1172     0.0666
     10  S09       14.0420  -11.9550   77.4280 S.2   1172  3MQ1172    -0.0833
     11  C11       13.4720  -11.6590   79.7780 C.ar  1172  3MQ1172     0.0076
     12  C12       14.4990  -10.8090   79.5480 C.ar  1172  3MQ1172     0.0102
@<TRIPOS>BOND
     1     5     6   ar
     2     5     4   ar
     3     6     2   ar
     4    10     9   ar
     5    10     1   ar
     6     4     7    1
     7     4     3   ar
     8     2     9    1
     9     2     3   ar
    10     8     7    1
    11     9    12   ar
    12     1    11   ar
    13    12    11   ar
