@<TRIPOS>MOLECULE
4b0o_15F_A_1.pdb
 21 22 0 0 0
SMALL
GASTEIGER

@<TRIPOS>ATOM
      1  CAR      -19.7980  -44.1860  -22.7110 C.2   1307  15F1307     0.0060
      2  CAK      -20.5170  -44.2230  -23.9020 C.2   1307  15F1307    -0.0066
      3  CAM      -21.5400  -43.3170  -24.1430 C.3   1307  15F1307     0.1175
      4  CAJ      -20.0820  -43.2380  -21.7380 C.2   1307  15F1307     0.0137
      5  CAL      -21.1000  -42.3290  -21.9700 C.2   1307  15F1307     0.0616
      6  NAT      -21.8340  -42.3620  -23.1700 N.pl3 1307  15F1307    -0.2986
      7  CAO      -22.9180  -41.3860  -23.3990 C.3   1307  15F1307     0.1180
      8  CAS      -23.3840  -40.9240  -22.1790 C.ar  1307  15F1307    -0.0024
      9  CAH      -22.9880  -39.6710  -21.7100 C.ar  1307  15F1307    -0.0026
     10  CAF      -23.4560  -39.2200  -20.4800 C.ar  1307  15F1307    -0.0003
     11  CAE      -24.3170  -40.0280  -19.7390 C.ar  1307  15F1307    -0.0000
     12  CAG      -24.7170  -41.2790  -20.2000 C.ar  1307  15F1307    -0.0003
     13  CAI      -24.2470  -41.7240  -21.4300 C.ar  1307  15F1307    -0.0026
     14 CLB       -16.6150  -41.2130  -24.2190 Cl    1307  15F1307    -0.0785
     15  CAU      -16.3510  -42.9410  -24.3800 C.3   1307  15F1307     0.2395
     16 CLC       -14.6250  -43.2640  -24.1390 Cl    1307  15F1307    -0.0785
     17 CLD       -16.8900  -43.4470  -26.0000 Cl    1307  15F1307    -0.0785
     18  CAQ      -17.1760  -43.6310  -23.2920 C.3   1307  15F1307     0.2494
     19  NAA      -17.0420  -43.1070  -22.0700 N.3   1307  15F1307    -0.0961
     20  OAP      -17.8490  -44.7780  -23.6080 O.3   1307  15F1307    -0.3308
     21  CAN      -18.7620  -45.1040  -22.5460 C.3   1307  15F1307     0.1702
@<TRIPOS>BOND
     1    17    15    1
     2    15    14    1
     3    15    16    1
     4    15    18    1
     5     3     2    1
     6     3     6    1
     7     2     1    2
     8    20    18    1
     9    20    21    1
    10     7     6    1
    11     7     8    1
    12    18    19    1
    13     6     5    1
    14     1    21    1
    15     1     4    1
    16     8     9   ar
    17     8    13   ar
    18     5     4    2
    19     9    10   ar
    20    13    12   ar
    21    10    11   ar
    22    12    11   ar
