@<TRIPOS>MOLECULE
4b0o_FUL_A_1.pdb
 10 10 0 0 0
SMALL
GASTEIGER

@<TRIPOS>ATOM
      1  C1        -1.2570  -56.2700  -28.4000 C.3   562  FUL562      0.1776
      2  C2        -2.3150  -56.8080  -27.4430 C.3   562  FUL562      0.2141
      3  O2        -2.0700  -56.4230  -26.1090 O.3   562  FUL562     -0.2176
      4  C3        -3.6420  -56.2430  -27.9290 C.3   562  FUL562      0.2172
      5  O3        -4.7150  -56.7180  -27.1400 O.3   562  FUL562     -0.2175
      6  C4        -3.8580  -56.5860  -29.4090 C.3   562  FUL562      0.2116
      7  O4        -4.2860  -57.9250  -29.5370 O.3   562  FUL562     -0.2177
      8  C5        -2.5970  -56.3280  -30.2500 C.3   562  FUL562      0.1483
      9  C6        -2.7370  -56.8620  -31.6700 C.3   562  FUL562      0.0349
     10  O5        -1.4450  -56.8950  -29.6500 O.3   562  FUL562     -0.3508
@<TRIPOS>BOND
     1     9     8    1
     2     8    10    1
     3     8     6    1
     4    10     1    1
     5     7     6    1
     6     6     4    1
     7     1     2    1
     8     4     2    1
     9     4     5    1
    10     2     3    1
