@<TRIPOS>MOLECULE
4b0p_MF5_A_1.pdb
 22 23 0 0 0
SMALL
GASTEIGER

@<TRIPOS>ATOM
      1  FAE       45.2940   20.7190   25.8420 F     1179  MF51179    -0.2019
      2  CAS       44.8830   20.4550   24.6670 C.ar  1179  MF51179     0.1704
      3  CAQ       45.3100   19.2890   24.0540 C.ar  1179  MF51179     0.1968
      4  FAC       46.1560   18.4630   24.7090 F     1179  MF51179    -0.1993
      5  CAP       44.8680   18.9830   22.7750 C.ar  1179  MF51179     0.1991
      6  FAB       45.2800   17.8650   22.1870 F     1179  MF51179    -0.1993
      7  CAR       43.9970   19.8450   22.1140 C.ar  1179  MF51179     0.1968
      8  FAD       43.5700   19.5510   20.8690 F     1179  MF51179    -0.1993
      9  CAT       43.5690   21.0130   22.7320 C.ar  1179  MF51179     0.1704
     10  FAF       42.7280   21.8520   22.0870 F     1179  MF51179    -0.2019
     11  CAU       44.0080   21.3180   24.0160 C.ar  1179  MF51179     0.0690
     12  CAL       43.5940   22.4880   24.6450 C.3   1179  MF51179     0.1993
     13  OAN       42.7050   22.1820   25.7330 O.3   1179  MF51179    -0.2612
     14  NAM       41.3570   21.9790   25.2140 N.4   1179  MF51179    -0.0811
     15  CAG       40.4540   21.3710   26.0020 C.3   1179  MF51179     0.1456
     16  CAO       39.2160   21.2370   25.3880 C.3   1179  MF51179     0.1152
     17  CAJ       39.0610   21.7580   24.1120 C.2   1179  MF51179    -0.0052
     18  CAH       37.8460   21.6540   23.4480 C.2   1179  MF51179    -0.0016
     19  CAI       36.7790   21.0250   24.0750 C.2   1179  MF51179     0.0155
     20  CAK       36.9460   20.5140   25.3540 C.2   1179  MF51179     0.0616
     21  NAV       38.1850   20.6360   26.0000 N.pl3 1179  MF51179    -0.3012
     22  CAA       38.3430   20.0860   27.3560 C.3   1179  MF51179     0.1125
@<TRIPOS>BOND
     1     8     7    1
     2    10     9    1
     3     7     9   ar
     4     7     5   ar
     5     6     5    1
     6     9    11   ar
     7     5     3   ar
     8    18    19    1
     9    18    17    2
    10    11    12    1
    11    11     2   ar
    12     3     2   ar
    13     3     4    1
    14    19    20    2
    15    17    16    1
    16    12    13    1
    17     2     1    1
    18    14    13    1
    19    14    15    1
    20    20    21    1
    21    16    21    1
    22    16    15    1
    23    21    22    1
