@<TRIPOS>MOLECULE
4b0p_FUL_A_1.pdb
 10 10 0 0 0
SMALL
GASTEIGER

@<TRIPOS>ATOM
      1  C1        56.1060    0.1680   29.0870 C.3   2183  FUL2183     0.1776
      2  C2        56.8520    1.0740   28.1280 C.3   2183  FUL2183     0.2141
      3  O2        56.7020    0.6880   26.7650 O.3   2183  FUL2183    -0.2176
      4  C3        56.3850    2.5140   28.3510 C.3   2183  FUL2183     0.2172
      5  O3        57.2210    3.4200   27.6310 O.3   2183  FUL2183    -0.2175
      6  C4        56.4290    2.9340   29.8620 C.3   2183  FUL2183     0.2116
      7  O4        57.6160    3.6590   30.1570 O.3   2183  FUL2183    -0.2177
      8  C5        56.2280    1.7560   30.8850 C.3   2183  FUL2183     0.1483
      9  C6        57.0720    1.9220   32.1430 C.3   2183  FUL2183     0.0349
     10  O5        56.5270    0.4340   30.3780 O.3   2183  FUL2183    -0.3508
@<TRIPOS>BOND
     1     3     2    1
     2     5     4    1
     3     2     4    1
     4     2     1    1
     5     4     6    1
     6     1    10    1
     7     6     7    1
     8     6     8    1
     9    10     8    1
    10     8     9    1
