@<TRIPOS>MOLECULE
4b0s_ATP_A_1.pdb
 43 45 0 0 0
SMALL
GASTEIGER

@<TRIPOS>ATOM
      1  PG       -17.2950   23.3950  -18.9920 P.3   1501  ATP1501     0.5373
      2  O1G      -18.0750   24.0870  -17.9010 O.3   1501  ATP1501    -0.1143
      3  O2G      -16.8930   21.9780  -18.6540 O.3   1501  ATP1501    -0.1143
      4  O3G      -16.1940   24.2410  -19.5860 O.2   1501  ATP1501    -0.2221
      5  PB       -17.8970   22.8900  -21.6920 P.3   1501  ATP1501     0.2277
      6  O1B      -17.3780   24.1510  -22.3420 O.3   1501  ATP1501    -0.4368
      7  O2B      -18.9870   22.0860  -22.3590 O.2   1501  ATP1501    -0.5168
      8  O3B      -18.3670   23.2220  -20.1850 O.3   1501  ATP1501    -0.2258
      9  PA       -15.6230   21.4590  -22.5710 P.3   1501  ATP1501     0.2182
     10  O1A      -15.4720   22.5910  -23.5560 O.2   1501  ATP1501    -0.5170
     11  O2A      -14.4120   20.9020  -21.8650 O.3   1501  ATP1501    -0.4371
     12  O3A      -16.6790   21.8740  -21.4290 O.3   1501  ATP1501    -0.2700
     13  O5'      -16.3990   20.2610  -23.3150 O.3   1501  ATP1501    -0.3246
     14  C5'      -15.9500   19.7110  -24.5440 C.3   1501  ATP1501     0.0836
     15  C4'      -16.5210   18.3050  -24.6660 C.3   1501  ATP1501     0.1131
     16  O4'      -17.8920   18.3830  -25.0560 O.3   1501  ATP1501    -0.3474
     17  C3'      -15.7880   17.4680  -25.7020 C.3   1501  ATP1501     0.1133
     18  O3'      -15.2650   16.3030  -25.0630 O.3   1501  ATP1501    -0.3864
     19  C2'      -16.8180   17.1220  -26.7620 C.3   1501  ATP1501     0.1266
     20  O2'      -16.8320   15.7340  -27.0890 O.3   1501  ATP1501    -0.3849
     21  C1'      -18.1550   17.5060  -26.1540 C.3   1501  ATP1501     0.1617
     22  N9       -19.0210   18.1980  -27.1370 N.pl3 1501  ATP1501    -0.2234
     23  C8       -18.7340   19.3580  -27.7600 C.2   1501  ATP1501     0.1451
     24  N7       -19.7490   19.7120  -28.5880 N.2   1501  ATP1501    -0.3871
     25  C5       -20.7030   18.7670  -28.4960 C.2   1501  ATP1501     0.2211
     26  C6       -22.0340   18.5250  -29.1000 C.2   1501  ATP1501     0.2227
     27  N6       -22.5640   19.3900  -29.9970 N.pl3 1501  ATP1501    -0.3300
     28  N1       -22.7020   17.4110  -28.7260 N.2   1501  ATP1501    -0.3296
     29  C2       -22.1950   16.5370  -27.8370 C.1   1501  ATP1501     0.0930
     30  N3       -20.9950   16.6990  -27.2560 N.2   1501  ATP1501    -0.3287
     31  C4       -20.2170   17.7690  -27.5380 C.2   1501  ATP1501     0.2354
     32 H5'1      -14.8590   19.6760  -24.5630 H     1501  ATP1501     0.0591
     33 H5'2      -16.2910   20.3280  -25.3780 H     1501  ATP1501     0.0591
     34  H4'      -16.4400   17.8070  -23.6890 H     1501  ATP1501     0.0647
     35  H3'      -14.9810   18.0620  -26.1520 H     1501  ATP1501     0.0647
     36  H2'      -16.6380   17.7300  -27.6600 H     1501  ATP1501     0.0663
     37  H1'      -18.6530   16.5960  -25.7930 H     1501  ATP1501     0.0841
     38  H8       -17.8230   19.9260  -27.6200 H     1501  ATP1501     0.1149
     39 HN61      -22.0500   20.2180  -30.2650 H     1501  ATP1501     0.1448
     40 HN62      -23.4720   19.2080  -30.4000 H     1501  ATP1501     0.1448
     41  H2       -22.7800   15.6620  -27.5800 H     1501  ATP1501     0.1751
     42 HO3'      -14.7960   15.7620  -25.7140 H     1501  ATP1501     0.2100
     43 HO2'      -15.9700   15.4790  -27.4470 H     1501  ATP1501     0.2101
@<TRIPOS>BOND
     1    40    27    1
     2    39    27    1
     3    27    26    1
     4    26    28    2
     5    26    25    1
     6    28    29    2
     7    24    25    2
     8    24    23    2
     9    25    31    1
    10    29    41    1
    11    29    30    2
    12    23    38    1
    13    23    22    1
    14    36    19    1
    15    31    30    2
    16    31    22    1
    17    43    20    1
    18    22    21    1
    19    20    19    1
    20    19    21    1
    21    19    17    1
    22    21    37    1
    23    21    16    1
    24    35    17    1
    25    42    18    1
    26    17    18    1
    27    17    15    1
    28    33    14    1
    29    16    15    1
    30    15    14    1
    31    15    34    1
    32    32    14    1
    33    14    13    1
    34    10     9    2
    35    13     9    1
    36     9    11    1
    37     9    12    1
    38     7     5    2
    39     6     5    1
    40     5    12    1
    41     5     8    1
    42     8     1    1
    43     4     1    2
    44     1     3    1
    45     1     2    1
