@<TRIPOS>MOLECULE
4b0t_ADP_A_1.pdb
 38 40 0 0 0
SMALL
GASTEIGER

@<TRIPOS>ATOM
      1  PB        12.4810   11.9240   18.1870 P.3   1478  ADP1478     0.5373
      2  O1B       12.9160   10.9730   17.1010 O.2   1478  ADP1478    -0.2221
      3  O2B       11.0860   11.7210   18.7290 O.3   1478  ADP1478    -0.1143
      4  O3B       13.5030   12.1540   19.2650 O.3   1478  ADP1478    -0.1143
      5  PA        13.5060   14.2120   16.8320 P.3   1478  ADP1478     0.2227
      6  O1A       14.7890   13.4350   16.9050 O.2   1478  ADP1478    -0.5170
      7  O2A       13.4200   15.5480   17.5280 O.3   1478  ADP1478    -0.4370
      8  O3A       12.2960   13.3080   17.3780 O.3   1478  ADP1478    -0.2261
      9  O5'       13.1020   14.3390   15.2610 O.3   1478  ADP1478    -0.3184
     10  C5'       13.8220   15.1820   14.3530 C.3   1478  ADP1478     0.1234
     11  C4'       13.6080   14.8450   12.8690 C.3   1478  ADP1478     0.1184
     12  O4'       12.2580   14.4450   12.5540 O.3   1478  ADP1478    -0.3470
     13  C3'       13.9110   16.0580   11.9830 C.3   1478  ADP1478     0.1137
     14  O3'       14.7480   15.6710   10.8880 O.3   1478  ADP1478    -0.3864
     15  C2'       12.5470   16.4980   11.4880 C.3   1478  ADP1478     0.1266
     16  O2'       12.5460   17.2150   10.2510 O.3   1478  ADP1478    -0.3849
     17  C1'       11.8260   15.1640   11.3920 C.3   1478  ADP1478     0.1618
     18  N9        10.3530   15.3330   11.3510 N.pl3 1478  ADP1478    -0.2234
     19  C8         9.6350   16.2150   12.0720 C.2   1478  ADP1478     0.1451
     20  N7         8.3150   16.0840   11.7930 N.2   1478  ADP1478    -0.3871
     21  C5         8.1750   15.1150   10.8780 C.2   1478  ADP1478     0.2211
     22  C6         7.0530   14.4940   10.1450 C.2   1478  ADP1478     0.2227
     23  N6         5.7760   14.8980   10.3570 N.pl3 1478  ADP1478    -0.3300
     24  N1         7.3470   13.5100    9.2650 N.2   1478  ADP1478    -0.3296
     25  C2         8.6130   13.1010    9.0370 C.1   1478  ADP1478     0.0930
     26  N3         9.6750   13.6380    9.6630 N.2   1478  ADP1478    -0.3287
     27  C4         9.5250   14.6300   10.5740 C.2   1478  ADP1478     0.2354
     28 H5'1       13.5520   16.2250   14.5320 H     1478  ADP1478     0.0654
     29  H4'       14.3010   14.0370   12.5960 H     1478  ADP1478     0.0651
     30  H3'       14.3730   16.8560   12.5800 H     1478  ADP1478     0.0647
     31 HO3'       14.9330   16.4430   10.3360 H     1478  ADP1478     0.2100
     32  H2'       12.0670   17.1020   12.2710 H     1478  ADP1478     0.0663
     33 HO2'       13.0560   18.0310   10.3510 H     1478  ADP1478     0.2101
     34  H1'       12.1660   14.6450   10.4850 H     1478  ADP1478     0.0841
     35  H8        10.0510   16.9120   12.7890 H     1478  ADP1478     0.1149
     36 HN61        5.5830   15.6330   11.0220 H     1478  ADP1478     0.1448
     37 HN62        5.0180   14.4610    9.8520 H     1478  ADP1478     0.1448
     38  H2         8.7810   12.3100    8.3170 H     1478  ADP1478     0.1751
@<TRIPOS>BOND
     1    38    25    1
     2    25    24    2
     3    25    26    2
     4    24    22    2
     5    26    27    2
     6    37    23    1
     7    22    23    1
     8    22    21    1
     9    16    33    1
    10    16    15    1
    11    31    14    1
    12    23    36    1
    13    34    17    1
    14    27    21    1
    15    27    18    1
    16    21    20    2
    17    14    13    1
    18    18    17    1
    19    18    19    1
    20    17    15    1
    21    17    12    1
    22    15    13    1
    23    15    32    1
    24    20    19    2
    25    13    30    1
    26    13    11    1
    27    19    35    1
    28    12    11    1
    29    29    11    1
    30    11    10    1
    31    10    28    1
    32    10     9    1
    33     9     5    1
    34     5     6    2
    35     5     8    1
    36     5     7    1
    37     2     1    2
    38     8     1    1
    39     1     3    1
    40     1     4    1
