@<TRIPOS>MOLECULE
4b11_7I1_A_1.pdb
 31 35 0 0 0
SMALL
GASTEIGER

@<TRIPOS>ATOM
      1  O2        26.2320   43.7460   60.7010 O.2   999  7I1999     -0.2650
      2  C14       25.0210   43.4220   60.5370 C.2   999  7I1999      0.2995
      3  N1        24.0980   44.1400   59.8470 N.am  999  7I1999     -0.1942
      4  C15       24.3180   45.5010   59.2760 C.3   999  7I1999      0.1419
      5  C16       23.5110   46.5120   60.1220 C.ar  999  7I1999     -0.0005
      6  C25       24.1060   46.9360   61.2900 C.ar  999  7I1999     -0.0023
      7  C24       25.3860   46.4380   61.5970 C.ar  999  7I1999     -0.0003
      8  C23       26.0220   46.7880   62.7510 C.ar  999  7I1999     -0.0000
      9  C22       25.4320   47.6710   63.6310 C.ar  999  7I1999     -0.0000
     10  C21       24.1650   48.2120   63.3760 C.ar  999  7I1999     -0.0000
     11  C20       23.4880   47.8500   62.1650 C.ar  999  7I1999     -0.0003
     12  C19       22.2130   48.3530   61.9070 C.ar  999  7I1999     -0.0000
     13  C18       21.6020   47.9290   60.7000 C.ar  999  7I1999     -0.0003
     14  C17       22.2280   47.0340   59.8220 C.ar  999  7I1999     -0.0026
     15  C2        24.4150   42.1860   61.1980 C.ar  999  7I1999      0.1961
     16  O         23.2160   41.8300   60.9930 O.2   999  7I1999     -0.4491
     17  C3        22.9310   40.7030   61.7680 C.ar  999  7I1999      0.1481
     18  C13       24.0430   40.3380   62.5050 C.ar  999  7I1999      0.0676
     19  C1        24.9910   41.3430   62.1600 C.ar  999  7I1999      0.0232
     20  C         26.3870   41.3750   62.7460 C.3   999  7I1999      0.0346
     21  C7        23.9480   39.2610   63.4130 C.ar  999  7I1999      0.1410
     22  C6        22.7690   38.5240   63.4630 C.ar  999  7I1999      0.0371
     23  C5        21.6840   38.8300   62.6110 C.ar  999  7I1999      0.0062
     24  C4        21.7330   39.9660   61.8030 C.ar  999  7I1999      0.0377
     25  O1        25.1240   38.9020   64.1290 O.3   999  7I1999     -0.4790
     26  C8        25.0430   38.3260   65.4670 C.3   999  7I1999      0.1688
     27  C12       24.4730   39.4360   66.2990 C.3   999  7I1999      0.0623
     28  C11       25.5070   40.5660   66.4740 C.3   999  7I1999      0.0924
     29  N         26.8430   40.1090   66.8460 N.3   999  7I1999     -0.2178
     30  C10       27.4510   38.9810   66.1460 C.3   999  7I1999      0.0924
     31  C9        26.4500   37.8470   65.8630 C.3   999  7I1999      0.0623
@<TRIPOS>BOND
     1     4     3    1
     2     4     5    1
     3    14     5   ar
     4    14    13   ar
     5     3     2   am
     6     5     6   ar
     7     2     1    2
     8     2    15    1
     9    13    12   ar
    10    16    15   ar
    11    16    17   ar
    12    15    19   ar
    13     6     7   ar
    14     6    11   ar
    15     7     8   ar
    16    17    24   ar
    17    17    18   ar
    18    24    23   ar
    19    12    11   ar
    20    19    18   ar
    21    19    20    1
    22    11    10   ar
    23    18    21   ar
    24    23    22   ar
    25     8     9   ar
    26    10     9   ar
    27    21    22   ar
    28    21    25    1
    29    25    26    1
    30    26    31    1
    31    26    27    1
    32    31    30    1
    33    30    29    1
    34    27    28    1
    35    28    29    1
