@<TRIPOS>MOLECULE
4b12_C23_A_1.pdb
 27 30 0 0 0
SMALL
GASTEIGER

@<TRIPOS>ATOM
      1  O2        23.1370   46.1030   60.5640 O.2   1411  C231411    -0.2881
      2  C14       23.9390   45.5640   61.3140 C.2   1411  C231411     0.2072
      3  C15       25.4120   45.9880   61.3060 C.3   1411  C231411     0.0771
      4  C16       25.5680   47.5200   60.9530 C.3   1411  C231411     0.0346
      5  C17       25.2390   48.3980   62.1820 C.ar  1411  C231411    -0.0217
      6  C22       26.2230   48.6810   63.1500 C.ar  1411  C231411    -0.0043
      7  C21       25.9090   49.4500   64.2900 C.ar  1411  C231411    -0.0003
      8  C20       24.6130   49.9550   64.4510 C.ar  1411  C231411    -0.0000
      9  C19       23.6110   49.6290   63.5250 C.ar  1411  C231411    -0.0003
     10  C18       23.9120   48.8700   62.3930 C.ar  1411  C231411    -0.0043
     11  C2        23.4510   44.3400   62.0370 C.ar  1411  C231411     0.1759
     12  O         22.2680   43.8970   61.8380 O.2   1411  C231411    -0.4508
     13  C3        22.1640   42.7280   62.5470 C.ar  1411  C231411     0.1480
     14  C13       23.3390   42.3960   63.2170 C.ar  1411  C231411     0.0675
     15  C1        24.1830   43.4800   62.8610 C.ar  1411  C231411     0.0214
     16  C         25.6170   43.5640   63.3560 C.3   1411  C231411     0.0345
     17  C7        23.3940   41.2450   64.0340 C.ar  1411  C231411     0.1410
     18  C6        22.2480   40.4530   64.1120 C.ar  1411  C231411     0.0371
     19  C5        21.0690   40.7570   63.4170 C.ar  1411  C231411     0.0062
     20  C4        21.0130   41.9160   62.6460 C.ar  1411  C231411     0.0377
     21  O1        24.5300   40.9150   64.7720 O.3   1411  C231411    -0.4790
     22  C8        24.4090   40.7300   66.1990 C.3   1411  C231411     0.1688
     23  C12       25.4720   39.7560   66.7520 C.3   1411  C231411     0.0623
     24  C11       26.8340   40.4180   66.8560 C.3   1411  C231411     0.0924
     25  N         26.7720   41.7390   67.4670 N.3   1411  C231411    -0.2178
     26  C10       25.7470   42.6700   67.0400 C.3   1411  C231411     0.0924
     27  C9        24.3640   42.0480   66.9810 C.3   1411  C231411     0.0623
@<TRIPOS>BOND
     1     1     2    2
     2     4     3    1
     3     4     5    1
     4     3     2    1
     5     2    11    1
     6    12    11   ar
     7    12    13   ar
     8    11    15   ar
     9     5    10   ar
    10     5     6   ar
    11    10     9   ar
    12    13    20   ar
    13    13    14   ar
    14    20    19   ar
    15    15    14   ar
    16    15    16    1
    17     6     7   ar
    18    14    17   ar
    19    19    18   ar
    20     9     8   ar
    21    17    18   ar
    22    17    21    1
    23     7     8   ar
    24    21    22    1
    25    22    23    1
    26    22    27    1
    27    23    24    1
    28    24    25    1
    29    27    26    1
    30    26    25    1
