@<TRIPOS>MOLECULE
4b13_X25_A_1.pdb
 29 33 0 0 0
SMALL
GASTEIGER

@<TRIPOS>ATOM
      1  O2        22.7900   44.4550   61.0580 O.2   1411  X251411    -0.3079
      2  C14       23.4970   43.9000   61.8150 C.2   1411  X251411     0.3510
      3  N1        24.6590   44.5010   62.0050 N.2   1411  X251411    -0.3101
      4  C15       24.5710   45.5140   61.2130 C.1   1411  X251411     0.1085
      5  C16       25.5690   46.5570   61.0650 C.3   1411  X251411     0.1416
      6  C17       25.3360   47.2400   62.3930 C.ar  1411  X251411    -0.0062
      7  C18       24.0770   47.6310   62.7440 C.ar  1411  X251411    -0.0032
      8  C19       23.9160   48.2750   63.9530 C.ar  1411  X251411    -0.0003
      9  C20       24.9720   48.5080   64.8100 C.ar  1411  X251411    -0.0000
     10  C21       26.2270   48.1080   64.4440 C.ar  1411  X251411    -0.0003
     11  C22       26.3720   47.4640   63.2500 C.ar  1411  X251411    -0.0032
     12  C2        23.1110   42.6930   62.3590 C.ar  1411  X251411     0.2102
     13  O         22.0540   42.2040   62.2530 O.2   1411  X251411    -0.4478
     14  C3        22.0370   41.0880   62.9200 C.ar  1411  X251411     0.1482
     15  C13       23.2100   40.8930   63.6260 C.ar  1411  X251411     0.0676
     16  C1        23.8700   42.0010   63.2080 C.ar  1411  X251411     0.0245
     17  C         25.1840   42.2010   63.7330 C.3   1411  X251411     0.0346
     18  C7        23.4180   39.8400   64.4490 C.ar  1411  X251411     0.1410
     19  C6        22.3530   38.9490   64.5260 C.ar  1411  X251411     0.0371
     20  C5        21.1480   39.1120   63.8190 C.ar  1411  X251411     0.0062
     21  C4        20.9770   40.2090   63.0190 C.ar  1411  X251411     0.0377
     22  O1        24.5560   39.6750   65.1770 O.3   1411  X251411    -0.4790
     23  C8        24.4780   39.4040   66.6330 C.3   1411  X251411     0.1688
     24  C9        25.1670   38.1330   67.1160 C.3   1411  X251411     0.0623
     25  C10       26.6560   38.3440   67.1540 C.3   1411  X251411     0.0924
     26  N         27.0460   39.5620   67.8680 N.3   1411  X251411    -0.2178
     27  C11       26.2010   40.7300   67.8620 C.3   1411  X251411     0.0924
     28  C12       24.7150   40.5360   67.6160 C.3   1411  X251411     0.0623
     29  N2        23.4030   45.5250   60.6410 N.2   1411  X251411    -0.0108
@<TRIPOS>BOND
     1    29     1    1
     2    29     4    2
     3     1     2    1
     4     5     4    1
     5     5     6    1
     6     4     3    2
     7     2     3    2
     8     2    12    1
     9    13    12   ar
    10    13    14   ar
    11    12    16   ar
    12     6     7   ar
    13     6    11   ar
    14     7     8   ar
    15    14    21   ar
    16    14    15   ar
    17    21    20   ar
    18    16    15   ar
    19    16    17    1
    20    11    10   ar
    21    15    18   ar
    22    20    19   ar
    23     8     9   ar
    24    10     9   ar
    25    18    19   ar
    26    18    22    1
    27    22    23    1
    28    23    24    1
    29    23    28    1
    30    24    25    1
    31    25    26    1
    32    28    27    1
    33    27    26    1
