@<TRIPOS>MOLECULE
4b14_4XB_A_1.pdb
 29 32 0 0 0
SMALL
GASTEIGER

@<TRIPOS>ATOM
      1  C         25.5030   41.9930   63.8030 C.3   1001  4XB1001     0.0347
      2  N         26.3190   40.7780   68.1080 N.3   1001  4XB1001    -0.2178
      3  O         22.0240   42.1460   62.4870 O.2   1001  4XB1001    -0.4472
      4  C1        24.0760   41.8180   63.4030 C.ar  1001  4XB1001     0.0251
      5  O1        24.7130   39.3240   65.1470 O.3   1001  4XB1001    -0.4790
      6  C2        23.2470   42.6710   62.5790 C.ar  1001  4XB1001     0.2166
      7  O2        22.6350   44.6690   61.5770 O.2   1001  4XB1001    -0.2414
      8  C3        22.0470   40.9840   63.1660 C.ar  1001  4XB1001     0.1482
      9  C4        20.9350   40.0730   63.3620 C.ar  1001  4XB1001     0.0377
     10  C5        21.1500   38.9390   64.1180 C.ar  1001  4XB1001     0.0062
     11  C6        22.3800   38.6680   64.7400 C.ar  1001  4XB1001     0.0371
     12  C7        23.4660   39.5620   64.5560 C.ar  1001  4XB1001     0.1410
     13  C8        24.9390   38.8270   66.4830 C.3   1001  4XB1001     0.1688
     14  C9        26.3830   38.5050   66.9500 C.3   1001  4XB1001     0.0623
     15  C10       27.1260   39.7210   67.4840 C.3   1001  4XB1001     0.0924
     16  C11       24.9130   40.9680   67.7230 C.3   1001  4XB1001     0.0924
     17  C12       24.2180   39.6640   67.5090 C.3   1001  4XB1001     0.0623
     18  C13       23.2780   40.7230   63.8040 C.ar  1001  4XB1001     0.0677
     19  C14       23.5360   43.9810   61.9530 C.2   1001  4XB1001     0.3763
     20  C15       21.2370   48.6840   63.3420 C.3   1001  4XB1001     0.2525
     21  C19       25.0160   45.7850   61.3960 C.3   1001  4XB1001     0.2356
     22  C20       24.9490   46.6880   62.5870 C.ar  1001  4XB1001     0.0243
     23  C21       26.0570   46.9690   63.4060 C.ar  1001  4XB1001    -0.0005
     24  C22       25.8970   47.7910   64.5230 C.ar  1001  4XB1001     0.0029
     25  C23       24.6610   48.3810   64.8340 C.ar  1001  4XB1001     0.0369
     26  C24       23.5830   48.0680   63.9770 C.ar  1001  4XB1001     0.1385
     27  C25       23.7260   47.2480   62.8780 C.ar  1001  4XB1001     0.0362
     28  OAQ       22.3550   48.5960   64.2320 O.3   1001  4XB1001    -0.4714
     29  OAR       24.8860   44.4620   61.8410 O.3   1001  4XB1001    -0.4383
@<TRIPOS>BOND
     1    21    29    1
     2    21    22    1
     3     7    19    2
     4    29    19    1
     5    19     6    1
     6     3     6   ar
     7     3     8   ar
     8     6     4   ar
     9    22    27   ar
    10    22    23   ar
    11    27    26   ar
    12     8     9   ar
    13     8    18   ar
    14    20    28    1
    15     9    10   ar
    16     4     1    1
    17     4    18   ar
    18    23    24   ar
    19    18    12   ar
    20    26    28    1
    21    26    25   ar
    22    10    11   ar
    23    24    25   ar
    24    12    11   ar
    25    12     5    1
    26     5    13    1
    27    13    14    1
    28    13    17    1
    29    14    15    1
    30    15     2    1
    31    17    16    1
    32    16     2    1
