@<TRIPOS>MOLECULE
4b17_SAM_A_1.pdb
 27 29 0 0 0
SMALL
GASTEIGER

@<TRIPOS>ATOM
      1  N         22.4970   64.4080   85.4840 N.3   1358  SAM1358    -0.1208
      2  CA        21.7130   64.3640   84.2470 C.3   1358  SAM1358     0.1952
      3  C         21.2390   62.9540   83.9140 C.2   1358  SAM1358     0.3819
      4  O         20.5870   62.7590   82.8820 O.co2 1358  SAM1358    -0.2441
      5  OXT       21.4910   61.9970   84.6640 O.co2 1358  SAM1358    -0.2441
      6  CB        22.4830   64.9320   83.0630 C.3   1358  SAM1358     0.0414
      7  CG        23.9870   64.7130   83.1440 C.3   1358  SAM1358     0.0503
      8  SD        24.8380   65.3210   81.6690 S.3   1358  SAM1358    -0.1761
      9  CE        26.5520   64.8710   82.0610 C.3   1358  SAM1358     0.0590
     10  C5'       24.8560   67.1060   81.9630 C.3   1358  SAM1358     0.0806
     11  C4'       23.7900   67.8650   81.1770 C.3   1358  SAM1358     0.1622
     12  O4'       23.9540   69.2410   81.4600 O.3   1358  SAM1358    -0.3153
     13  C3'       23.8550   67.7080   79.6530 C.3   1358  SAM1358     0.2168
     14  O3'       22.5910   67.3200   79.1620 O.3   1358  SAM1358    -0.2175
     15  C2'       24.1690   69.0860   79.1030 C.3   1358  SAM1358     0.2569
     16  O2'       23.4380   69.3860   77.9230 O.3   1358  SAM1358    -0.2130
     17  C1'       23.7780   69.9840   80.2700 C.3   1358  SAM1358     0.3185
     18  N9        24.5680   71.2200   80.3270 N.pl3 1358  SAM1358    -0.1439
     19  C8        25.9260   71.3640   80.4980 C.3   1358  SAM1358     0.3377
     20  N7        26.2070   72.6920   80.4870 N.2   1358  SAM1358    -0.2095
     21  C5        25.0460   73.3820   80.3100 C.2   1358  SAM1358     0.2526
     22  C6        24.7440   74.7410   80.2210 C.2   1358  SAM1358     0.4393
     23  N6        25.7140   75.6560   80.3070 N.pl3 1358  SAM1358     0.2180
     24  N1        23.4240   75.1210   80.0390 N.2   1358  SAM1358     0.0021
     25  C2        22.4100   74.1790   79.9430 C.3   1358  SAM1358     0.5254
     26  N3        22.7110   72.8390   80.0280 N.2   1358  SAM1358    -0.0055
     27  C4        24.0070   72.4580   80.2100 C.2   1358  SAM1358     0.3518
@<TRIPOS>BOND
     1    16    15    1
     2    15    13    1
     3    15    17    1
     4    14    13    1
     5    13    11    1
     6    25    26    1
     7    25    24    1
     8    26    27    2
     9    24    22    2
    10    27    21    1
    11    27    18    1
    12    22    23    1
    13    22    21    1
    14    17    18    1
    15    17    12    1
    16    21    20    2
    17    18    19    1
    18    20    19    1
    19    11    12    1
    20    11    10    1
    21     8    10    1
    22     8     9    1
    23     8     7    1
    24     4     3   ar
    25     6     7    1
    26     6     2    1
    27     3     2    1
    28     3     5   ar
    29     2     1    1
