@<TRIPOS>MOLECULE
4b1c_1B1_A_1.pdb
 25 28 0 0 0
SMALL
GASTEIGER

@<TRIPOS>ATOM
      1  C1         5.5840    2.4870  -20.6520 C.3   1504  1B11504     0.2767
      2  N1         4.1790    2.8010  -20.3620 N.2   1504  1B11504    -0.0375
      3  C2         4.1540    3.1200  -19.1080 C.2   1504  1B11504     0.4256
      4  C4         6.1270    3.4660  -21.6450 C.3   1504  1B11504     0.0715
      5  C5         5.8420    1.0800  -21.1230 C.ar  1504  1B11504     0.0437
      6  C6         5.4060    0.0310  -20.3510 C.ar  1504  1B11504     0.0017
      7  C7         5.6320   -1.2830  -20.6850 C.ar  1504  1B11504     0.0014
      8  C8         6.3290   -1.5540  -21.8440 C.ar  1504  1B11504     0.0000
      9  C9         6.7900   -0.5090  -22.6230 C.ar  1504  1B11504    -0.0001
     10  C10        6.5630    0.8030  -22.2660 C.ar  1504  1B11504     0.0017
     11  N3         3.0640    3.4890  -18.3610 N.pl3 1504  1B11504     0.2173
     12  C11        5.8580    3.2720  -17.0860 C.3   1504  1B11504     0.0601
     13  C13        5.7850    4.9210  -21.4630 C.3   1504  1B11504     0.0068
     14  C12        5.2470    4.1570  -22.6500 C.3   1504  1B11504     0.0068
     15  C14        5.1950   -2.3490  -19.8010 C.ar  1504  1B11504     0.0198
     16  C15        4.0080   -2.3270  -19.1080 C.ar  1504  1B11504     0.0113
     17  C16        3.7350   -3.3950  -18.2720 C.ar  1504  1B11504     0.0608
     18  C17        4.6330   -4.4310  -18.1440 C.ar  1504  1B11504     0.1071
     19  C19        6.0140   -3.4410  -19.6000 C.ar  1504  1B11504     0.0989
     20  C21        2.5450   -3.4330  -17.5170 C.1   1504  1B11504    -0.0628
     21  N17        6.3760    2.6490  -19.4060 N.2   1504  1B11504    -0.2224
     22  N5         5.7930   -4.4860  -18.8000 N.ar  1504  1B11504    -0.2417
     23  C18        5.5190    3.0110  -18.5250 C.2   1504  1B11504     0.1483
     24  C22        1.5470   -3.4700  -16.8540 C.1   1504  1B11504    -0.0853
     25  C23        0.3430   -3.5170  -16.0580 C.3   1504  1B11504     0.0903
@<TRIPOS>BOND
     1    14     4    1
     2    14    13    1
     3     9    10   ar
     4     9     8   ar
     5    10     5   ar
     6     8     7   ar
     7     4    13    1
     8     4     1    1
     9     5     1    1
    10     5     6   ar
    11     7     6   ar
    12     7    15    1
    13     1     2    1
    14     1    21    1
    15     2     3    2
    16    15    19   ar
    17    15    16   ar
    18    19    22   ar
    19    21    23    2
    20     3    23    1
    21     3    11    1
    22    16    17   ar
    23    22    18   ar
    24    23    12    1
    25    17    18   ar
    26    17    20    1
    27    20    24    3
    28    24    25    1
