@<TRIPOS>MOLECULE
4b1d_6TG_A_1.pdb
 29 32 0 0 0
SMALL
GASTEIGER

@<TRIPOS>ATOM
      1  C1         4.7110    4.3820  -25.5000 C.3   1505  6TG1505     0.0342
      2  C2         5.4900    4.4570  -24.2210 C.ar  1505  6TG1505     0.0117
      3  C3         5.1330    3.5910  -23.2100 C.ar  1505  6TG1505     0.0008
      4  C4         5.8290    3.5610  -22.0080 C.ar  1505  6TG1505     0.0475
      5  C5         6.8880    4.4360  -21.8400 C.ar  1505  6TG1505     0.0008
      6  C6         7.2550    5.3240  -22.8340 C.ar  1505  6TG1505     0.0117
      7  C7         6.5450    5.3440  -24.0230 C.ar  1505  6TG1505     0.1307
      8  O8         6.9330    6.2180  -25.0380 O.3   1505  6TG1505    -0.4721
      9  C9         6.1430    7.4240  -25.0090 C.3   1505  6TG1505     0.2524
     10  C10        8.4090    6.2260  -22.5500 C.3   1505  6TG1505     0.0342
     11  C11        5.4510    2.5860  -20.9070 C.3   1505  6TG1505     0.2962
     12  N12        6.2380    2.8010  -19.6680 N.2   1505  6TG1505    -0.2188
     13  C13        5.3770    3.2130  -18.8030 C.2   1505  6TG1505     0.1486
     14  C14        4.0100    3.2740  -19.3710 C.2   1505  6TG1505     0.4259
     15  N15        4.0420    2.8650  -20.5910 N.2   1505  6TG1505    -0.0328
     16  N16        2.9360    3.6680  -18.6110 N.pl3 1505  6TG1505     0.2173
     17  C17        5.6500    3.4900  -17.3550 C.3   1505  6TG1505     0.0601
     18  C18        5.7170    1.1390  -21.2760 C.ar  1505  6TG1505     0.0479
     19  C19        6.5340    0.7710  -22.3420 C.ar  1505  6TG1505     0.0021
     20  C20        6.7660   -0.5690  -22.6290 C.ar  1505  6TG1505    -0.0001
     21  C21        6.2090   -1.5590  -21.8380 C.ar  1505  6TG1505     0.0001
     22  C22        5.4220   -1.2220  -20.7490 C.ar  1505  6TG1505     0.0029
     23  C23        5.1880    0.1240  -20.4880 C.ar  1505  6TG1505     0.0022
     24  C24        4.8680   -2.2350  -19.8590 C.ar  1505  6TG1505     0.0384
     25  C25        3.5810   -2.1690  -19.3630 C.ar  1505  6TG1505     0.1022
     26  N26        3.0810   -3.0170  -18.4550 N.ar  1505  6TG1505    -0.2224
     27  C27        3.9180   -3.9960  -18.0730 C.ar  1505  6TG1505     0.1989
     28  N28        5.1730   -4.2120  -18.4970 N.ar  1505  6TG1505    -0.2224
     29  C29        5.6180   -3.3000  -19.3790 C.ar  1505  6TG1505     0.1022
@<TRIPOS>BOND
     1     1     2    1
     2     8     9    1
     3     8     7    1
     4     2     7   ar
     5     2     3   ar
     6     7     6   ar
     7     3     4   ar
     8     6    10    1
     9     6     5   ar
    10    20    19   ar
    11    20    21   ar
    12    19    18   ar
    13     4     5   ar
    14     4    11    1
    15    21    22   ar
    16    18    11    1
    17    18    23   ar
    18    11    15    1
    19    11    12    1
    20    22    23   ar
    21    22    24    1
    22    15    14    2
    23    24    29   ar
    24    24    25   ar
    25    12    13    2
    26    29    28   ar
    27    14    13    1
    28    14    16    1
    29    25    26   ar
    30    13    17    1
    31    28    27   ar
    32    26    27   ar
