@<TRIPOS>MOLECULE
4b1e_6T6_A_1.pdb
 25 28 0 0 0
SMALL
GASTEIGER

@<TRIPOS>ATOM
      1  C1         5.6000    3.1970  -21.8260 C.3   1503  6T61503     0.0847
      2  C2         5.4630    2.3230  -20.5640 C.3   1503  6T61503     0.2775
      3  N3         6.2640    2.9250  -19.4760 N.2   1503  6T61503    -0.2180
      4  C4         5.4320    3.4330  -18.6040 C.2   1503  6T61503     0.1703
      5  C5         4.0460    3.1380  -19.0260 C.2   1503  6T61503     0.4297
      6  N6         4.0690    2.4710  -20.1390 N.2   1503  6T61503    -0.0372
      7  N7         2.9210    3.4810  -18.3190 N.pl3 1503  6T61503     0.2177
      8  C8         5.7420    4.1680  -17.3490 C.ar  1503  6T61503     0.0250
      9  C9         5.2160    5.4640  -17.1650 C.ar  1503  6T61503     0.0017
     10  C10        5.4640    6.1550  -15.9830 C.ar  1503  6T61503     0.0001
     11  C11        6.2350    5.5600  -14.9800 C.ar  1503  6T61503     0.0000
     12  C12        6.7590    4.2770  -15.1550 C.ar  1503  6T61503     0.0001
     13  C13        6.5070    3.5730  -16.3300 C.ar  1503  6T61503     0.0017
     14  C14        5.7880    0.8530  -20.8260 C.ar  1503  6T61503     0.0437
     15  C15        6.5840    0.4580  -21.9070 C.ar  1503  6T61503     0.0017
     16  C16        6.8490   -0.8860  -22.1620 C.ar  1503  6T61503    -0.0001
     17  C17        6.3390   -1.8680  -21.3220 C.ar  1503  6T61503     0.0000
     18  C18        5.5370   -1.5000  -20.2290 C.ar  1503  6T61503     0.0014
     19  C19        5.2810   -0.1370  -19.9880 C.ar  1503  6T61503     0.0017
     20  C20        5.0280   -2.5280  -19.2760 C.ar  1503  6T61503     0.0192
     21  C21        5.9340   -3.3630  -18.5840 C.ar  1503  6T61503     0.0031
     22  C22        5.4350   -4.2950  -17.6750 C.ar  1503  6T61503     0.0207
     23  C23        4.0600   -4.3470  -17.4510 C.ar  1503  6T61503     0.0989
     24  N24        3.2290   -3.5430  -18.0970 N.ar  1503  6T61503    -0.2423
     25  C25        3.6570   -2.6680  -19.0010 C.ar  1503  6T61503     0.0988
@<TRIPOS>BOND
     1    16    15   ar
     2    16    17   ar
     3    15    14   ar
     4     1     2    1
     5    17    18   ar
     6    14     2    1
     7    14    19   ar
     8     2     6    1
     9     2     3    1
    10    18    19   ar
    11    18    20    1
    12     6     5    2
    13     3     4    2
    14    20    25   ar
    15    20    21   ar
    16     5     4    1
    17     5     7    1
    18    25    24   ar
    19     4     8    1
    20    21    22   ar
    21    24    23   ar
    22    22    23   ar
    23     8     9   ar
    24     8    13   ar
    25     9    10   ar
    26    13    12   ar
    27    10    11   ar
    28    12    11   ar
