@<TRIPOS>MOLECULE
4b1f_KRH_A_1.pdb
 33 37 0 0 0
SMALL
GASTEIGER

@<TRIPOS>ATOM
      1  N1        14.4950  -18.5390  -19.0240 N.ar  1256  KRH1256    -0.2466
      2  C2        15.2690  -19.2700  -18.2830 C.ar  1256  KRH1256     0.3349
      3  N3        15.3530  -19.1570  -16.9300 N.ar  1256  KRH1256    -0.2647
      4  C4        14.6650  -18.1430  -16.2940 C.ar  1256  KRH1256     0.1728
      5  C5        13.7870  -17.3470  -17.0430 C.ar  1256  KRH1256     0.1108
      6  C6        13.6690  -17.6360  -18.4800 C.ar  1256  KRH1256     0.2687
      7  C7        16.2600  -19.9980  -16.1730 C.3   1256  KRH1256     0.1120
      8  C8        17.5810  -19.3030  -15.8380 C.3   1256  KRH1256     0.0228
      9  C9        18.2620  -20.2620  -14.8850 C.3   1256  KRH1256     0.0020
     10  C10       18.4290  -19.2550  -17.0810 C.3   1256  KRH1256     0.0020
     11  O11       15.9410  -20.0840  -18.8810 O.2   1256  KRH1256    -0.2461
     12  C12       14.4670  -18.7750  -20.4870 C.3   1256  KRH1256     0.1382
     13  O13       13.0400  -16.8950  -19.2430 O.2   1256  KRH1256    -0.2667
     14  C14       13.3230  -16.3710  -16.1990 C.ar  1256  KRH1256     0.1031
     15  N15       13.9180  -16.5970  -14.9500 N.ar  1256  KRH1256    -0.2434
     16  N16       14.7420  -17.6890  -15.0670 N.ar  1256  KRH1256    -0.1508
     17  C17       12.3890  -15.2700  -16.4580 C.ar  1256  KRH1256     0.0983
     18  N20       10.6800  -13.8980  -16.2710 N.ar  1256  KRH1256    -0.2223
     19  C21       11.5050  -13.3310  -17.1230 C.ar  1256  KRH1256     0.1787
     20  C23       13.8090  -15.7750  -13.7580 C.3   1256  KRH1256     0.1539
     21  C24       14.4880  -14.4620  -14.2330 C.ar  1256  KRH1256     0.0021
     22  C25       13.6910  -13.3530  -14.3170 C.ar  1256  KRH1256    -0.0023
     23  C26       14.1370  -12.0780  -14.7810 C.ar  1256  KRH1256    -0.0003
     24  C27       15.4880  -11.9430  -15.1410 C.ar  1256  KRH1256    -0.0000
     25  C28       16.3600  -13.0470  -15.0590 C.ar  1256  KRH1256    -0.0002
     26  C29       15.8590  -14.3100  -14.6020 C.ar  1256  KRH1256    -0.0021
     27  N29       12.5950  -14.1430  -17.2580 N.ar  1256  KRH1256    -0.3058
     28  C30       16.8030  -15.3590  -14.5010 C.ar  1256  KRH1256    -0.0003
     29  C31       18.1320  -15.1930  -14.7920 C.ar  1256  KRH1256    -0.0000
     30  C32       18.5730  -13.9630  -15.2740 C.ar  1256  KRH1256    -0.0000
     31  C33       17.7190  -12.8960  -15.3970 C.ar  1256  KRH1256    -0.0000
     32  C34       11.1860  -15.0820  -15.8390 C.ar  1256  KRH1256     0.1193
     33  C35       13.7520  -13.8920  -18.0780 C.3   1256  KRH1256     0.1321
@<TRIPOS>BOND
     1    12     1    1
     2    13     6    2
     3     1     6   ar
     4     1     2   ar
     5    11     2    2
     6     6     5   ar
     7     2     3   ar
     8    33    27    1
     9    27    19   ar
    10    27    17   ar
    11    19    18   ar
    12    10     8    1
    13     5     4   ar
    14     5    14   ar
    15     3     4   ar
    16     3     7    1
    17    17    14    1
    18    17    32   ar
    19     4    16   ar
    20    18    32   ar
    21    14    15   ar
    22     7     8    1
    23     8     9    1
    24    31    30   ar
    25    31    25   ar
    26    30    29   ar
    27    24    25   ar
    28    24    23   ar
    29    16    15   ar
    30    25    26   ar
    31    15    20    1
    32    29    28   ar
    33    23    22   ar
    34    26    28   ar
    35    26    21   ar
    36    22    21   ar
    37    21    20    1
