@<TRIPOS>MOLECULE
4b1f_DGL_A_1.pdb
 10 9 0 0 0
SMALL
GASTEIGER

@<TRIPOS>ATOM
      1  N         22.8730   -8.6160  -11.4310 N.3   1257  DGL1257    -0.1208
      2  CA        23.3600   -7.3800  -12.1280 C.3   1257  DGL1257     0.1949
      3  C         24.6770   -7.6770  -12.7880 C.2   1257  DGL1257     0.3819
      4  O         25.0420   -8.8850  -12.9140 O.co2 1257  DGL1257    -0.2441
      5  CB        22.3620   -7.0710  -13.2360 C.3   1257  DGL1257     0.0424
      6  CG        21.0360   -6.5390  -12.6210 C.3   1257  DGL1257     0.1161
      7  CD        21.2780   -5.2850  -11.8280 C.2   1257  DGL1257     0.3649
      8  OE1       21.2560   -5.3280  -10.5900 O.co2 1257  DGL1257    -0.2457
      9  OE2       21.5510   -4.2640  -12.4900 O.co2 1257  DGL1257    -0.2457
     10  OXT       25.3550   -6.7400  -13.2290 O.co2 1257  DGL1257    -0.2441
@<TRIPOS>BOND
     1     5     6    1
     2     5     2    1
     3    10     3   ar
     4     4     3   ar
     5     3     2    1
     6     6     7    1
     7     9     7   ar
     8     2     1    1
     9     7     8   ar
