@<TRIPOS>MOLECULE
4b1h_AR6_A_1.pdb
 36 39 0 0 0
SMALL
GASTEIGER

@<TRIPOS>ATOM
      1  N1        23.2960   -4.5470   -1.2150 N.2   1966  AR61966     0.0021
      2  C2        24.1450   -5.4820   -0.7790 C.3   1966  AR61966     0.5254
      3  N3        25.3940   -5.3240   -0.3190 N.2   1966  AR61966    -0.0055
      4  C4        25.7630   -4.0320   -0.3380 C.2   1966  AR61966     0.3518
      5  C5        25.0000   -2.9590   -0.7810 C.2   1966  AR61966     0.2526
      6  C6        23.6940   -3.2490   -1.2380 C.2   1966  AR61966     0.4393
      7  N6        22.8420   -2.3240   -1.6900 N.pl3 1966  AR61966     0.2180
      8  N7        25.7050   -1.7630   -0.6560 N.2   1966  AR61966    -0.2095
      9  C8        26.8760   -2.1490   -0.2090 C.3   1966  AR61966     0.3377
     10  N9        26.9940   -3.5170   -0.0390 N.pl3 1966  AR61966    -0.1439
     11  PA        28.8700   -0.4960    4.3870 P.3   1966  AR61966     0.2189
     12  PB        29.5010   -1.2880    7.2000 P.3   1966  AR61966     0.2189
     13  C1'       28.1510   -4.2660    0.4640 C.3   1966  AR61966     0.3186
     14  O1A       27.9390    0.5920    3.9890 O.2   1966  AR61966    -0.5170
     15  O1B       28.5990   -2.0490    8.1650 O.3   1966  AR61966    -0.4371
     16  C1D       27.8160    3.8460    7.2630 C.3   1966  AR61966     0.3023
     17  O1D       28.2220    5.1910    7.3140 O.3   1966  AR61966    -0.1869
     18  C2'       29.5080   -3.7730   -0.0680 C.3   1966  AR61966     0.2570
     19  O2'       30.3490   -4.9020   -0.3170 O.3   1966  AR61966    -0.2130
     20  O2A       30.3280   -0.0930    4.2700 O.3   1966  AR61966    -0.4371
     21  O2B       30.8050   -1.9320    6.8830 O.2   1966  AR61966    -0.5170
     22  C2D       26.9490    3.4550    8.4470 C.3   1966  AR61966     0.2433
     23  O2D       26.1530    4.4930    8.9500 O.3   1966  AR61966    -0.2148
     24  C3'       29.9930   -2.9300    1.1130 C.3   1966  AR61966     0.2184
     25  O3'       31.4040   -2.8250    1.1800 O.3   1966  AR61966    -0.2174
     26  O3A       28.5960   -1.0060    5.8740 O.3   1966  AR61966    -0.2703
     27  C3D       27.9930    3.1190    9.4960 C.3   1966  AR61966     0.2168
     28  O3D       28.6380    4.2570   10.0510 O.3   1966  AR61966    -0.2175
     29  C4'       29.4570   -3.7160    2.3090 C.3   1966  AR61966     0.1821
     30  O4'       28.1650   -4.1650    1.8730 O.3   1966  AR61966    -0.3135
     31  C4D       28.9850    2.3320    8.6420 C.3   1966  AR61966     0.1807
     32  O4D       28.9510    2.9760    7.3450 O.3   1966  AR61966    -0.3237
     33  C5'       29.3710   -2.9810    3.6380 C.3   1966  AR61966     0.1813
     34  O5'       28.5770   -1.7800    3.4960 O.3   1966  AR61966    -0.3112
     35  C5D       28.6460    0.8530    8.4970 C.3   1966  AR61966     0.1813
     36  O5D       29.7370    0.1500    7.8200 O.3   1966  AR61966    -0.3112
@<TRIPOS>BOND
     1     7     6    1
     2     6     1    2
     3     6     5    1
     4     1     2    1
     5     5     8    2
     6     5     4    1
     7     2     3    1
     8     8     9    1
     9     4     3    2
    10     4    10    1
    11    19    18    1
    12     9    10    1
    13    18    13    1
    14    18    24    1
    15    10    13    1
    16    13    30    1
    17    24    25    1
    18    24    29    1
    19    30    29    1
    20    29    33    1
    21    34    33    1
    22    34    11    1
    23    14    11    2
    24    20    11    1
    25    11    26    1
    26    26    12    1
    27    21    12    2
    28    12    36    1
    29    12    15    1
    30    16    17    1
    31    16    32    1
    32    16    22    1
    33    32    31    1
    34    36    35    1
    35    22    23    1
    36    22    27    1
    37    35    31    1
    38    31    27    1
    39    27    28    1
