@<TRIPOS>MOLECULE
4b1i_A8P_A_1.pdb
 44 47 0 0 0
SMALL
GASTEIGER

@<TRIPOS>ATOM
      1  C1        32.3510   -4.1170   -2.3930 C.3   1967  A8P1967     0.0000
      2  C2        33.2760   -3.1110   -1.7410 C.3   1967  A8P1967     0.0000
      3  C3        33.0190   -1.6270   -2.0490 C.3   1967  A8P1967     0.0000
      4  C4        31.5690   -1.1500   -2.0460 C.3   1967  A8P1967     0.0000
      5  C5        31.1710   -0.0940   -0.9830 C.3   1967  A8P1967     0.0004
      6  C6        29.8630    0.5770   -1.3600 C.3   1967  A8P1967     0.0063
      7  C7        28.8550    0.9050   -0.2920 C.3   1967  A8P1967     0.0472
      8  C8        27.6480    0.0340   -0.3630 C.2   1967  A8P1967     0.0786
      9  N9        27.7110   -1.1550    0.0470 N.2   1967  A8P1967    -0.1834
     10  C10       26.6820   -1.9630   -0.2720 C.cat 1967  A8P1967     0.3725
     11  N11       25.5140   -1.6500   -0.7840 N.2   1967  A8P1967    -0.3334
     12  C12       24.8570   -2.8560   -0.9220 C.2   1967  A8P1967     0.3081
     13  C13       23.5590   -3.1750   -1.3900 C.2   1967  A8P1967     0.4518
     14  N14       23.2050   -4.4720   -1.3740 N.2   1967  A8P1967     0.0031
     15  C15       24.0910   -5.3530   -0.9330 C.3   1967  A8P1967     0.5255
     16  N16       25.3230   -5.1790   -0.4700 N.2   1967  A8P1967    -0.0038
     17  C17       25.6500   -3.8960   -0.4920 C.2   1967  A8P1967     0.3702
     18  N18       26.8380   -3.3230   -0.0820 N.pl3 1967  A8P1967    -0.1010
     19  C19       27.9860   -4.0500    0.4890 C.3   1967  A8P1967     0.3246
     20  C20       29.3770   -3.8180   -0.1120 C.3   1967  A8P1967     0.2574
     21  C21       30.0820   -3.1010    1.0550 C.3   1967  A8P1967     0.2185
     22  C22       29.4060   -3.6710    2.2850 C.3   1967  A8P1967     0.1822
     23  O23       28.0430   -3.7930    1.8740 O.3   1967  A8P1967    -0.3132
     24  C24       29.4470   -2.8380    3.5300 C.3   1967  A8P1967     0.1813
     25  O25       28.9010   -1.5470    3.2560 O.3   1967  A8P1967    -0.3112
     26  P26       29.1430   -0.3460    4.2410 P.3   1967  A8P1967     0.2189
     27  O27       30.5450    0.1380    4.2070 O.3   1967  A8P1967    -0.4371
     28  O28       28.0830    0.7280    4.0050 O.2   1967  A8P1967    -0.5170
     29  O29       28.7380   -1.0420    5.6130 O.3   1967  A8P1967    -0.2703
     30  P30       29.4170   -1.1280    7.0520 P.3   1967  A8P1967     0.2189
     31  O31       28.5350   -1.8530    8.0030 O.3   1967  A8P1967    -0.4371
     32  O32       30.8240   -1.7140    6.8920 O.2   1967  A8P1967    -0.5170
     33  O33       29.5150    0.4020    7.4350 O.3   1967  A8P1967    -0.3123
     34  C34       28.6540    0.9670    8.4500 C.3   1967  A8P1967     0.1691
     35  C35       28.8210    2.4600    8.4350 C.3   1967  A8P1967     0.1357
     36  C36       27.8440    3.1990    9.3510 C.3   1967  A8P1967     0.2018
     37  C37       26.7000    3.5630    8.4080 C.3   1967  A8P1967     0.2009
     38  C38       27.5010    4.0530    7.2050 C.3   1967  A8P1967     0.1243
     39  N39       28.5570    3.0210    7.0970 N.3   1967  A8P1967    -0.2114
     40  O40       25.8520    4.5980    8.8990 O.3   1967  A8P1967    -0.2188
     41  O41       28.4140    4.4070    9.9140 O.3   1967  A8P1967    -0.2188
     42  O42       31.4700   -3.3770    1.1430 O.3   1967  A8P1967    -0.2174
     43  O43       30.0410   -5.0380   -0.4500 O.3   1967  A8P1967    -0.2130
     44  N44       22.6700   -2.2660   -1.8480 N.pl3 1967  A8P1967     0.2193
@<TRIPOS>BOND
     1     1     2    1
     2     3     4    1
     3     3     2    1
     4     4     5    1
     5    44    13    1
     6    13    14    2
     7    13    12    1
     8    14    15    1
     9     6     5    1
    10     6     7    1
    11    15    16    1
    12    12    11    2
    13    12    17    1
    14    11    10    2
    15    17    16    2
    16    17    18    1
    17    43    20    1
    18     8     7    1
    19     8     9    2
    20    10    18    1
    21    10     9    1
    22    20    19    1
    23    20    21    1
    24    18    19    1
    25    19    23    1
    26    21    42    1
    27    21    22    1
    28    23    22    1
    29    22    24    1
    30    25    24    1
    31    25    26    1
    32    28    26    2
    33    27    26    1
    34    26    29    1
    35    29    30    1
    36    32    30    2
    37    30    33    1
    38    30    31    1
    39    39    38    1
    40    39    35    1
    41    38    37    1
    42    33    34    1
    43    37    40    1
    44    37    36    1
    45    35    34    1
    46    35    36    1
    47    36    41    1
