@<TRIPOS>MOLECULE
4b1j_A1R_A_1.pdb
 35 38 0 0 0
SMALL
GASTEIGER

@<TRIPOS>ATOM
      1  N1        23.1950   -4.3180   -1.2490 N.2   1966  A1R1966     0.0021
      2  C2        24.0350   -5.2700   -0.8260 C.3   1966  A1R1966     0.5254
      3  N3        25.3000   -5.1420   -0.4210 N.2   1966  A1R1966    -0.0055
      4  C4        25.6960   -3.8670   -0.4600 C.2   1966  A1R1966     0.3518
      5  C5        24.9440   -2.7800   -0.8690 C.2   1966  A1R1966     0.2526
      6  C6        23.6210   -3.0390   -1.2910 C.2   1966  A1R1966     0.4393
      7  N6        22.7710   -2.1070   -1.7310 N.pl3 1966  A1R1966     0.2180
      8  N7        25.6850   -1.6140   -0.7810 N.2   1966  A1R1966    -0.2095
      9  C8        26.8290   -2.0160   -0.3060 C.3   1966  A1R1966     0.3377
     10  N9        26.9140   -3.3640   -0.0980 N.pl3 1966  A1R1966    -0.1439
     11  C1'       28.0630   -4.1370    0.3870 C.3   1966  A1R1966     0.3186
     12  C2'       29.4320   -3.6500   -0.1100 C.3   1966  A1R1966     0.2570
     13  O2'       30.2510   -4.7900   -0.3840 O.3   1966  A1R1966    -0.2130
     14  C3'       29.9360   -2.8660    1.0910 C.3   1966  A1R1966     0.2184
     15  O3'       31.3510   -2.8270    1.1480 O.3   1966  A1R1966    -0.2174
     16  O4'       28.0760   -4.0890    1.8020 O.3   1966  A1R1966    -0.3135
     17  C4'       29.3830   -3.6870    2.2560 C.3   1966  A1R1966     0.1821
     18  C5'       29.2760   -2.9830    3.5930 C.3   1966  A1R1966     0.1813
     19  O5'       28.6440   -1.7150    3.4130 O.3   1966  A1R1966    -0.3112
     20  PA        28.9310   -0.5290    4.3980 P.3   1966  A1R1966     0.2189
     21  O1A       28.0590    0.6020    4.0480 O.2   1966  A1R1966    -0.5170
     22  O2A       30.4070   -0.2020    4.3390 O.3   1966  A1R1966    -0.4371
     23  O3A       28.6190   -1.1950    5.8110 O.3   1966  A1R1966    -0.2703
     24  PB        29.4190   -1.2670    7.1970 P.3   1966  A1R1966     0.2189
     25  O1B       28.5270   -1.9880    8.1810 O.3   1966  A1R1966    -0.4371
     26  O2B       30.7880   -1.7960    6.9840 O.2   1966  A1R1966    -0.5170
     27  O5N       29.5390    0.2530    7.5920 O.3   1966  A1R1966    -0.3123
     28  C5N       28.6190    0.8370    8.5190 C.3   1966  A1R1966     0.1691
     29  N4N       28.7780    2.9860    7.3040 N.3   1966  A1R1966    -0.2114
     30  C1N       27.5210    3.7570    7.3000 C.3   1966  A1R1966     0.1243
     31  O2N       25.9760    4.4400    8.9890 O.3   1966  A1R1966    -0.2188
     32  C2N       26.8120    3.3820    8.5870 C.3   1966  A1R1966     0.2009
     33  O3N       28.5760    4.2600   10.0160 O.3   1966  A1R1966    -0.2188
     34  C3N       27.9580    3.1000    9.5250 C.3   1966  A1R1966     0.2018
     35  C4N       28.9130    2.3230    8.6140 C.3   1966  A1R1966     0.1357
@<TRIPOS>BOND
     1     7     6    1
     2     6     1    2
     3     6     5    1
     4     1     2    1
     5     5     8    2
     6     5     4    1
     7     2     3    1
     8     8     9    1
     9     4     3    2
    10     4    10    1
    11    13    12    1
    12     9    10    1
    13    12    11    1
    14    12    14    1
    15    10    11    1
    16    11    16    1
    17    14    15    1
    18    14    17    1
    19    16    17    1
    20    17    18    1
    21    19    18    1
    22    19    20    1
    23    21    20    2
    24    22    20    1
    25    20    23    1
    26    23    24    1
    27    26    24    2
    28    24    27    1
    29    24    25    1
    30    30    29    1
    31    30    32    1
    32    29    35    1
    33    27    28    1
    34    28    35    1
    35    32    31    1
    36    32    34    1
    37    35    34    1
    38    34    33    1
