@<TRIPOS>MOLECULE
4b1l_FRU_A_1.pdb
 12 12 0 0 0
SMALL
GASTEIGER

@<TRIPOS>ATOM
      1  C1        13.7250   -6.1210    2.0670 C.3   1678  FRU1678     0.2434
      2  C2        13.5210   -5.0050    3.1120 C.3   1678  FRU1678     0.2807
      3  C3        14.5750   -4.9710    4.2340 C.3   1678  FRU1678     0.2409
      4  C4        13.7290   -4.6900    5.4900 C.3   1678  FRU1678     0.2168
      5  C5        12.4180   -5.3810    5.1360 C.3   1678  FRU1678     0.1836
      6  C6        11.1850   -4.7730    5.7660 C.3   1678  FRU1678     0.2142
      7  O1        12.7390   -5.9840    1.0390 O.3   1678  FRU1678    -0.2148
      8  O2        13.4550   -3.7280    2.4900 O.3   1678  FRU1678    -0.1896
      9  O3        15.5780   -3.9560    4.0250 O.3   1678  FRU1678    -0.2149
     10  O4        14.3540   -5.2500    6.6300 O.3   1678  FRU1678    -0.2175
     11  O5        12.2640   -5.1900    3.7240 O.3   1678  FRU1678    -0.3253
     12  O6        10.0940   -5.5350    5.2360 O.3   1678  FRU1678    -0.2176
@<TRIPOS>BOND
     1     7     1    1
     2     1     2    1
     3     8     2    1
     4     2    11    1
     5     2     3    1
     6    11     5    1
     7     9     3    1
     8     3     4    1
     9     5     4    1
    10     5     6    1
    11    12     6    1
    12     4    10    1
