@<TRIPOS>MOLECULE
4b1m_FRU_A_1.pdb
 11 11 0 0 0
SMALL
GASTEIGER

@<TRIPOS>ATOM
      1  C1        23.1750   -5.8380    4.0380 C.3   1678  FRU1678     0.2141
      2  C2        23.5660   -4.5260    4.7150 C.3   1678  FRU1678     0.1810
      3  C3        22.6840   -4.1620    5.9070 C.3   1678  FRU1678     0.2141
      4  C4        22.3370   -2.6960    5.6820 C.3   1678  FRU1678     0.2141
      5  C5        22.3170   -2.6180    4.1890 C.3   1678  FRU1678     0.1810
      6  C6        22.5900   -1.2620    3.5880 C.3   1678  FRU1678     0.2141
      7  O1        23.8220   -6.0100    2.7880 O.3   1678  FRU1678    -0.2176
      8  O3        23.3640   -4.4080    7.1390 O.3   1678  FRU1678    -0.2176
      9  O4        21.0450   -2.3590    6.1850 O.3   1678  FRU1678    -0.2176
     10  O5        23.3590   -3.5030    3.7680 O.3   1678  FRU1678    -0.3480
     11  O6        22.5270   -1.3760    2.1550 O.3   1678  FRU1678    -0.2176
@<TRIPOS>BOND
     1    11     6    1
     2     7     1    1
     3     6     5    1
     4    10     5    1
     5    10     2    1
     6     1     2    1
     7     5     4    1
     8     2     3    1
     9     4     3    1
    10     4     9    1
    11     3     8    1
