@<TRIPOS>MOLECULE
4b1q_GAL_P_1.pdb
 21 21 0 0 0
SMALL
GASTEIGER

@<TRIPOS>ATOM
      1  C1        12.3040   -9.6860   -7.7290 C.3   1034  GAL1034     0.1195
      2  C2        13.1110   -9.1560   -6.5510 C.3   1034  GAL1034     0.1504
      3  C3        13.1640  -10.2250   -5.4540 C.3   1034  GAL1034     0.1151
      4  C4        11.7400  -10.5680   -5.0650 C.3   1034  GAL1034     0.1118
      5  C5        10.9900  -11.0720   -6.3020 C.3   1034  GAL1034     0.1105
      6  C6         9.5650  -11.4850   -6.0310 C.3   1034  GAL1034     0.0729
      7  O2        14.4370   -8.8770   -7.0600 O.3   1034  GAL1034    -0.2256
      8  O3        13.7920   -9.6780   -4.2930 O.3   1034  GAL1034    -0.3864
      9  O4        11.1150   -9.3980   -4.5290 O.3   1034  GAL1034    -0.3865
     10  O5        10.9660  -10.0460   -7.3200 O.3   1034  GAL1034    -0.3630
     11  O6         8.7590  -11.2820   -7.1800 O.3   1034  GAL1034    -0.3924
     12  H1        12.7960  -10.5720   -8.1620 H     1034  GAL1034     0.0651
     13  H2        12.6450   -8.2330   -6.1810 H     1034  GAL1034     0.0682
     14  H3        13.6790  -11.1270   -5.8280 H     1034  GAL1034     0.0648
     15  H4        11.7660  -11.3890   -4.3280 H     1034  GAL1034     0.0647
     16  H5        11.5510  -11.9350   -6.7040 H     1034  GAL1034     0.0646
     17  H61        9.1630  -10.8690   -5.2400 H     1034  GAL1034     0.0584
     18  H62        9.5810  -12.5230   -5.7250 H     1034  GAL1034     0.0584
     19  HO3       13.0580   -9.3740   -3.7440 H     1034  GAL1034     0.2100
     20  HO4       10.2330   -9.6360   -4.1960 H     1034  GAL1034     0.2100
     21  HO6        9.0840  -10.4780   -7.6040 H     1034  GAL1034     0.2095
@<TRIPOS>BOND
     1    12     1    1
     2     1    10    1
     3     1     2    1
     4    21    11    1
     5    10     5    1
     6    11     6    1
     7     7     2    1
     8    16     5    1
     9     2    13    1
    10     2     3    1
    11     5     6    1
    12     5     4    1
    13     6    18    1
    14     6    17    1
    15    14     3    1
    16     3     4    1
    17     3     8    1
    18     4     9    1
    19     4    15    1
    20     9    20    1
    21     8    19    1
