@<TRIPOS>MOLECULE
4b1q_GXL_P_1.pdb
 22 22 0 0 0
SMALL
GASTEIGER

@<TRIPOS>ATOM
      1  C1        11.8000   -7.1630  -16.5360 C.3   1033  GXL1033     0.1161
      2  C2        12.5320   -8.4530  -16.8750 C.3   1033  GXL1033     0.1121
      3  C3        13.1000   -8.3740  -18.2880 C.3   1033  GXL1033     0.1118
      4  C4        14.0370   -7.1870  -18.3540 C.3   1033  GXL1033     0.1117
      5  C5        13.2620   -5.9120  -17.9860 C.3   1033  GXL1033     0.1105
      6  C6        14.1550   -4.6860  -17.9500 C.3   1033  GXL1033     0.0729
      7  O2        11.6330   -9.5550  -16.7980 O.3   1033  GXL1033    -0.3865
      8  O3        13.8630   -9.5590  -18.5050 O.3   1033  GXL1033    -0.3865
      9  O4        15.1330   -7.3950  -17.4670 O.3   1033  GXL1033    -0.3865
     10  O5        12.7050   -6.0460  -16.6460 O.3   1033  GXL1033    -0.3631
     11  O6        14.3560   -4.2630  -16.6130 O.3   1033  GXL1033    -0.3924
     12  H1        11.4880   -7.2090  -15.4820 H     1033  GXL1033     0.0650
     13  HA        13.3630   -8.5610  -16.1590 H     1033  GXL1033     0.0647
     14  H3        12.2880   -8.2510  -19.0250 H     1033  GXL1033     0.0647
     15  H4        14.3750   -7.0660  -19.4010 H     1033  GXL1033     0.0647
     16  H5        12.4410   -5.7540  -18.7070 H     1033  GXL1033     0.0646
     17 H6C1       13.6740   -3.8790  -18.4830 H     1033  GXL1033     0.0584
     18 H6C2       15.0830   -4.9530  -18.4400 H     1033  GXL1033     0.0584
     19  H2        10.8550   -9.3100  -17.3170 H     1033  GXL1033     0.2100
     20  HC        13.9840   -9.9480  -17.6280 H     1033  GXL1033     0.2100
     21  HD        15.0740   -8.2860  -17.1010 H     1033  GXL1033     0.2100
     22  H6        13.9680   -4.9730  -16.0820 H     1033  GXL1033     0.2095
@<TRIPOS>BOND
     1    15     4    1
     2    14     3    1
     3    16     5    1
     4     8     3    1
     5     8    20    1
     6    17     6    1
     7    18     6    1
     8     4     3    1
     9     4     5    1
    10     4     9    1
    11     3     2    1
    12     5     6    1
    13     5    10    1
    14     6    11    1
    15     9    21    1
    16    19     7    1
    17     2     7    1
    18     2     1    1
    19     2    13    1
    20    10     1    1
    21    11    22    1
    22     1    12    1
