@<TRIPOS>MOLECULE
4b1q_A2G_P_1.pdb
 26 26 0 0 0
SMALL
GASTEIGER

@<TRIPOS>ATOM
      1  O         11.1150   -8.3610  -12.6700 O.3   1031  A2G1031    -0.3638
      2  C1        12.2960   -9.1320  -12.3750 C.3   1031  A2G1031     0.1080
      3  C2        12.8210   -8.7730  -11.0080 C.3   1031  A2G1031     0.0834
      4  N2        13.9540   -9.6210  -10.7560 N.am  1031  A2G1031    -0.3074
      5  C3        11.7360   -9.0370   -9.9830 C.3   1031  A2G1031     0.1426
      6  O3        12.1980   -8.6580   -8.7030 O.3   1031  A2G1031    -0.2264
      7  C4        10.5150   -8.2010  -10.3290 C.3   1031  A2G1031     0.1144
      8  O4        10.8610   -6.8180  -10.3270 O.3   1031  A2G1031    -0.3864
      9  C5        10.0410   -8.5900  -11.7090 C.3   1031  A2G1031     0.1138
     10  C6         8.8260   -7.7920  -12.1760 C.3   1031  A2G1031     0.1115
     11  O6         8.9190   -7.6330  -13.6000 O.3   1031  A2G1031    -0.2320
     12  C7        15.0950   -9.3720  -11.3520 C.2   1031  A2G1031     0.2103
     13  O7        15.2640   -8.3860  -12.0690 O.2   1031  A2G1031    -0.2761
     14  C8        16.1850  -10.3700  -11.1760 C.3   1031  A2G1031     0.0122
     15  H1        13.0610   -8.9030  -13.1350 H     1031  A2G1031     0.0642
     16  H2        13.1220   -7.7150  -10.9670 H     1031  A2G1031     0.0552
     17  HN2       13.8100  -10.3970  -10.1730 H     1031  A2G1031     0.1491
     18  H3        11.4580  -10.1020  -10.0230 H     1031  A2G1031     0.0674
     19  H4         9.7200   -8.4280   -9.6030 H     1031  A2G1031     0.0648
     20  HO4       11.5970   -6.6680   -9.7130 H     1031  A2G1031     0.2100
     21  H5         9.8010   -9.6600  -11.7220 H     1031  A2G1031     0.0647
     22  H6         8.8630   -6.8120  -11.7300 H     1031  A2G1031     0.0618
     23  H8        15.8950  -11.2960  -11.6500 H     1031  A2G1031     0.0322
     24  H8A       17.0840   -9.9980  -11.6460 H     1031  A2G1031     0.0322
     25  H8B       16.3750  -10.5460  -10.1280 H     1031  A2G1031     0.0322
     26  H14        7.9370   -8.3290  -11.8690 H     1031  A2G1031     0.0618
@<TRIPOS>BOND
     1    11    10    1
     2    15     2    1
     3     1     2    1
     4     1     9    1
     5     2     3    1
     6    10    26    1
     7    10    22    1
     8    10     9    1
     9    13    12    2
    10    21     9    1
    11     9     7    1
    12    23    14    1
    13    24    14    1
    14    12    14    1
    15    12     4   am
    16    14    25    1
    17     3    16    1
    18     3     4    1
    19     3     5    1
    20     4    17    1
    21     7     8    1
    22     7     5    1
    23     7    19    1
    24     8    20    1
    25    18     5    1
    26     5     6    1
