@<TRIPOS>MOLECULE
4b1v_ATP_A_1.pdb
 31 33 0 0 0
SMALL
GASTEIGER

@<TRIPOS>ATOM
      1  PG       -12.1080   -3.0410   -7.8280 P.3   1377  ATP1377     0.5373
      2  O1G      -12.5480   -3.2520   -9.2660 O.2   1377  ATP1377    -0.2221
      3  O2G      -10.6680   -3.4250   -7.5600 O.3   1377  ATP1377    -0.1143
      4  O3G      -13.0820   -3.5520   -6.8040 O.3   1377  ATP1377    -0.1143
      5  PB       -11.0880   -0.2970   -7.7800 P.3   1377  ATP1377     0.2277
      6  O1B       -9.7120   -0.8850   -8.0810 O.3   1377  ATP1377    -0.4368
      7  O2B      -11.6190    0.7480   -8.7470 O.2   1377  ATP1377    -0.5168
      8  O3B      -12.2060   -1.4380   -7.5810 O.3   1377  ATP1377    -0.2258
      9  PA        -9.8390    1.0760   -5.5210 P.3   1377  ATP1377     0.2189
     10  O1A       -8.8790    0.0940   -4.9190 O.3   1377  ATP1377    -0.4371
     11  O2A       -9.3850    2.1080   -6.5340 O.2   1377  ATP1377    -0.5170
     12  O3A      -11.0450    0.2730   -6.2680 O.3   1377  ATP1377    -0.2700
     13  O5'      -10.6290    1.7620   -4.3100 O.3   1377  ATP1377    -0.3112
     14  C5'      -11.7550    2.6290   -4.4680 C.3   1377  ATP1377     0.1813
     15  C4'      -12.6940    2.2870   -3.3060 C.3   1377  ATP1377     0.1821
     16  O4'      -11.9540    2.2930   -2.0890 O.3   1377  ATP1377    -0.3135
     17  C3'      -13.8640    3.2430   -3.1230 C.3   1377  ATP1377     0.2184
     18  O3'      -14.9880    2.4840   -2.6660 O.3   1377  ATP1377    -0.2174
     19  C2'      -13.3880    4.1240   -1.9890 C.3   1377  ATP1377     0.2570
     20  O2'      -14.4680    4.7620   -1.2990 O.3   1377  ATP1377    -0.2130
     21  C1'      -12.6050    3.1310   -1.1500 C.3   1377  ATP1377     0.3186
     22  N9       -11.6590    3.9120   -0.3680 N.pl3 1377  ATP1377    -0.1439
     23  C8       -10.7330    4.7680   -0.8570 C.3   1377  ATP1377     0.3377
     24  N7       -10.0560    5.3520    0.1670 N.2   1377  ATP1377    -0.2095
     25  C5       -10.5680    4.8600    1.3020 C.2   1377  ATP1377     0.2526
     26  C6       -10.3040    5.0730    2.7310 C.2   1377  ATP1377     0.4393
     27  N6        -9.3310    5.9380    3.0800 N.pl3 1377  ATP1377     0.2180
     28  N1       -11.0450    4.3920    3.6310 N.2   1377  ATP1377     0.0021
     29  C2       -12.0070    3.5310    3.2350 C.3   1377  ATP1377     0.5254
     30  N3       -12.2950    3.2860    1.9480 N.2   1377  ATP1377    -0.0055
     31  C4       -11.6260    3.9210    0.9590 C.2   1377  ATP1377     0.3518
@<TRIPOS>BOND
     1     2     1    2
     2     7     5    2
     3     6     5    1
     4     1     8    1
     5     1     3    1
     6     1     4    1
     7     5     8    1
     8     5    12    1
     9    11     9    2
    10    12     9    1
    11     9    10    1
    12     9    13    1
    13    14    13    1
    14    14    15    1
    15    15    17    1
    16    15    16    1
    17    17    18    1
    18    17    19    1
    19    16    21    1
    20    19    20    1
    21    19    21    1
    22    21    22    1
    23    23    22    1
    24    23    24    1
    25    22    31    1
    26    24    25    2
    27    31    25    1
    28    31    30    2
    29    25    26    1
    30    30    29    1
    31    26    27    1
    32    26    28    2
    33    29    28    1
