@<TRIPOS>MOLECULE
4b1v_LAB_A_1.pdb
 27 29 0 0 0
SMALL
GASTEIGER

@<TRIPOS>ATOM
      1  O5       -18.2640    4.2730   -2.6950 O.2   1500  LAB1500    -0.2155
      2  C18      -18.6830    4.6270   -3.7810 C.1   1500  LAB1500     0.1790
      3  N1       -18.1840    4.1090   -5.0600 N.2   1500  LAB1500    -0.1932
      4  C16      -18.6580    4.9410   -6.1860 C.3   1500  LAB1500     0.1810
      5  C17      -19.9160    5.6450   -5.8070 C.3   1500  LAB1500     0.1042
      6  S1       -19.9440    5.7990   -4.0860 S.3   1500  LAB1500    -0.0192
      7  C15      -17.5970    5.8870   -6.6960 C.3   1500  LAB1500     0.2448
      8  O4       -17.5140    7.0090   -5.9120 O.3   1500  LAB1500    -0.1930
      9  C14      -16.2070    5.2640   -6.7020 C.3   1500  LAB1500     0.1048
     10  C13      -15.2250    5.9930   -7.6300 C.3   1500  LAB1500     0.1766
     11  O2       -14.6840    7.1620   -7.1000 O.3   1500  LAB1500    -0.4490
     12  C12      -15.8700    6.3420   -8.9230 C.3   1500  LAB1500     0.0734
     13  C11      -17.0790    7.1250   -8.6510 C.3   1500  LAB1500     0.1214
     14  O3       -17.9630    6.3270   -7.9640 O.3   1500  LAB1500    -0.3329
     15  C10      -17.7130    7.6390   -9.9310 C.3   1500  LAB1500     0.0298
     16  C9       -18.8030    8.6280   -9.5530 C.3   1500  LAB1500     0.0025
     17  C8       -18.3230    9.9430   -8.9940 C.3   1500  LAB1500     0.0001
     18  C20      -19.3770   10.9700   -9.1090 C.3   1500  LAB1500     0.0000
     19  C7       -17.0490   10.4440   -9.6650 C.3   1500  LAB1500     0.0000
     20  C6       -15.9250   10.9530   -8.9760 C.3   1500  LAB1500     0.0003
     21  C5       -15.4690   10.4780   -7.6010 C.3   1500  LAB1500     0.0043
     22  C4       -13.9980   10.0760   -7.6140 C.3   1500  LAB1500     0.0222
     23  C3       -13.4780    9.8940   -6.1840 C.2   1500  LAB1500    -0.0375
     24  C19      -12.9770   11.1020   -5.4350 C.3   1500  LAB1500     0.0266
     25  C2       -13.3490    8.6590   -5.5240 C.2   1500  LAB1500     0.0734
     26  C1       -13.8740    7.3000   -5.9570 C.2   1500  LAB1500     0.3407
     27  O1       -13.3540    6.3030   -5.4950 O.2   1500  LAB1500    -0.2449
@<TRIPOS>BOND
     1    15    16    1
     2    15    13    1
     3    19    17    1
     4    19    20    1
     5    16    17    1
     6    18    17    1
     7    20    21    1
     8    12    13    1
     9    12    10    1
    10    13    14    1
    11    14     7    1
    12    10    11    1
    13    10     9    1
    14    22    21    1
    15    22    23    1
    16    11    26    1
    17     9     7    1
    18     7     4    1
    19     7     8    1
    20     4     5    1
    21     4     3    1
    22    23    25    2
    23    23    24    1
    24    26    25    1
    25    26    27    2
    26     5     6    1
    27     3     2    2
    28     6     2    1
    29     2     1    2
