@<TRIPOS>MOLECULE
4b1z_ATP_A_1.pdb
 31 33 0 0 0
SMALL
GASTEIGER

@<TRIPOS>ATOM
      1  PG       -29.0650   29.9520  -33.0350 P.3   1376  ATP1376     0.5373
      2  O1G      -27.6870   30.4660  -33.3590 O.3   1376  ATP1376    -0.1143
      3  O2G      -29.2830   29.6610  -31.5690 O.3   1376  ATP1376    -0.1143
      4  O3G      -29.5420   28.8600  -33.9630 O.2   1376  ATP1376    -0.2221
      5  PB       -30.0340   32.5860  -32.5850 P.3   1376  ATP1376     0.2277
      6  O1B      -29.7410   32.3520  -31.1220 O.3   1376  ATP1376    -0.4368
      7  O2B      -29.2100   33.5720  -33.3800 O.2   1376  ATP1376    -0.5168
      8  O3B      -30.0540   31.1800  -33.3740 O.3   1376  ATP1376    -0.2258
      9  PA       -32.2650   34.1750  -31.8800 P.3   1376  ATP1376     0.2189
     10  O1A      -32.4330   33.7270  -30.4470 O.3   1376  ATP1376    -0.4371
     11  O2A      -31.5620   35.4770  -32.1790 O.2   1376  ATP1376    -0.5170
     12  O3A      -31.5790   33.0040  -32.7420 O.3   1376  ATP1376    -0.2700
     13  O5'      -33.7110   34.2100  -32.5800 O.3   1376  ATP1376    -0.3112
     14  C5'      -33.9010   34.9370  -33.7910 C.3   1376  ATP1376     0.1813
     15  C4'      -35.0030   34.2680  -34.6030 C.3   1376  ATP1376     0.1821
     16  O4'      -36.2200   34.2920  -33.8570 O.3   1376  ATP1376    -0.3135
     17  C3'      -35.2580   34.9880  -35.9180 C.3   1376  ATP1376     0.2184
     18  O3'      -35.0990   34.0670  -36.9990 O.3   1376  ATP1376    -0.2174
     19  C2'      -36.6970   35.4570  -35.8640 C.3   1376  ATP1376     0.2570
     20  O2'      -37.3850   35.0990  -37.0650 O.3   1376  ATP1376    -0.2130
     21  C1'      -37.3040   34.7430  -34.6670 C.3   1376  ATP1376     0.3186
     22  N9       -38.1600   35.6660  -33.8850 N.pl3 1376  ATP1376    -0.1439
     23  C8       -37.7420   36.7530  -33.2080 C.3   1376  ATP1376     0.3377
     24  N7       -38.7840   37.3790  -32.6020 N.2   1376  ATP1376    -0.2095
     25  C5       -39.8980   36.6810  -32.8930 C.2   1376  ATP1376     0.2526
     26  C6       -41.3420   36.7900  -32.5750 C.2   1376  ATP1376     0.4393
     27  N6       -41.8160   37.7960  -31.8020 N.pl3 1376  ATP1376     0.2180
     28  N1       -42.1700   35.8490  -33.0820 N.2   1376  ATP1376     0.0021
     29  C2       -41.7130   34.8430  -33.8510 C.3   1376  ATP1376     0.5254
     30  N3       -40.4190   34.6830  -34.1800 N.2   1376  ATP1376    -0.0055
     31  C4       -39.4810   35.5550  -33.7410 C.2   1376  ATP1376     0.3518
@<TRIPOS>BOND
     1    20    19    1
     2    18    17    1
     3    17    19    1
     4    17    15    1
     5    19    21    1
     6    21    22    1
     7    21    16    1
     8    15    16    1
     9    15    14    1
    10    30    29    1
    11    30    31    2
    12     4     1    2
    13    22    31    1
    14    22    23    1
    15    29    28    1
    16    14    13    1
    17    31    25    1
    18     7     5    2
    19     8     1    1
    20     8     5    1
    21     2     1    1
    22    23    24    1
    23    28    26    2
    24     1     3    1
    25    25    24    2
    26    25    26    1
    27    12     5    1
    28    12     9    1
    29     5     6    1
    30    13     9    1
    31    26    27    1
    32    11     9    2
    33     9    10    1
