@<TRIPOS>MOLECULE
4b21_BGC_A_1.pdb
 12 12 0 0 0
SMALL
GASTEIGER

@<TRIPOS>ATOM
      1  C2         7.7180   12.1590   27.4010 C.3   1209  BGC1209     0.2434
      2  C3         7.8630   13.7060   27.4830 C.3   1209  BGC1209     0.2199
      3  C4         8.3860   14.2050   26.1130 C.3   1209  BGC1209     0.2144
      4  C5         7.3310   13.8210   25.0180 C.3   1209  BGC1209     0.1836
      5  C6         7.8240   14.2930   23.6340 C.3   1209  BGC1209     0.2142
      6  C1         6.6810   11.8410   26.2740 C.3   1209  BGC1209     0.3024
      7  O1         6.5200   10.4280   26.1610 O.3   1209  BGC1209    -0.1869
      8  O2         7.2400   11.6570   28.6570 O.3   1209  BGC1209    -0.2148
      9  O3         8.8100   14.0430   28.5060 O.3   1209  BGC1209    -0.2174
     10  O4         8.5390   15.6330   26.1520 O.3   1209  BGC1209    -0.2176
     11  O5         7.1520   12.3600   24.9830 O.3   1209  BGC1209    -0.3236
     12  O6         8.9040   13.4680   23.1920 O.3   1209  BGC1209    -0.2176
@<TRIPOS>BOND
     1    12     5    1
     2     5     4    1
     3    11     4    1
     4    11     6    1
     5     4     3    1
     6     3    10    1
     7     3     2    1
     8     7     6    1
     9     6     1    1
    10     1     2    1
    11     1     8    1
    12     2     9    1
