@<TRIPOS>MOLECULE
4b27_TRP_A_1.pdb
 15 16 0 0 0
SMALL
GASTEIGER

@<TRIPOS>ATOM
      1  CD2       23.0580   16.4370   24.1580 C.2    81  TRP81       0.0113
      2  CE3       23.8900   17.5510   24.0160 C.2    81  TRP81      -0.0202
      3  CZ3       23.6340   18.4460   22.9630 C.3    81  TRP81       0.0521
      4  CH2       22.5750   18.2400   22.0610 C.2    81  TRP81      -0.0199
      5  CZ2       21.7140   17.1400   22.1640 C.2    81  TRP81       0.0148
      6  CE2       21.9580   16.2440   23.2030 C.2    81  TRP81       0.0804
      7  NE1       21.3280   15.1070   23.5560 N.2    81  TRP81      -0.2442
      8  CD1       21.9190   14.5420   24.6610 C.2    81  TRP81       0.0946
      9  CG        22.9900   15.3020   25.0980 C.2    81  TRP81       0.0001
     10  CB        23.8950   15.0140   26.2660 C.3    81  TRP81       0.0585
     11  CA        23.3930   15.5210   27.6030 C.3    81  TRP81       0.1987
     12  N         24.3300   15.1470   28.6580 N.3    81  TRP81      -0.1205
     13  C         22.0080   15.0090   27.8800 C.2    81  TRP81       0.3822
     14  O         21.8410   13.9750   28.5150 O.co2  81  TRP81      -0.2440
     15  OXT       21.0030   15.6170   27.4940 O.co2  81  TRP81      -0.2440
@<TRIPOS>BOND
     1     4     5    2
     2     4     3    1
     3     5     6    1
     4     3     2    1
     5     6     7    2
     6     6     1    1
     7     7     8    1
     8     2     1    2
     9     1     9    1
    10     8     9    2
    11     9    10    1
    12    10    11    1
    13    15    13   ar
    14    11    13    1
    15    11    12    1
    16    13    14   ar
