@<TRIPOS>MOLECULE
4b2d_SER_A_1.pdb
 14 13 0 0 0
SMALL
GASTEIGER

@<TRIPOS>ATOM
      1  N        -11.0230   -4.2890    2.0280 N.4   1532  SER1532     0.3886
      2  CA       -10.1270   -4.3580    0.8410 C.3   1532  SER1532     0.0440
      3  C        -10.8090   -5.1030   -0.3180 C.2   1532  SER1532     0.3442
      4  O        -10.2930   -4.9670   -1.4470 O.co2 1532  SER1532    -0.2482
      5  CB        -8.8090   -5.0300    1.2000 C.3   1532  SER1532     0.0415
      6  OG        -9.0170   -6.3070    1.7890 O.3   1532  SER1532    -0.3961
      7  OXT      -11.8200   -5.7880   -0.0670 O.co2 1532  SER1532    -0.2482
      8  H        -10.5640   -4.3890    2.7400 H     1532  SER1532    -0.0888
      9  H2       -11.6430   -4.9050    1.9990 H     1532  SER1532    -0.0888
     10  HA        -9.9430   -3.4370    0.5560 H     1532  SER1532     0.0221
     11  HB2       -8.2770   -5.1330    0.3910 H     1532  SER1532     0.0546
     12  HB3       -8.3160   -4.4610    1.8230 H     1532  SER1532     0.0546
     13  HG        -8.9360   -6.2400    2.6100 H     1532  SER1532     0.2093
     14  H3       -11.3990   -3.5100    2.0600 H     1532  SER1532    -0.0888
@<TRIPOS>BOND
     1     4     3   ar
     2     3     7   ar
     3     3     2    1
     4    11     5    1
     5    10     2    1
     6     2     5    1
     7     2     1    1
     8     5     6    1
     9     5    12    1
    10     6    13    1
    11     9     1    1
    12     1    14    1
    13     1     8    1
