@<TRIPOS>MOLECULE
4b2d_FBP_A_1.pdb
 20 20 0 0 0
SMALL
GASTEIGER

@<TRIPOS>ATOM
      1  P1       -23.6110  -18.4380   12.4440 P.3   600  FBP600      0.5328
      2  O1P      -23.4080  -17.4650   11.3590 O.2   600  FBP600     -0.2224
      3  O2P      -23.6660  -19.8770   11.9870 O.3   600  FBP600     -0.1145
      4  O3P      -24.7750  -18.0680   13.3810 O.3   600  FBP600     -0.1145
      5  O1       -22.3330  -18.3290   13.3240 O.3   600  FBP600     -0.2648
      6  C1       -21.0570  -18.7780   12.8790 C.3   600  FBP600      0.2152
      7  C2       -19.9800  -18.1940   13.7870 C.3   600  FBP600      0.2780
      8  O2       -18.7250  -18.7380   13.4060 O.3   600  FBP600     -0.1897
      9  C3       -20.2020  -18.4100   15.3150 C.3   600  FBP600      0.2408
     10  O3       -19.8000  -19.6700   15.8390 O.3   600  FBP600     -0.2149
     11  C4       -19.4450  -17.2140   15.8850 C.3   600  FBP600      0.2167
     12  O4       -19.8250  -16.9360   17.2270 O.3   600  FBP600     -0.2175
     13  C5       -19.8930  -16.1040   14.9110 C.3   600  FBP600      0.1808
     14  O5       -20.0150  -16.7560   13.6170 O.3   600  FBP600     -0.3255
     15  C6       -18.9470  -14.9080   14.8150 C.3   600  FBP600      0.1859
     16  O6       -19.7210  -13.7150   14.6460 O.3   600  FBP600     -0.2675
     17  P2       -19.2680  -12.3450   15.3030 P.3   600  FBP600      0.5327
     18  O4P      -17.9660  -11.9100   14.6960 O.2   600  FBP600     -0.2224
     19  O5P      -20.3880  -11.3930   15.0340 O.3   600  FBP600     -0.1145
     20  O6P      -19.1500  -12.6500   16.8850 O.3   600  FBP600     -0.1145
@<TRIPOS>BOND
     1     2     1    2
     2     3     1    1
     3     1     5    1
     4     1     4    1
     5     6     5    1
     6     6     7    1
     7     8     7    1
     8    14     7    1
     9    14    13    1
    10     7     9    1
    11    16    15    1
    12    16    17    1
    13    18    17    2
    14    15    13    1
    15    13    11    1
    16    19    17    1
    17    17    20    1
    18     9    10    1
    19     9    11    1
    20    11    12    1
