@<TRIPOS>MOLECULE
4b2g_V1N_A_1.pdb
 33 37 0 0 0
SMALL
GASTEIGER

@<TRIPOS>ATOM
      1  C27      -33.4760   -5.4770   38.7380 C.2   1600  V1N1600    -0.0038
      2  C28      -33.3550   -6.0810   39.9730 C.2   1600  V1N1600     0.0009
      3  C26      -32.8130   -5.9490   37.6280 C.2   1600  V1N1600    -0.0164
      4  C29      -32.5700   -7.2000   40.1770 C.2   1600  V1N1600     0.0153
      5  C22      -30.6170   -8.8330   37.6560 C.2   1600  V1N1600     0.0907
      6  C4       -32.8830   -0.9240   32.2160 C.3   1600  V1N1600     0.5254
      7  C9       -30.7410   -3.7760   34.6460 C.3   1600  V1N1600     0.3377
      8  C25      -32.0110   -7.0670   37.8070 C.3   1600  V1N1600     0.0819
      9  C21      -31.1920   -7.8200   36.9230 C.2   1600  V1N1600    -0.0133
     10  C7       -32.1720   -2.2170   34.3520 C.2   1600  V1N1600     0.2526
     11  C24      -31.9150   -7.6570   39.0570 C.2   1600  V1N1600     0.0665
     12  C6       -31.6200   -2.4830   33.1180 C.2   1600  V1N1600     0.3518
     13  C2       -33.1440   -1.2340   34.4670 C.2   1600  V1N1600     0.4393
     14  C32      -28.4540   -3.5940   32.3700 C.3   1600  V1N1600     0.2596
     15  C30      -27.5340   -4.7710   32.5290 C.3   1600  V1N1600     0.2451
     16  C11      -29.8220   -4.1760   32.3650 C.3   1600  V1N1600     0.3205
     17  C13      -28.3080   -5.8720   33.3030 C.3   1600  V1N1600     0.2771
     18  C20      -31.0080   -7.5560   35.4880 C.3   1600  V1N1600     0.0568
     19  C19      -30.3650   -8.7230   34.7730 C.3   1600  V1N1600     0.1535
     20  N5       -31.9510   -1.8500   31.9970 N.2   1600  V1N1600    -0.0055
     21  N3       -33.4880   -0.5800   33.3520 N.2   1600  V1N1600     0.0021
     22  N8       -31.6150   -3.0340   35.2950 N.2   1600  V1N1600    -0.2095
     23  N23      -31.0650   -8.7120   38.9340 N.2   1600  V1N1600    -0.2482
     24  N10      -30.6970   -3.4800   33.3140 N.pl3 1600  V1N1600    -0.1438
     25  N1       -33.7550   -0.9120   35.6830 N.pl3 1600  V1N1600     0.2180
     26  O16      -28.6440   -9.9130   33.0370 O.2   1600  V1N1600    -0.5172
     27  O12      -29.6450   -5.5400   32.8440 O.3   1600  V1N1600    -0.2888
     28  O33      -28.1570   -2.9620   31.1330 O.3   1600  V1N1600    -0.2129
     29  O31      -26.4510   -4.0720   33.1550 O.3   1600  V1N1600    -0.2147
     30  O14      -27.9750   -7.2820   32.9760 O.3   1600  V1N1600    -0.2859
     31  O18      -28.9940   -8.6330   35.0590 O.3   1600  V1N1600    -0.3137
     32  O17      -26.6440   -9.1080   34.3120 O.3   1600  V1N1600    -0.4373
     33  P15      -28.0120   -8.7910   33.7800 P.3   1600  V1N1600     0.2160
@<TRIPOS>BOND
     1    28    14    1
     2    20     6    1
     3    20    12    2
     4     6    21    1
     5    16    14    1
     6    16    27    1
     7    16    24    1
     8    14    15    1
     9    15    29    1
    10    15    17    1
    11    27    17    1
    12    30    17    1
    13    30    33    1
    14    26    33    2
    15    12    24    1
    16    12    10    1
    17    24     7    1
    18    21    13    2
    19    33    32    1
    20    33    31    1
    21    10    13    1
    22    10    22    2
    23    13    25    1
    24     7    22    1
    25    19    31    1
    26    19    18    1
    27    18     9    1
    28     9     5    2
    29     9     8    1
    30     3     8    1
    31     3     1    2
    32     5    23    1
    33     8    11    1
    34     1     2    1
    35    23    11    2
    36    11     4    1
    37     2     4    2
