@<TRIPOS>MOLECULE
4b2l_TR7_A_1.pdb
 16 17 0 0 0
SMALL
GASTEIGER

@<TRIPOS>ATOM
      1  N         23.9010    7.1510   -5.5770 N.3   1351  TR71351    -0.1206
      2  CA        22.5490    7.3770   -5.0360 C.3   1351  TR71351     0.1941
      3  C         21.8560    8.5110   -5.8000 C.2   1351  TR71351     0.3350
      4  O         20.4990    8.5020   -5.9130 O.3   1351  TR71351    -0.4434
      5  CB        22.6450    7.7650   -3.5630 C.3   1351  TR71351     0.0547
      6  CG        21.2500    7.9980   -2.9560 C.2   1351  TR71351    -0.0138
      7  CD1       20.6420    9.1700   -2.7540 C.2   1351  TR71351     0.0907
      8  CD2       20.3840    7.0090   -2.5150 C.3   1351  TR71351     0.0819
      9  NE1       19.4340    8.9730   -2.2010 N.2   1351  TR71351    -0.2482
     10  CE2       19.2570    7.6660   -2.0420 C.2   1351  TR71351     0.0665
     11  CE3       20.4640    5.6220   -2.4730 C.2   1351  TR71351    -0.0164
     12  CZ2       18.2000    6.9380   -1.5230 C.2   1351  TR71351     0.0153
     13  CZ3       19.3990    4.8910   -1.9490 C.2   1351  TR71351    -0.0038
     14  CH2       18.2830    5.5600   -1.4830 C.2   1351  TR71351     0.0009
     15  OXT       22.5110    9.4210   -6.3120 O.2   1351  TR71351    -0.2485
     16  CAJ       20.0490    9.6360   -6.6550 C.3   1351  TR71351     0.2556
@<TRIPOS>BOND
     1    16     4    1
     2    15     3    2
     3     4     3    1
     4     3     2    1
     5     1     2    1
     6     2     5    1
     7     5     6    1
     8     6     7    2
     9     6     8    1
    10     7     9    1
    11     8    11    1
    12     8    10    1
    13    11    13    2
    14     9    10    2
    15    10    12    1
    16    13    14    1
    17    12    14    2
