@<TRIPOS>MOLECULE
4b2q_ATP_a_1.pdb
 31 33 0 0 0
SMALL
GASTEIGER

@<TRIPOS>ATOM
      1  PG       370.9010   93.7600  242.7330 P.3   1511  ATP1511     0.8585
      2  O1G      371.9120   92.6480  242.8790 O.3   1511  ATP1511    -0.0578
      3  O2G      370.2310   94.1760  244.0190 O.3   1511  ATP1511     0.3985
      4  O3G      371.3550   94.9320  241.8950 O.2   1511  ATP1511    -0.1694
      5  PB       368.4790   92.3550  242.6600 P.3   1511  ATP1511     0.2335
      6  O1B      368.6400   90.8540  242.5980 O.2   1511  ATP1511    -0.5167
      7  O2B      368.2680   92.9970  244.0100 O.3   1511  ATP1511    -0.4367
      8  O3B      369.7070   93.0710  241.9000 O.3   1511  ATP1511    -0.1752
      9  PA       365.9330   93.4280  242.3360 P.3   1511  ATP1511     0.2189
     10  O1A      364.9410   92.2980  242.4860 O.2   1511  ATP1511    -0.5170
     11  O2A      366.3270   94.2100  243.5620 O.3   1511  ATP1511    -0.4371
     12  O3A      367.2550   92.7700  241.7010 O.3   1511  ATP1511    -0.2699
     13  O5'      365.3680   94.4780  241.2540 O.3   1511  ATP1511    -0.3112
     14  C5'      365.2220   95.8690  241.5690 C.3   1511  ATP1511     0.1813
     15  C4'      364.3300   96.4590  240.4870 C.3   1511  ATP1511     0.1821
     16  O4'      363.5710   95.3710  239.9790 O.3   1511  ATP1511    -0.3135
     17  C3'      363.3450   97.5180  240.9570 C.3   1511  ATP1511     0.2184
     18  O3'      363.5930   98.7420  240.2520 O.3   1511  ATP1511    -0.2174
     19  C2'      361.9640   96.9960  240.5980 C.3   1511  ATP1511     0.2570
     20  O2'      361.2900   97.9560  239.7800 O.3   1511  ATP1511    -0.2130
     21  C1'      362.2200   95.7530  239.7580 C.3   1511  ATP1511     0.3186
     22  N9       361.3880   94.5460  240.0190 N.pl3 1511  ATP1511    -0.1439
     23  C8       361.8720   93.4170  240.5760 C.3   1511  ATP1511     0.3377
     24  N7       360.9220   92.4590  240.6610 N.2   1511  ATP1511    -0.2095
     25  C5       359.8040   92.9710  240.1310 C.2   1511  ATP1511     0.2526
     26  C6       358.4360   92.4660  239.9170 C.2   1511  ATP1511     0.4393
     27  N6       358.1220   91.2080  240.3070 N.pl3 1511  ATP1511     0.2180
     28  N1       357.5440   93.2970  239.3320 N.2   1511  ATP1511     0.0021
     29  C2       357.8900   94.5450  238.9550 C.3   1511  ATP1511     0.5254
     30  N3       359.1180   95.0690  239.1210 N.2   1511  ATP1511    -0.0055
     31  C4       360.1080   94.3410  239.6940 C.2   1511  ATP1511     0.3518
@<TRIPOS>UNITY_ATOM_ATTR
3 1
charge 1
6 1
charge 1
10 1
charge 1
@<TRIPOS>BOND
     1    29    30    1
     2    29    28    1
     3    30    31    2
     4    28    26    2
     5    31    22    1
     6    31    25    1
     7    21    16    1
     8    21    22    1
     9    21    19    1
    10    20    19    1
    11    26    25    1
    12    26    27    1
    13    16    15    1
    14    22    23    1
    15    25    24    2
    16    18    17    1
    17    15    17    1
    18    15    14    1
    19    23    24    1
    20    19    17    1
    21    13    14    1
    22    13     9    1
    23    12     9    1
    24    12     5    1
    25     4     1    2
    26     8     5    1
    27     8     1    1
    28     9    10    2
    29     9    11    1
    30     6     5    2
    31     5     7    1
    32     1     2    1
    33     1     3    1
