@<TRIPOS>MOLECULE
4b2q_ADP_d_1.pdb
 27 29 0 0 0
SMALL
GASTEIGER

@<TRIPOS>ATOM
      1  PB       384.2610  109.0350  227.9490 P.3   1476  ADP1476     0.8585
      2  O1B      383.4930  109.4320  229.1820 O.3   1476  ADP1476    -0.0578
      3  O2B      385.6610  109.5900  227.8640 O.3   1476  ADP1476     0.3985
      4  O3B      384.1600  107.5750  227.5870 O.2   1476  ADP1476    -0.1694
      5  PA       383.5910  111.3500  226.4530 P.3   1476  ADP1476     0.2288
      6  O1A      382.3480  112.0510  226.9500 O.3   1476  ADP1476    -0.4369
      7  O2A      384.9520  111.8600  226.8660 O.2   1476  ADP1476    -0.5168
      8  O3A      383.4690  109.7760  226.7600 O.3   1476  ADP1476    -0.1754
      9  O5'      383.5260  111.2560  224.8480 O.3   1476  ADP1476    -0.3110
     10  C5'      383.5110  112.4120  224.0180 C.3   1476  ADP1476     0.1813
     11  C4'      383.0540  112.0380  222.6080 C.3   1476  ADP1476     0.1821
     12  O4'      381.7610  111.4190  222.6080 O.3   1476  ADP1476    -0.3135
     13  C3'      382.9400  113.2790  221.7430 C.3   1476  ADP1476     0.2184
     14  O3'      384.0930  113.4170  220.9130 O.3   1476  ADP1476    -0.2174
     15  C2'      381.7150  113.0550  220.8880 C.3   1476  ADP1476     0.2570
     16  O2'      382.1370  112.6200  219.5940 O.3   1476  ADP1476    -0.2130
     17  C1'      380.9320  111.9470  221.5660 C.3   1476  ADP1476     0.3186
     18  N9       379.6890  112.5690  222.1010 N.pl3 1476  ADP1476    -0.1439
     19  C8       379.4850  112.9780  223.3670 C.3   1476  ADP1476     0.3377
     20  N7       378.2470  113.5150  223.5210 N.2   1476  ADP1476    -0.2095
     21  C5       377.6310  113.4620  222.3240 C.2   1476  ADP1476     0.2526
     22  C6       376.3080  113.8570  221.7740 C.2   1476  ADP1476     0.4393
     23  N6       375.3610  114.4350  222.5560 N.pl3 1476  ADP1476     0.2180
     24  N1       376.0720  113.6230  220.4660 N.2   1476  ADP1476     0.0021
     25  C2       376.9980  113.0480  219.6730 C.3   1476  ADP1476     0.5254
     26  N3       378.2150  112.6650  220.1030 N.2   1476  ADP1476    -0.0055
     27  C4       378.5890  112.8400  221.3930 C.2   1476  ADP1476     0.3518
@<TRIPOS>UNITY_ATOM_ATTR
3 1
charge 1
6 1
charge 1
@<TRIPOS>BOND
     1    16    15    1
     2    25    26    1
     3    25    24    1
     4    26    27    2
     5    24    22    2
     6    15    17    1
     7    15    13    1
     8    14    13    1
     9    27    18    1
    10    27    21    1
    11    17    18    1
    12    17    12    1
    13    13    11    1
    14    22    21    1
    15    22    23    1
    16    18    19    1
    17    21    20    2
    18    11    12    1
    19    11    10    1
    20    19    20    1
    21    10     9    1
    22     9     5    1
    23     5     8    1
    24     5     7    2
    25     5     6    1
    26     8     1    1
    27     4     1    2
    28     3     1    1
    29     1     2    1
