@<TRIPOS>MOLECULE
4b2x_NIQ_A_1.pdb
 19 20 0 0 0
SMALL
GASTEIGER

@<TRIPOS>ATOM
      1  NAM       34.9590    2.3010    9.3350 N.pl3 400  NIQ400     -0.2213
      2  CAL       36.1210    2.2940   10.0060 C.2   400  NIQ400      0.2473
      3  CAH       36.7380    3.5320   10.1530 C.2   400  NIQ400      0.4066
      4  NAI       36.0980    4.5760    9.6200 N.pl3 400  NIQ400      0.2133
      5  CAK       36.7240    1.1410   10.5360 C.1   400  NIQ400      0.2406
      6  OAQ       36.2510    0.0100   10.4270 O.2   400  NIQ400     -0.2069
      7  NAJ       37.9500    1.3000   11.2040 N.2   400  NIQ400     -0.2253
      8  CAF       38.5090    2.5750   11.3350 C.1   400  NIQ400      0.3741
      9  OAE       39.5740    2.6480   11.9330 O.2   400  NIQ400     -0.1670
     10  NAG       37.9100    3.6720   10.8030 N.am  400  NIQ400     -0.0795
     11  CAD       38.4890    5.0260   10.9450 C.3   400  NIQ400      0.2212
     12  CAC       37.8930    5.5550   12.2270 C.3   400  NIQ400      0.0522
     13  CAB       38.5690    6.8840   12.5530 C.3   400  NIQ400      0.0043
     14  CAA       37.7980    7.4650   13.7490 C.3   400  NIQ400      0.0001
     15  CAO       32.5700    1.4610    9.1030 C.3   400  NIQ400      0.0216
     16  CAP       32.0530    0.4060   10.0490 C.3   400  NIQ400      0.0018
     17  CAS       32.0860    1.2160   11.2530 C.3   400  NIQ400      0.0018
     18  CAR       33.5550    1.4770   11.2130 C.3   400  NIQ400      0.0216
     19  CAN       33.9470    1.2840    9.6820 C.3   400  NIQ400      0.0935
@<TRIPOS>BOND
     1    15    19    1
     2    15    16    1
     3     1    19    1
     4     1     2    1
     5     4     3    1
     6    19    18    1
     7     2     3    2
     8     2     5    1
     9    16    17    1
    10     3    10    1
    11     6     5    2
    12     5     7    2
    13    10    11    1
    14    10     8   am
    15    11    12    1
    16     7     8    2
    17    18    17    1
    18     8     9    2
    19    12    13    1
    20    13    14    1
