@<TRIPOS>MOLECULE
4b32_03V_A_1.pdb
 11 12 0 0 0
SMALL
GASTEIGER

@<TRIPOS>ATOM
      1  C1        22.4130    7.6020   -3.4830 C.ar  1351  03V1351     0.0420
      2  O1        23.7050    5.6950   -4.0780 O.3   1351  03V1351    -0.2866
      3  C2        22.5750    6.2230   -3.5300 C.ar  1351  03V1351     0.1957
      4  C3        21.5880    5.3840   -3.0180 C.ar  1351  03V1351     0.0420
      5  C4        20.4380    5.9430   -2.4620 C.ar  1351  03V1351     0.0032
      6  C5        20.2820    7.3240   -2.4150 C.ar  1351  03V1351     0.0002
      7  C7        21.2670    8.1570   -2.9280 C.ar  1351  03V1351     0.0033
      8  C8        19.1390    7.8870   -1.8590 C.ar  1351  03V1351     0.0000
      9  C9        18.1490    7.0680   -1.3450 C.ar  1351  03V1351     0.0000
     10  C10       18.3080    5.6940   -1.3830 C.ar  1351  03V1351     0.0000
     11  C11       19.4400    5.1240   -1.9340 C.ar  1351  03V1351     0.0001
@<TRIPOS>BOND
     1     2     3    1
     2     3     1   ar
     3     3     4   ar
     4     1     7   ar
     5     4     5   ar
     6     7     6   ar
     7     5     6   ar
     8     5    11   ar
     9     6     8   ar
    10    11    10   ar
    11     8     9   ar
    12    10     9   ar
