@<TRIPOS>MOLECULE
4b33_1NP_A_1.pdb
 11 12 0 0 0
SMALL
GASTEIGER

@<TRIPOS>ATOM
      1  O1        19.1830    9.3790   -2.2300 O.3   1351  1NP1351    -0.2866
      2  C1        19.2270    8.0280   -2.1330 C.ar  1351  1NP1351     0.1956
      3  C8A       20.2930    7.3510   -2.6930 C.ar  1351  1NP1351     0.0390
      4  C8        21.2820    8.0900   -3.3370 C.ar  1351  1NP1351     0.0032
      5  C7        22.3580    7.4250   -3.9060 C.ar  1351  1NP1351     0.0001
      6  C2        18.2150    7.3280   -1.4880 C.ar  1351  1NP1351     0.0420
      7  C3        18.2920    5.9440   -1.4130 C.ar  1351  1NP1351     0.0033
      8  C4        19.3540    5.2550   -1.9740 C.ar  1351  1NP1351     0.0002
      9  C4A       20.3660    5.9680   -2.6220 C.ar  1351  1NP1351     0.0031
     10  C5        21.4460    5.3030   -3.1960 C.ar  1351  1NP1351     0.0001
     11  C6        22.4400    6.0410   -3.8340 C.ar  1351  1NP1351     0.0000
@<TRIPOS>BOND
     1     5    11   ar
     2     5     4   ar
     3    11    10   ar
     4     4     3   ar
     5    10     9   ar
     6     3     9   ar
     7     3     2   ar
     8     9     8   ar
     9     1     2    1
    10     2     6   ar
    11     8     7   ar
    12     6     7   ar
