@<TRIPOS>MOLECULE
4b34_ABV_A_1.pdb
 10 11 0 0 0
SMALL
GASTEIGER

@<TRIPOS>ATOM
      1  C1        18.5620    5.3810   -1.6920 C.2   1351  ABV1351     0.0085
      2  N1        20.3380    8.1850   -3.0520 N.2   1351  ABV1351    -0.3810
      3  S1        18.2140    8.1340   -1.7700 S.3   1351  ABV1351    -0.0348
      4  C2        19.3440    4.3060   -2.0550 C.2   1351  ABV1351    -0.0036
      5  N2        19.3780   10.3080   -2.7020 N.pl3 1351  ABV1351    -0.0864
      6  C3        20.5100    4.5050   -2.7850 C.2   1351  ABV1351    -0.0186
      7  C4        20.8970    5.7900   -3.1440 C.3   1351  ABV1351     0.0855
      8  C5        20.1130    6.8820   -2.7830 C.2   1351  ABV1351     0.1217
      9  C6        18.9370    6.6520   -2.0490 C.2   1351  ABV1351     0.0589
     10  C7        19.3920    8.9900   -2.5720 C.2   1351  ABV1351     0.2498
@<TRIPOS>BOND
     1     7     6    1
     2     7     8    1
     3     2     8    2
     4     2    10    2
     5     6     4    2
     6     8     9    1
     7     5    10    1
     8    10     3    1
     9     4     1    1
    10     9     3    1
    11     9     1    2
