@<TRIPOS>MOLECULE
4b35_4ME_A_1.pdb
 13 14 0 0 0
SMALL
GASTEIGER

@<TRIPOS>ATOM
      1  CAJ       23.3260    3.6580   -4.1880 C.3   1351  4ME1351     0.2560
      2  OAM       22.1380    4.0960   -3.5240 O.3   1351  4ME1351    -0.4413
      3  CAI       22.0010    5.4390   -3.5390 C.2   1351  4ME1351     0.3414
      4  OAL       22.8400    6.1660   -4.0710 O.2   1351  4ME1351    -0.2449
      5  CAG       20.7660    6.0140   -2.8600 C.ar  1351  4ME1351     0.0768
      6  CAB       19.8580    5.1270   -2.3030 C.ar  1351  4ME1351     0.0065
      7  CAA       18.7220    5.6150   -1.6760 C.ar  1351  4ME1351     0.0017
      8  CAC       18.4720    6.9650   -1.5990 C.ar  1351  4ME1351     0.0187
      9  CAH       19.3860    7.8530   -2.1550 C.ar  1351  4ME1351     0.0763
     10  CAF       20.5270    7.3780   -2.7920 C.ar  1351  4ME1351     0.0211
     11  CAD       21.2040    8.4380   -3.2280 C.2   1351  4ME1351     0.0017
     12  CAE       20.5170    9.5280   -2.8890 C.3   1351  4ME1351     0.1516
     13  NAK       19.4050    9.1720   -2.2360 N.2   1351  4ME1351    -0.2656
@<TRIPOS>BOND
     1     1     2    1
     2     4     3    2
     3     3     2    1
     4     3     5    1
     5    11    12    1
     6    11    10    2
     7    12    13    1
     8     5    10   ar
     9     5     6   ar
    10    10     9   ar
    11     6     7   ar
    12    13     9    2
    13     9     8   ar
    14     7     8   ar
