@<TRIPOS>MOLECULE
4b3c_5H1_A_1.pdb
 10 11 0 0 0
SMALL
GASTEIGER

@<TRIPOS>ATOM
      1  O10        9.1680   17.1980   23.6190 O.3   1351  5H11351    -0.2866
      2  C5         9.6650   16.8520   22.4040 C.ar  1351  5H11351     0.1958
      3  C6        10.3780   17.7850   21.6560 C.ar  1351  5H11351     0.0436
      4  C7        10.8820   17.4280   20.4120 C.ar  1351  5H11351     0.0220
      5  C8        10.6740   16.1380   19.9250 C.ar  1351  5H11351     0.0763
      6  N1        11.0350   15.5370   18.7930 N.2   1351  5H11351    -0.2656
      7  C4         9.4600   15.5630   21.9130 C.ar  1351  5H11351     0.0432
      8  C9         9.9670   15.2100   20.6730 C.ar  1351  5H11351     0.0181
      9  C3         9.9280   14.0830   19.9690 C.2   1351  5H11351     0.0015
     10  C2        10.5790   14.2850   18.8230 C.3   1351  5H11351     0.1516
@<TRIPOS>BOND
     1     6    10    1
     2     6     5    2
     3    10     9    1
     4     5     4   ar
     5     5     8   ar
     6     9     8    2
     7     4     3   ar
     8     8     7   ar
     9     3     2   ar
    10     7     2   ar
    11     2     1    1
