@<TRIPOS>MOLECULE
4b3d_5MI_A_1.pdb
 10 11 0 0 0
SMALL
GASTEIGER

@<TRIPOS>ATOM
      1  C5         5.3270    6.8150   -1.0770 C.ar  1351  5MI1351    -0.0218
      2  C6         4.4140    6.1330   -1.8700 C.ar  1351  5MI1351    -0.0027
      3  C7         4.6860    4.8320   -2.2770 C.ar  1351  5MI1351     0.0183
      4  C8         5.8740    4.2210   -1.8920 C.ar  1351  5MI1351     0.0761
      5  N1         6.3820    3.0170   -2.1310 N.2   1351  5MI1351    -0.2656
      6  C4         6.5140    6.2000   -0.6910 C.ar  1351  5MI1351    -0.0030
      7  C9         6.7850    4.8980   -1.1020 C.ar  1351  5MI1351     0.0146
      8  C3         7.8140    4.0850   -0.8920 C.2   1351  5MI1351     0.0014
      9  C2         7.5670    2.9420   -1.5240 C.3   1351  5MI1351     0.1516
     10  CAJ        5.0190    8.2440   -0.6310 C.3   1351  5MI1351     0.0310
@<TRIPOS>BOND
     1     3     4   ar
     2     3     2   ar
     3     5     4    2
     4     5     9    1
     5     4     7   ar
     6     2     1   ar
     7     9     8    1
     8     7     8    2
     9     7     6   ar
    10     1     6   ar
    11     1    10    1
