@<TRIPOS>MOLECULE
4b3n_MAL_A_1.pdb
 23 24 0 0 0
SMALL
GASTEIGER

@<TRIPOS>ATOM
      1  C1         7.6960   35.4570  -30.9570 C.3   500  MAL500      0.2695
      2  C2         6.4770   36.3680  -30.9570 C.3   500  MAL500      0.2406
      3  C3         6.3570   37.1470  -29.6500 C.3   500  MAL500      0.2198
      4  C4         6.2970   36.1910  -28.4850 C.3   500  MAL500      0.2144
      5  C5         7.4430   35.2130  -28.6220 C.3   500  MAL500      0.1835
      6  C6         7.3880   34.1370  -27.5720 C.3   500  MAL500      0.2142
      7  O1         8.8890   36.2330  -30.7740 O.3   500  MAL500     -0.3257
      8  O2         6.5810   37.2790  -32.0500 O.3   500  MAL500     -0.2149
      9  O3         5.2030   37.9940  -29.6400 O.3   500  MAL500     -0.2174
     10  O4         6.4520   36.9580  -27.2950 O.3   500  MAL500     -0.2176
     11  O5         7.4860   34.5500  -29.8820 O.3   500  MAL500     -0.3256
     12  O6         8.7220   33.6280  -27.4960 O.3   500  MAL500     -0.2176
     13  C1'       12.6110   36.7260  -32.7440 C.3   500  MAL500      0.3023
     14  C2'       11.3110   36.7170  -33.5960 C.3   500  MAL500      0.2433
     15  C3'       10.0350   36.8960  -32.7880 C.3   500  MAL500      0.2168
     16  C4'       10.0180   35.9330  -31.6080 C.3   500  MAL500      0.1804
     17  C5'       11.3310   36.0670  -30.8300 C.3   500  MAL500      0.1804
     18  C6'       11.4340   35.0790  -29.6760 C.3   500  MAL500      0.2141
     19  O1'       13.0180   38.0150  -32.2500 O.3   500  MAL500     -0.1869
     20  O2'       11.2950   37.6990  -34.6440 O.3   500  MAL500     -0.2148
     21  O3'        8.9140   36.6570  -33.6640 O.3   500  MAL500     -0.2175
     22  O5'       12.4670   35.8280  -31.6470 O.3   500  MAL500     -0.3237
     23  O6'       12.6900   35.2490  -28.9870 O.3   500  MAL500     -0.2176
@<TRIPOS>BOND
     1    20    14    1
     2    21    15    1
     3    14    15    1
     4    14    13    1
     5    15    16    1
     6    13    19    1
     7    13    22    1
     8     8     2    1
     9    22    17    1
    10    16    17    1
    11    16     7    1
    12     2     1    1
    13     2     3    1
    14     1     7    1
    15     1    11    1
    16    17    18    1
    17    11     5    1
    18    18    23    1
    19     3     9    1
    20     3     4    1
    21     5     4    1
    22     5     6    1
    23     4    10    1
    24     6    12    1
