@<TRIPOS>MOLECULE
4b3o_EFZ_A_1.pdb
 21 23 0 0 0
SMALL
GASTEIGER

@<TRIPOS>ATOM
      1 CL        -71.4850  -34.6890  -20.0120 Cl    1557  EFZ1557    -0.0826
      2  F1       -67.9460  -36.7960  -18.3490 F     1557  EFZ1557    -0.1669
      3  F2       -67.9000  -37.3650  -16.3180 F     1557  EFZ1557    -0.1669
      4  F3       -66.1060  -37.1320  -17.3470 F     1557  EFZ1557    -0.1669
      5  O1       -64.6000  -33.2420  -16.4790 O.3   1557  EFZ1557    -0.1617
      6  O2       -66.0760  -34.9190  -16.7360 O.3   1557  EFZ1557    -0.2977
      7  N        -66.2370  -33.1270  -18.0320 N.2   1557  EFZ1557    -0.2188
      8  C1       -67.4820  -33.5230  -18.4850 C.2   1557  EFZ1557     0.0619
      9  C2       -68.1160  -32.7780  -19.5080 C.3   1557  EFZ1557     0.0721
     10  C3       -69.3490  -33.1800  -19.9400 C.2   1557  EFZ1557    -0.0084
     11  C4       -69.9450  -34.2510  -19.4080 C.2   1557  EFZ1557     0.0536
     12  C5       -69.3370  -34.9670  -18.4230 C.2   1557  EFZ1557     0.0108
     13  C6       -68.0450  -34.5340  -17.9810 C.2   1557  EFZ1557     0.0286
     14  C7       -67.3680  -35.2900  -16.9130 C.3   1557  EFZ1557     0.2217
     15  C8       -68.0780  -35.1840  -15.6200 C.2   1557  EFZ1557     0.0084
     16  C9       -69.4240  -35.8630  -15.4860 C.2   1557  EFZ1557    -0.0281
     17  C10      -69.9350  -36.1230  -14.1340 C.3   1557  EFZ1557     0.0218
     18  C11      -70.7790  -34.9930  -13.6990 C.3   1557  EFZ1557     0.0047
     19  C12      -71.4050  -36.2340  -14.1680 C.3   1557  EFZ1557     0.0047
     20  C13      -67.3160  -36.6920  -17.2430 C.3   1557  EFZ1557     0.4271
     21  C14      -65.9260  -33.5600  -16.7720 C.3   1557  EFZ1557     0.3828
@<TRIPOS>BOND
     1     1    11    1
     2    10     9    1
     3    10    11    2
     4     9     8    1
     5    11    12    1
     6     8     7    2
     7     8    13    1
     8    12    13    2
     9     2    20    1
    10     7    21    1
    11    13    14    1
    12     4    20    1
    13    20    14    1
    14    20     3    1
    15    14     6    1
    16    14    15    1
    17    21     6    1
    18    21     5    1
    19    15    16    2
    20    16    17    1
    21    19    17    1
    22    19    18    1
    23    17    18    1
