@<TRIPOS>MOLECULE
4b3q_NVP_A_1.pdb
 20 23 0 0 0
SMALL
GASTEIGER

@<TRIPOS>ATOM
      1  N1        54.0980   15.5480   24.2400 N.pl3 999  NVP999     -0.1579
      2  CA        52.0810   14.3880   25.3360 C.3   999  NVP999      0.0512
      3  CB        53.5390   14.3750   25.0080 C.3   999  NVP999      0.1667
      4  CC        52.6010   13.4690   24.2770 C.3   999  NVP999      0.0512
      5  N3        52.1210   16.2740   22.7420 N.2   999  NVP999     -0.0349
      6  C4        51.5450   16.8920   21.6770 C.2   999  NVP999      0.2316
      7  C5        52.3510   17.5980   20.7520 C.2   999  NVP999      0.0302
      8  C6        53.7410   17.6720   20.9500 C.3   999  NVP999      0.0732
      9  CD        54.5790   18.4200   19.9620 C.3   999  NVP999      0.0114
     10  C2        53.4690   16.3020   22.9600 C.2   999  NVP999      0.3427
     11  C7        54.3190   17.0590   22.1240 C.2   999  NVP999      0.1427
     12  N8        55.5390   16.8600   22.1320 N.2   999  NVP999     -0.2333
     13  C9        56.4340   16.9310   23.0270 C.3   999  NVP999      0.2821
     14  OE        57.4470   17.1500   22.4950 O.3   999  NVP999     -0.1908
     15  C10       56.7030   16.0430   23.9490 C.ar  999  NVP999      0.0872
     16  C15       55.6340   15.4470   24.7560 C.ar  999  NVP999      0.2246
     17  C11       58.0450   15.9730   24.4300 C.ar  999  NVP999      0.0068
     18  C12       58.3000   15.2470   25.6250 C.ar  999  NVP999      0.0207
     19  C13       57.2180   14.6250   26.3450 C.ar  999  NVP999      0.1024
     20  N14       55.9320   14.7570   25.8850 N.ar  999  NVP999     -0.2076
@<TRIPOS>BOND
     1     9     8    1
     2     7     8    1
     3     7     6    2
     4     8    11    1
     5     6     5    1
     6    11    12    2
     7    11    10    1
     8    12    13    1
     9    14    13    1
    10     5    10    2
    11    10     1    1
    12    13    15    1
    13    15    17   ar
    14    15    16   ar
    15     1    16    1
    16     1     3    1
    17     4     3    1
    18     4     2    1
    19    17    18   ar
    20    16    20   ar
    21     3     2    1
    22    18    19   ar
    23    20    19   ar
