@<TRIPOS>MOLECULE
4b3u_NWL_A_1.pdb
 19 20 0 0 0
SMALL
GASTEIGER

@<TRIPOS>ATOM
      1  CAA       38.7000    8.1710   12.0700 C.ar  400  NWL400     -0.0002
      2  CAB       39.0110    7.1390   11.1840 C.ar  400  NWL400     -0.0003
      3  CAC       38.6750    5.8220   11.4980 C.ar  400  NWL400      0.0256
      4  CAD       39.0530    4.7350   10.5070 C.3   400  NWL400      0.2482
      5  OAE       39.5510    2.5570   12.1210 O.2   400  NWL400     -0.1670
      6  CAF       38.5540    2.4690   11.4010 C.1   400  NWL400      0.3744
      7  NAG       38.1980    3.5260   10.5520 N.am  400  NWL400     -0.0751
      8  CAH       37.0480    3.4030    9.7370 C.2   400  NWL400      0.4069
      9  NAI       36.7000    4.3970    8.9100 N.pl3 400  NWL400      0.2133
     10  NAJ       37.7630    1.3170   11.4300 N.2   400  NWL400     -0.2253
     11  CAK       36.6300    1.1890   10.6300 C.1   400  NWL400      0.2406
     12  CAL       36.2740    2.2360    9.7830 C.2   400  NWL400      0.2473
     13  NAM       35.2070    2.1380    8.9860 N.pl3 400  NWL400     -0.2196
     14  CAN       35.2480    1.2590    7.8060 C.3   400  NWL400      0.1134
     15  CAP       37.7300    6.5860   13.5900 C.ar  400  NWL400     -0.0002
     16  CAQ       38.0440    5.5530   12.7080 C.ar  400  NWL400     -0.0003
     17  OAQ       35.9620    0.1470   10.7090 O.2   400  NWL400     -0.2069
     18  CAR       35.4890    2.1150    6.5570 C.3   400  NWL400      0.0252
     19  CAS       38.0510    7.8910   13.2670 C.ar  400  NWL400     -0.0000
@<TRIPOS>BOND
     1    18    14    1
     2    14    13    1
     3     9     8    1
     4    13    12    1
     5     8    12    2
     6     8     7    1
     7    12    11    1
     8     4     7    1
     9     4     3    1
    10     7     6   am
    11    11    17    2
    12    11    10    2
    13     2     3   ar
    14     2     1   ar
    15     6    10    2
    16     6     5    2
    17     3    16   ar
    18     1    19   ar
    19    16    15   ar
    20    19    15   ar
