@<TRIPOS>MOLECULE
4b3w_FC6_A_1.pdb
 13 12 0 0 0
SMALL
GASTEIGER

@<TRIPOS>ATOM
      1  N24      -16.2700   -5.9440  -15.0050 N.1   400  FC6400      0.0000
      2  C24      -16.7810   -5.4170  -14.1040 C.1   400  FC6400      0.0000
      3 FE2       -17.6030   -4.5430  -12.7220 Fe    400  FC6400      0.0000
      4  C21      -18.4190   -3.6650  -11.3370 C.1   400  FC6400      0.0000
      5  N25      -18.9070   -3.1330  -10.4270 N.1   400  FC6400      0.0000
      6  C22      -18.2800   -6.1220  -12.0840 C.1   400  FC6400      0.0000
      7  N22      -18.6740   -7.1200  -11.6340 N.1   400  FC6400      0.0000
      8  C26      -19.0980   -4.3190  -13.7670 C.1   400  FC6400      0.0000
      9  N21      -20.0570   -4.2090  -14.4200 N.1   400  FC6400      0.0000
     10  C23      -16.1160   -4.7800  -11.6800 C.1   400  FC6400      0.0000
     11  N23      -15.1910   -4.9800  -10.9930 N.1   400  FC6400      0.0000
     12  C11      -16.9130   -2.9700  -13.3560 C.1   400  FC6400      0.0000
     13  N11      -16.4420   -1.9970  -13.7850 N.1   400  FC6400      0.0000
@<TRIPOS>BOND
     1     1     2    3
     2     9     8    3
     3     2     3    1
     4    13    12    3
     5     8     3    1
     6    12     3    1
     7     3     6    1
     8     3    10    1
     9     3     4    1
    10     6     7    3
    11    10    11    3
    12     4     5    3
