@<TRIPOS>MOLECULE
4b3w_HEM_A_1.pdb
 43 50 0 0 0
SMALL
GASTEIGER

@<TRIPOS>ATOM
      1  CHA      -28.1740    4.1850    3.9130 C.2   200  HEM200      0.0000
      2  CHB      -23.9350    4.8720    1.7210 C.2   200  HEM200      0.0000
      3  CHC      -25.1750    1.9830   -1.9390 C.2   200  HEM200      0.0000
      4  CHD      -29.5130    1.3380    0.1290 C.2   200  HEM200      0.0000
      5  C1A      -26.8840    4.5950    3.6760 C.2   200  HEM200      0.0000
      6  C2A      -26.0250    5.3610    4.5630 C.2   200  HEM200      0.0000
      7  C3A      -24.8560    5.5460    3.9420 C.2   200  HEM200      0.0000
      8  C4A      -24.9440    4.9010    2.6530 C.2   200  HEM200      0.0000
      9  CMA      -23.6100    6.3020    4.4690 C.3   200  HEM200      0.0000
     10  CAA      -26.4020    5.8750    5.9710 C.3   200  HEM200      0.0000
     11  CBA      -25.6760    5.0890    7.0590 C.3   200  HEM200      0.0000
     12  CGA      -26.3450    3.7540    7.2350 C.2   200  HEM200      0.0000
     13  O1A      -27.4630    3.7060    7.8170 O.co2 200  HEM200      0.0000
     14  O2A      -25.7500    2.7410    6.7830 O.co2 200  HEM200      0.0000
     15  C1B      -23.8640    4.1170    0.5760 C.ar  200  HEM200      0.0000
     16  C2B      -22.6930    3.9440   -0.2570 C.ar  200  HEM200      0.0000
     17  C3B      -23.0340    3.1470   -1.2740 C.ar  200  HEM200      0.0000
     18  C4B      -24.4270    2.7890   -1.1060 C.ar  200  HEM200      0.0000
     19  CMB      -21.3050    4.5830    0.0120 C.3   200  HEM200      0.0000
     20  CAB      -22.1170    2.6680   -2.4240 C.2   200  HEM200      0.0000
     21  CBB      -21.2680    3.4970   -3.0450 C.2   200  HEM200      0.0000
     22  C1C      -26.4800    1.5760   -1.7320 C.2   200  HEM200      0.0000
     23  C2C      -27.3000    0.7960   -2.6400 C.2   200  HEM200      0.0000
     24  C3C      -28.4980    0.6250   -2.0640 C.2   200  HEM200      0.0000
     25  C4C      -28.4810    1.2840   -0.7770 C.2   200  HEM200      0.0000
     26  CMC      -26.8630    0.2560   -4.0280 C.3   200  HEM200      0.0000
     27  CAC      -29.7000   -0.1480   -2.6550 C.2   200  HEM200      0.0000
     28  CBC      -30.5630    0.4810   -3.4530 C.2   200  HEM200      0.0000
     29  C1D      -29.5630    2.0430    1.3160 C.ar  200  HEM200      0.0000
     30  C2D      -30.7270    2.1130    2.1690 C.ar  200  HEM200      0.0000
     31  C3D      -30.3190    2.9940    3.3460 C.ar  200  HEM200      0.0000
     32  C4D      -28.9440    3.3800    3.0940 C.ar  200  HEM200      0.0000
     33  CMD      -32.1010    1.4430    1.9580 C.3   200  HEM200      0.0000
     34  CAD      -31.2140    3.3840    4.5360 C.3   200  HEM200      0.0000
     35  CBD      -31.8360    4.7260    4.1810 C.3   200  HEM200      0.0000
     36  CGD      -32.7860    5.1470    5.2660 C.2   200  HEM200      0.0000
     37  O1D      -34.0210    5.0530    5.0350 O.co2 200  HEM200      0.0000
     38  O2D      -32.3050    5.5730    6.3510 O.co2 200  HEM200      0.0000
     39  NA       -26.1930    4.3410    2.5170 N.2   200  HEM200      0.0000
     40  NB       -24.9020    3.4110    0.0280 N.ar  200  HEM200      0.0000
     41  NC       -27.2410    1.8580   -0.6150 N.2   200  HEM200      0.0000
     42  ND       -28.5420    2.8050    1.8920 N.ar  200  HEM200      0.0000
     43 FE        -26.7320    3.1440    0.9640 Fe    200  HEM200      0.0000
@<TRIPOS>BOND
     1    26    23    1
     2    28    27    2
     3    21    20    2
     4    27    24    1
     5    23    24    2
     6    23    22    1
     7    20    17    1
     8    24    25    1
     9     3    22    2
    10     3    18    1
    11    22    41    1
    12    17    18   ar
    13    17    16   ar
    14    18    40   ar
    15    25    41    2
    16    25     4    1
    17    41    43    1
    18    16    19    1
    19    16    15   ar
    20    40    15   ar
    21    40    43    1
    22     4    29    2
    23    15     2    1
    24    43    42    1
    25    43    39    1
    26    29    42   ar
    27    29    30   ar
    28     2     8    2
    29    42    32   ar
    30    33    30    1
    31    30    31   ar
    32    39     8    1
    33    39     5    2
    34     8     7    1
    35    32    31   ar
    36    32     1    2
    37    31    34    1
    38     5     1    1
    39     5     6    1
    40     7     9    1
    41     7     6    2
    42    35    34    1
    43    35    36    1
    44     6    10    1
    45    37    36   ar
    46    36    38   ar
    47    10    11    1
    48    14    12   ar
    49    11    12    1
    50    12    13   ar
