@<TRIPOS>MOLECULE
4b3y_FMN_A_1.pdb
 31 33 0 0 0
SMALL
GASTEIGER

@<TRIPOS>ATOM
      1  N1       133.8440  221.8320  115.6280 N.2   4000  FMN4000    -0.2887
      2  C2       134.5070  220.6870  115.9960 C.1   4000  FMN4000     0.3669
      3  O2       135.5930  220.4470  115.4780 O.2   4000  FMN4000    -0.1744
      4  N3       133.9520  219.8330  116.9300 N.2   4000  FMN4000    -0.2300
      5  C4       132.7260  220.1270  117.4980 C.1   4000  FMN4000     0.2513
      6  O4       132.2350  219.3650  118.3290 O.2   4000  FMN4000    -0.2057
      7  C4A      132.0520  221.2870  117.1270 C.2   4000  FMN4000     0.2703
      8  N5       130.8250  221.6140  117.6730 N.2   4000  FMN4000    -0.3882
      9  C5A      130.1820  222.7750  117.2810 C.2   4000  FMN4000     0.1277
     10  C6       128.9470  223.1160  117.8240 C.3   4000  FMN4000     0.0820
     11  C7       128.3050  224.2850  117.4240 C.2   4000  FMN4000    -0.0408
     12  C7M      126.9740  224.6510  118.0100 C.3   4000  FMN4000     0.0265
     13  C8       128.8980  225.1180  116.4820 C.2   4000  FMN4000    -0.0280
     14  C8M      128.2220  226.3810  116.0380 C.3   4000  FMN4000     0.0304
     15  C9       130.1290  224.7790  115.9420 C.2   4000  FMN4000     0.0123
     16  C9A      130.7690  223.6120  116.3390 C.2   4000  FMN4000     0.0793
     17  N10      131.9910  223.2820  115.7980 N.pl3 4000  FMN4000    -0.2545
     18  C10      132.6270  222.1310  116.1890 C.2   4000  FMN4000     0.2449
     19  C1'      132.6520  224.1590  114.7800 C.3   4000  FMN4000     0.1336
     20  C2'      132.1740  223.7350  113.3960 C.3   4000  FMN4000     0.2048
     21  O2'      132.5280  222.3870  113.1820 O.3   4000  FMN4000    -0.2185
     22  C3'      132.7840  224.5960  112.2980 C.3   4000  FMN4000     0.2165
     23  O3'      134.1860  224.4550  112.3210 O.3   4000  FMN4000    -0.2175
     24  C4'      132.4200  226.0660  112.4720 C.3   4000  FMN4000     0.2147
     25  O4'      131.1340  226.1860  113.0380 O.3   4000  FMN4000    -0.2176
     26  C5'      132.4160  226.7710  111.1250 C.3   4000  FMN4000     0.1892
     27  O5'      132.3880  228.1660  111.3200 O.3   4000  FMN4000    -0.2674
     28  P        131.0130  228.9740  111.1150 P.3   4000  FMN4000     0.5327
     29  O1P      131.0630  230.2380  111.9400 O.3   4000  FMN4000    -0.1145
     30  O2P      130.8000  229.3000  109.6560 O.2   4000  FMN4000    -0.2224
     31  O3P      129.8810  228.1140  111.6170 O.3   4000  FMN4000    -0.1145
@<TRIPOS>BOND
     1    30    28    2
     2    28    27    1
     3    28    31    1
     4    28    29    1
     5    26    27    1
     6    26    24    1
     7    22    23    1
     8    22    24    1
     9    22    20    1
    10    24    25    1
    11    21    20    1
    12    20    19    1
    13    19    17    1
    14     3     2    2
    15     1     2    2
    16     1    18    2
    17    17    18    1
    18    17    16    1
    19    15    16    2
    20    15    13    1
    21     2     4    2
    22    14    13    1
    23    18     7    1
    24    16     9    1
    25    13    11    2
    26     4     5    2
    27     7     5    1
    28     7     8    2
    29     9     8    2
    30     9    10    1
    31    11    10    1
    32    11    12    1
    33     5     6    2
