@<TRIPOS>MOLECULE
4b42_942_A_1.pdb
 23 24 0 0 0
SMALL
GASTEIGER

@<TRIPOS>ATOM
      1  CAW       38.1880    7.7140   13.2000 C.3   1294  9421294     0.0001
      2  CAX       37.9370    7.1320   11.8430 C.3   1294  9421294     0.0043
      3  CAV       37.9820    5.5600   11.9110 C.3   1294  9421294     0.0522
      4  CAU       38.3990    5.0630   10.5550 C.3   1294  9421294     0.2212
      5  NAQ       37.8500    3.6730   10.3120 N.am  1294  9421294    -0.0795
      6  CAR       36.8090    3.5370    9.4140 C.2   1294  9421294     0.4056
      7  NAS       36.2650    4.5760    8.7440 N.pl3 1294  9421294     0.2132
      8  CAP       38.3190    2.5800   10.9720 C.1   1294  9421294     0.3741
      9  OAO       39.2360    2.7120   11.7670 O.2   1294  9421294    -0.1670
     10  NAG       37.7610    1.2940   10.7750 N.2   1294  9421294    -0.2253
     11  CAH       36.7050    1.1620    9.8470 C.1   1294  9421294     0.2395
     12  OAA       36.2230    0.0560    9.6190 O.2   1294  9421294    -0.2069
     13  CAI       36.2150    2.2960    9.1930 C.2   1294  9421294     0.2375
     14  NAJ       35.2620    2.1540    8.2300 N.am  1294  9421294    -0.2374
     15  CAB       35.6860    2.1950    6.8000 C.3   1294  9421294     0.1213
     16  OAT       33.3450    1.5290    7.3430 O.2   1294  9421294    -0.2696
     17  CAE       33.1570    2.2530   11.9410 C.ar  1294  9421294     0.0001
     18  CAD       31.9510    1.5950   11.9870 C.ar  1294  9421294     0.0000
     19  CAL       31.5290    0.9530   10.8380 C.ar  1294  9421294     0.0001
     20  CAM       32.2130    0.9920    9.6630 C.ar  1294  9421294     0.0045
     21  CAK       34.0280    1.6720    8.3610 C.2   1294  9421294     0.2535
     22  CAN       33.4210    1.6360    9.6060 C.ar  1294  9421294     0.0539
     23  CAF       33.9000    2.3090   10.7530 C.ar  1294  9421294     0.0045
@<TRIPOS>BOND
     1    15    14    1
     2    16    21    2
     3    14    21   am
     4    14    13    1
     5    21    22    1
     6     7     6    1
     7    13     6    2
     8    13    11    1
     9     6     5    1
    10    22    20   ar
    11    22    23   ar
    12    12    11    2
    13    20    19   ar
    14    11    10    2
    15     5     4    1
    16     5     8   am
    17     4     3    1
    18    23    17   ar
    19    10     8    2
    20    19    18   ar
    21     8     9    2
    22     2     3    1
    23     2     1    1
    24    17    18   ar
