@<TRIPOS>MOLECULE
4b4b_GJB_A_1.pdb
 17 18 0 0 0
SMALL
GASTEIGER

@<TRIPOS>ATOM
      1  C         36.3770    3.3280    9.6720 C.2   400  GJB400      0.2572
      2  O         36.0260    4.2650    8.9790 O.2   400  GJB400     -0.2726
      3  CA        35.5300    2.0480    9.6380 C.3   400  GJB400      0.2213
      4  CB        36.0590    1.0170   10.6130 C.1   400  GJB400      0.2018
      5  OAC       38.9060    2.5720   12.0550 O.2   400  GJB400     -0.1918
      6  CAE       38.5170    9.0330   13.1080 C.ar  400  GJB400     -0.0003
      7  CAF       37.9760    7.7740   12.8960 C.ar  400  GJB400     -0.0042
      8  CAG       39.5600    9.4900   12.2990 C.ar  400  GJB400     -0.0000
      9  CAH       38.4430    6.9520   11.8790 C.ar  400  GJB400     -0.0204
     10  CA0       37.8720    2.4570   11.3890 C.1   400  GJB400      0.2844
     11  CAJ       38.2170    4.7660   10.5270 C.3   400  GJB400      0.1164
     12  NAL       37.4460    3.5070   10.5460 N.am  400  GJB400     -0.1744
     13  OAN       35.4870   -0.0590   10.6940 O.2   400  GJB400     -0.2129
     14  NAB       37.2150    1.2280   11.3710 N.2   400  GJB400     -0.2490
     15  CAQ       37.7730    5.5920   11.7230 C.3   400  GJB400      0.0491
     16  CAP       40.0460    8.6720   11.2870 C.ar  400  GJB400     -0.0003
     17  CAO       39.4870    7.4030   11.0680 C.ar  400  GJB400     -0.0042
@<TRIPOS>BOND
     1     2     1    2
     2     3     1    1
     3     3     4    1
     4     1    12   am
     5    11    12    1
     6    11    15    1
     7    12    10   am
     8     4    13    2
     9     4    14    2
    10    17    16   ar
    11    17     9   ar
    12    16     8   ar
    13    14    10    2
    14    10     5    2
    15    15     9    1
    16     9     7   ar
    17     8     6   ar
    18     7     6   ar
