@<TRIPOS>MOLECULE
4b4f_BGC_A_1.pdb
 11 11 0 0 0
SMALL
GASTEIGER

@<TRIPOS>ATOM
      1  C2         3.8140   -8.7910    4.7450 C.3   601  BGC601      0.2141
      2  C3         3.9650   -7.5290    3.8990 C.3   601  BGC601      0.2173
      3  C4         5.2670   -6.7980    4.1970 C.3   601  BGC601      0.2142
      4  C5         6.4510   -7.7610    4.1740 C.3   601  BGC601      0.1810
      5  C6         7.7720   -7.0700    4.5150 C.3   601  BGC601      0.2141
      6  C1         5.0890   -9.6420    4.6930 C.3   601  BGC601      0.1777
      7  O2         2.6630   -9.5040    4.3050 O.3   601  BGC601     -0.2176
      8  O3         2.8840   -6.6560    4.1550 O.3   601  BGC601     -0.2175
      9  O4         5.4170   -5.7980    3.2150 O.3   601  BGC601     -0.2176
     10  O5         6.2100   -8.8590    5.0450 O.3   601  BGC601     -0.3481
     11  O6         7.8620   -6.7650    5.8890 O.3   601  BGC601     -0.2176
@<TRIPOS>BOND
     1     9     3    1
     2     2     8    1
     3     2     3    1
     4     2     1    1
     5     4     3    1
     6     4     5    1
     7     4    10    1
     8     7     1    1
     9     5    11    1
    10     6     1    1
    11     6    10    1
