@<TRIPOS>MOLECULE
4b4g_KKT_A_1.pdb
 25 26 0 0 0
SMALL
GASTEIGER

@<TRIPOS>ATOM
      1  CAW       37.8170    6.7790   10.2840 C.ar  400  KKT400     -0.0003
      2  CAX       37.2140    7.7820   11.0500 C.ar  400  KKT400     -0.0002
      3  CBA       37.1740    7.6680   12.4460 C.ar  400  KKT400     -0.0000
      4  CAZ       37.7280    6.5620   13.0810 C.ar  400  KKT400     -0.0002
      5  CAY       38.3330    5.5680   12.3100 C.ar  400  KKT400     -0.0003
      6  CAV       38.3890    5.6680   10.9170 C.ar  400  KKT400      0.0256
      7  CAU       38.9780    4.6530   10.1510 C.3   400  KKT400      0.2480
      8  NAN       38.1190    3.4290   10.1720 N.am  400  KKT400     -0.0766
      9  CAO       37.1740    3.1830    9.2330 C.2   400  KKT400      0.4011
     10  NAP       36.9580    4.0080    8.2300 N.2   400  KKT400      0.1921
     11  CAM       38.2910    2.5520   11.1720 C.1   400  KKT400      0.3740
     12  OAL       39.1480    2.7940   12.0180 O.2   400  KKT400     -0.1670
     13  NAD       37.5200    1.3720   11.2640 N.2   400  KKT400     -0.2291
     14  CAE       36.5290    1.1210   10.3320 C.1   400  KKT400      0.2223
     15  OAA       35.8620    0.0910   10.4560 O.2   400  KKT400     -0.2113
     16  CAF       36.3550    2.0560    9.2980 C.3   400  KKT400      0.3082
     17  NAG       35.4850    1.7950    8.2840 N.3   400  KKT400     -0.1317
     18  CAB       35.9960    0.8980    7.2370 C.3   400  KKT400      0.1164
     19  SAH       33.9440    2.1590    8.2930 S.O2  400  KKT400      0.0453
     20  OAC       33.7240    3.6030    8.6830 O.2   400  KKT400     -0.1572
     21  OAQ       33.4100    1.9710    6.8910 O.2   400  KKT400     -0.1572
     22  CAI       33.1500    0.9250    9.4120 C.3   400  KKT400      0.1691
     23  CAJ       31.7340    1.3110    9.8060 C.3   400  KKT400      0.0270
     24  CAK       31.4650    0.9640   11.2850 C.3   400  KKT400      0.0019
     25  CAT       31.6870   -0.5040   11.4530 C.3   400  KKT400      0.0001
@<TRIPOS>BOND
     1    21    19    2
     2    18    17    1
     3    10     9    2
     4    17    19    1
     5    17    16    1
     6    19    20    2
     7    19    22    1
     8     9    16    1
     9     9     8    1
    10    16    14    1
    11    22    23    1
    12    23    24    1
    13     7     8    1
    14     7     6    1
    15     8    11   am
    16     1     6   ar
    17     1     2   ar
    18    14    15    2
    19    14    13    2
    20     6     5   ar
    21     2     3   ar
    22    11    13    2
    23    11    12    2
    24    24    25    1
    25     5     4   ar
    26     3     4   ar
