@<TRIPOS>MOLECULE
4b4m_JWT_A_1.pdb
 28 30 0 0 0
SMALL
GASTEIGER

@<TRIPOS>ATOM
      1  CAY       37.7820    6.9300   10.2690 C.ar  400  JWT400     -0.0003
      2  CAZ       37.2370    7.9970   11.0120 C.ar  400  JWT400     -0.0002
      3  CBA       37.2320    7.9550   12.4140 C.ar  400  JWT400     -0.0000
      4  CAX       37.7770    6.8440   13.0550 C.ar  400  JWT400     -0.0002
      5  CAW       38.3240    5.7930   12.3060 C.ar  400  JWT400     -0.0003
      6  CAV       38.3250    5.7980   10.9050 C.ar  400  JWT400      0.0256
      7  CAU       38.8980    4.7360   10.1470 C.3   400  JWT400      0.2482
      8  NAN       38.1090    3.4720   10.1460 N.am  400  JWT400     -0.0751
      9  CAO       37.2240    3.2040    9.1450 C.2   400  JWT400      0.4069
     10  NAP       37.0260    4.0660    8.1480 N.pl3 400  JWT400      0.2133
     11  CAM       38.3050    2.5790   11.1420 C.1   400  JWT400      0.3744
     12  OAL       39.1250    2.8270   12.0290 O.2   400  JWT400     -0.1670
     13  NAD       37.5750    1.3760   11.1800 N.2   400  JWT400     -0.2253
     14  CAE       36.6280    1.0910   10.1990 C.1   400  JWT400      0.2406
     15  OAA       35.9920    0.0340   10.2540 O.2   400  JWT400     -0.2069
     16  CAF       36.4550    2.0280    9.1710 C.2   400  JWT400      0.2500
     17  NAG       35.5980    1.7200    8.1720 N.pl3 400  JWT400     -0.1708
     18  CAB       36.0820    0.7180    7.1990 C.3   400  JWT400      0.1403
     19  SAH       33.9810    2.2720    8.1380 S.O2  400  JWT400      0.0774
     20  OAC       33.3090    1.8580    6.8340 O.2   400  JWT400     -0.1497
     21  OAQ       33.8770    3.7800    8.3150 O.2   400  JWT400     -0.1497
     22  CAI       33.2050    1.4860    9.5160 C.ar  400  JWT400      0.1256
     23  CAJ       32.3920    0.3710    9.3470 C.ar  400  JWT400      0.0225
     24  CAK       31.7980   -0.2220   10.4500 C.ar  400  JWT400      0.0310
     25  CAT       31.9980    0.3170   11.7080 C.ar  400  JWT400      0.1402
     26  CAS       32.8140    1.4210   11.8810 C.ar  400  JWT400      0.0310
     27  CAR       33.4300    2.0050   10.7810 C.ar  400  JWT400      0.0225
     28  FAM       31.4170   -0.2520   12.8020 F     400  JWT400     -0.2042
@<TRIPOS>BOND
     1    20    19    2
     2    18    17    1
     3    19    17    1
     4    19    21    2
     5    19    22    1
     6    10     9    1
     7    17    16    1
     8     9    16    2
     9     9     8    1
    10    16    14    1
    11    23    22   ar
    12    23    24   ar
    13    22    27   ar
    14     8     7    1
    15     8    11   am
    16     7     6    1
    17    14    15    2
    18    14    13    2
    19     1     6   ar
    20     1     2   ar
    21    24    25   ar
    22    27    26   ar
    23     6     5   ar
    24     2     3   ar
    25    11    13    2
    26    11    12    2
    27    25    26   ar
    28    25    28    1
    29     5     4   ar
    30     3     4   ar
