@<TRIPOS>MOLECULE
4b4o_NDP_A_1.pdb
 48 52 0 0 0
SMALL
GASTEIGER

@<TRIPOS>ATOM
      1  PA        37.6320  -53.2480  -40.8620 P.3   999  NDP999      0.2189
      2  O1A       37.0060  -54.3560  -39.9800 O.3   999  NDP999     -0.4371
      3  O2A       37.0640  -51.8140  -40.8320 O.2   999  NDP999     -0.5170
      4  O5B       37.5500  -53.6040  -42.4520 O.3   999  NDP999     -0.3112
      5  C5B       37.6150  -54.9850  -42.7950 C.3   999  NDP999      0.1813
      6  C4B       36.9060  -55.1750  -44.1120 C.3   999  NDP999      0.1820
      7  O4B       37.1730  -56.5090  -44.5390 O.3   999  NDP999     -0.3136
      8  C3B       35.3900  -55.0030  -43.9720 C.3   999  NDP999      0.2157
      9  O3B       34.9020  -53.7350  -44.4960 O.3   999  NDP999     -0.2175
     10  C2B       34.8110  -56.1580  -44.7750 C.3   999  NDP999      0.2314
     11  O2B       34.4790  -55.7710  -46.1000 O.3   999  NDP999     -0.2630
     12  C1B       35.9460  -57.1290  -44.8930 C.3   999  NDP999      0.3158
     13  N9A       35.6650  -58.2010  -43.9350 N.pl3 999  NDP999     -0.1439
     14  C8A       35.2350  -58.1640  -42.6320 C.3   999  NDP999      0.3377
     15  N7A       35.0610  -59.4760  -42.1750 N.2   999  NDP999     -0.2095
     16  C5A       35.3770  -60.3100  -43.2010 C.2   999  NDP999      0.2526
     17  C6A       35.4380  -61.7550  -43.4410 C.2   999  NDP999      0.4393
     18  N6A       35.1490  -62.6450  -42.4690 N.pl3 999  NDP999      0.2180
     19  N1A       35.8110  -62.1950  -44.6610 N.2   999  NDP999      0.0021
     20  C2A       36.1040  -61.3030  -45.6510 C.3   999  NDP999      0.5254
     21  N3A       36.1000  -59.9620  -45.5040 N.2   999  NDP999     -0.0055
     22  C4A       35.7680  -59.4580  -44.3370 C.2   999  NDP999      0.3518
     23  O3        39.1910  -53.3340  -40.4360 O.3   999  NDP999     -0.2703
     24  PN        40.2330  -52.1140  -40.5920 P.3   999  NDP999      0.2189
     25  O1N       39.8340  -51.2810  -41.8000 O.2   999  NDP999     -0.5170
     26  O2N       40.3730  -51.4080  -39.2770 O.3   999  NDP999     -0.4371
     27  O5D       41.6450  -52.9130  -40.8760 O.3   999  NDP999     -0.3112
     28  C5D       41.6940  -53.6400  -42.1250 C.3   999  NDP999      0.1813
     29  C4D       42.7830  -54.6930  -42.1240 C.3   999  NDP999      0.1799
     30  O4D       43.8930  -54.0840  -41.4750 O.3   999  NDP999     -0.3327
     31  C3D       42.4600  -55.9600  -41.3070 C.3   999  NDP999      0.2158
     32  O3D       42.9760  -57.1500  -41.9850 O.3   999  NDP999     -0.2175
     33  C2D       43.1280  -55.7070  -39.9510 C.3   999  NDP999      0.2309
     34  O2D       43.6980  -56.8280  -39.2640 O.3   999  NDP999     -0.2158
     35  C1D       44.3060  -54.8560  -40.3450 C.3   999  NDP999      0.2263
     36  N1N       44.8030  -53.9980  -39.2540 N.pl3 999  NDP999     -0.2787
     37  C2N       44.0090  -53.1030  -38.6500 C.3   999  NDP999      0.1244
     38  C3N       44.4870  -52.3070  -37.6330 C.2   999  NDP999      0.0544
     39  C7N       43.5700  -51.3220  -37.0070 C.2   999  NDP999      0.2818
     40  O7N       42.5410  -51.0310  -37.6130 O.2   999  NDP999     -0.2670
     41  N7N       43.8570  -50.7710  -35.8310 N.am  999  NDP999     -0.0839
     42  C4N       45.9120  -52.3710  -37.2020 C.2   999  NDP999      0.0033
     43  C5N       46.6900  -53.3650  -37.9320 C.2   999  NDP999      0.0157
     44  C6N       46.1040  -54.1270  -38.9260 C.2   999  NDP999      0.0633
     45  P2B       33.0590  -56.3040  -46.7660 P.3   999  NDP999      0.5328
     46  O1X       33.2970  -57.7460  -47.1620 O.3   999  NDP999     -0.1145
     47  O2X       31.9510  -56.1520  -45.6810 O.3   999  NDP999     -0.1145
     48  O3X       33.0410  -55.3140  -47.9570 O.2   999  NDP999     -0.2224
@<TRIPOS>BOND
     1    48    45    2
     2    46    45    1
     3    45    11    1
     4    45    47    1
     5    11    10    1
     6    20    21    1
     7    20    19    1
     8    21    22    2
     9    12    10    1
    10    12     7    1
    11    12    13    1
    12    10     8    1
    13    19    17    2
    14     7     6    1
    15     9     8    1
    16    22    13    1
    17    22    16    1
    18     6     8    1
    19     6     5    1
    20    13    14    1
    21    17    16    1
    22    17    18    1
    23    16    15    2
    24     5     4    1
    25    14    15    1
    26     4     1    1
    27    28    29    1
    28    28    27    1
    29    29    30    1
    30    29    31    1
    31    32    31    1
    32    25    24    2
    33    30    35    1
    34    31    33    1
    35    27    24    1
    36     1     3    2
    37     1    23    1
    38     1     2    1
    39    24    23    1
    40    24    26    1
    41    35    33    1
    42    35    36    1
    43    33    34    1
    44    36    44    1
    45    36    37    1
    46    44    43    2
    47    37    38    1
    48    43    42    1
    49    38    42    2
    50    38    39    1
    51    40    39    2
    52    39    41   am
