@<TRIPOS>MOLECULE
4b4u_NAP_A_1.pdb
 31 33 0 0 0
SMALL
GASTEIGER

@<TRIPOS>ATOM
      1  PA         6.2960  -11.1520   33.0270 P.3   1001  NAP1001     0.2231
      2  O1A        7.4650  -10.7050   33.8880 O.3   1001  NAP1001    -0.4370
      3  O2A        5.7900  -12.6000   33.0340 O.2   1001  NAP1001    -0.5169
      4  O5B        5.0310  -10.2010   33.2040 O.3   1001  NAP1001    -0.3111
      5  C5B        3.8050  -10.6480   32.6660 C.3   1001  NAP1001     0.1813
      6  C4B        2.7420   -9.9100   33.4450 C.3   1001  NAP1001     0.1820
      7  O4B        1.4980  -10.1310   32.7710 O.3   1001  NAP1001    -0.3136
      8  C3B        2.5740  -10.4630   34.8510 C.3   1001  NAP1001     0.2157
      9  O3B        2.2530   -9.4240   35.7710 O.3   1001  NAP1001    -0.2175
     10  C2B        1.4260  -11.4380   34.7170 C.3   1001  NAP1001     0.2314
     11  O2B        0.6330  -11.6620   35.8860 O.3   1001  NAP1001    -0.2630
     12  C1B        0.5870  -10.7420   33.6660 C.3   1001  NAP1001     0.3158
     13  N9A       -0.3550  -11.6850   33.0250 N.pl3 1001  NAP1001    -0.1439
     14  C8A        0.1920  -12.8570   32.3890 C.3   1001  NAP1001     0.3377
     15  N7A       -1.0510  -13.4530   31.9360 N.2   1001  NAP1001    -0.2095
     16  C5A       -2.1170  -12.7040   32.2710 C.2   1001  NAP1001     0.2526
     17  C6A       -3.4760  -12.8600   32.0660 C.2   1001  NAP1001     0.4393
     18  N6A       -3.9400  -13.9540   31.3940 N.pl3 1001  NAP1001     0.2180
     19  N1A       -4.2960  -11.8850   32.5260 N.2   1001  NAP1001     0.0021
     20  C2A       -3.8190  -10.8040   33.1810 C.3   1001  NAP1001     0.5254
     21  N3A       -2.4980  -10.6270   33.4060 N.2   1001  NAP1001    -0.0055
     22  C4A       -1.6670  -11.5660   32.9550 C.2   1001  NAP1001     0.3518
     23  O3         6.6660  -10.8140   31.4910 O.3   1001  NAP1001    -0.2261
     24  PN         7.2600  -11.9370   30.4820 P.3   1001  NAP1001     0.5373
     25  O1N        6.0370  -12.6590   29.9650 O.3   1001  NAP1001    -0.1143
     26  O2N        7.9800  -11.1170   29.4350 O.2   1001  NAP1001    -0.2221
     27  O5D        8.1720  -12.8100   31.3230 O.3   1001  NAP1001    -0.1143
     28  P2B        1.2900  -12.2170   37.2520 P.3   1001  NAP1001     0.5328
     29  O1X        2.1480  -11.1070   37.8320 O.3   1001  NAP1001    -0.1145
     30  O2X        2.0970  -13.4400   36.8970 O.2   1001  NAP1001    -0.2224
     31  O3X        0.0440  -12.5120   38.0420 O.3   1001  NAP1001    -0.1145
@<TRIPOS>BOND
     1    26    24    2
     2    25    24    1
     3    24    27    1
     4    24    23    1
     5    18    17    1
     6    23     1    1
     7    15    16    2
     8    15    14    1
     9    17    16    1
    10    17    19    2
    11    16    22    1
    12    14    13    1
    13    19    20    1
    14     5     4    1
    15     5     6    1
    16     7     6    1
    17     7    12    1
    18    22    13    1
    19    22    21    2
    20    13    12    1
    21     1     3    2
    22     1     4    1
    23     1     2    1
    24    20    21    1
    25     6     8    1
    26    12    10    1
    27    10     8    1
    28    10    11    1
    29     8     9    1
    30    11    28    1
    31    30    28    2
    32    28    29    1
    33    28    31    1
