@<TRIPOS>MOLECULE
4b4v_L34_A_1.pdb
 34 37 0 0 0
SMALL
GASTEIGER

@<TRIPOS>ATOM
      1  N2A       16.7950   -4.7340   31.1220 N.pl3 2001  L342001    -0.0221
      2  N1        15.5500   -5.9130   29.5540 N.2   2001  L342001    -0.2722
      3  C2        15.9740   -4.7420   30.0750 C.1   2001  L342001     0.2603
      4  N3        15.5780   -3.5610   29.5500 N.2   2001  L342001    -0.2512
      5  C4        14.7560   -3.5140   28.4990 C.1   2001  L342001     0.2257
      6  O4A       14.3590   -2.3250   27.9770 O.2   2001  L342001    -0.2106
      7  C4A       14.3130   -4.7140   27.9610 C.3   2001  L342001     0.2947
      8  N5        13.4770   -4.7800   26.8710 N.am  2001  L342001    -0.2360
      9  C6        12.3500   -5.7020   26.9260 C.3   2001  L342001     0.1241
     10  C7        12.9840   -7.1000   27.0860 C.3   2001  L342001     0.1586
     11  N8        14.2360   -7.0950   27.9090 N.2   2001  L342001    -0.2090
     12  C8A       14.7190   -5.9160   28.4990 C.1   2001  L342001     0.1089
     13  CX        13.6500   -4.3440   25.5690 C.2   2001  L342001     0.3125
     14  OX        14.5990   -3.6210   25.2640 O.2   2001  L342001    -0.2520
     15  C9        11.7070   -5.5880   25.5460 C.3   2001  L342001     0.1216
     16  N10       12.6520   -4.7630   24.7660 N.am  2001  L342001    -0.2413
     17  C1B       12.4290   -4.3980   23.4890 C.ar  2001  L342001     0.0553
     18  C2B       11.4070   -5.0140   22.7560 C.ar  2001  L342001     0.0151
     19  C3B       11.1440   -4.6220   21.4480 C.ar  2001  L342001     0.0058
     20  C4B       11.8970   -3.6160   20.8410 C.ar  2001  L342001     0.0551
     21  C5B       12.9030   -2.9880   21.5680 C.ar  2001  L342001     0.0058
     22  C6B       13.1600   -3.3680   22.8810 C.ar  2001  L342001     0.0151
     23  C7B       11.6070   -3.1670   19.4070 C.2   2001  L342001     0.2652
     24  O7B       11.9470   -2.0450   19.0230 O.2   2001  L342001    -0.2684
     25  N         10.9030   -4.0210   18.6570 N.am  2001  L342001    -0.1918
     26  CA        10.4860   -3.6850   17.2840 C.3   2001  L342001     0.1986
     27  CB        10.1180   -4.9630   16.5150 C.3   2001  L342001     0.0451
     28  CG        11.3270   -5.9060   16.3390 C.3   2001  L342001     0.1164
     29  CD        11.4530   -6.9360   17.4840 C.2   2001  L342001     0.3649
     30  OE1       12.2280   -7.9050   17.2950 O.co2 2001  L342001    -0.2457
     31  OE2       10.7940   -6.7170   18.5330 O.co2 2001  L342001    -0.2457
     32  C          9.2590   -2.7400   17.3860 C.2   2001  L342001     0.3842
     33  O          8.5040   -2.8510   18.3860 O.co2 2001  L342001    -0.2437
     34  OXT        9.1100   -1.8990   16.4750 O.co2 2001  L342001    -0.2437
@<TRIPOS>BOND
     1    28    27    1
     2    28    29    1
     3    34    32   ar
     4    27    26    1
     5    26    32    1
     6    26    25    1
     7    30    29   ar
     8    32    33   ar
     9    29    31   ar
    10    25    23   am
    11    24    23    2
    12    23    20    1
    13    20    19   ar
    14    20    21   ar
    15    19    18   ar
    16    21    22   ar
    17    18    17   ar
    18    22    17   ar
    19    17    16    1
    20    16    15    1
    21    16    13   am
    22    14    13    2
    23    15     9    1
    24    13     8   am
    25     8     9    1
    26     8     7    1
    27     9    10    1
    28    10    11    1
    29    11    12    2
    30     7    12    1
    31     7     5    1
    32     6     5    2
    33    12     2    2
    34     5     4    2
    35     4     3    2
    36     2     3    2
    37     3     1    1
