@<TRIPOS>MOLECULE
4b4v_NAP_A_1.pdb
 31 33 0 0 0
SMALL
GASTEIGER

@<TRIPOS>ATOM
      1  PA         6.3550  -11.4250   32.9650 P.3   1001  NAP1001     0.2231
      2  O1A        7.5990  -10.8470   33.6060 O.3   1001  NAP1001    -0.4370
      3  O2A        5.7330  -12.7000   33.5020 O.2   1001  NAP1001    -0.5169
      4  O5B        5.2140  -10.2880   32.9580 O.3   1001  NAP1001    -0.3111
      5  C5B        3.9060  -10.5780   32.4690 C.3   1001  NAP1001     0.1813
      6  C4B        2.8400   -9.9170   33.3320 C.3   1001  NAP1001     0.1820
      7  O4B        1.5740  -10.1560   32.7130 O.3   1001  NAP1001    -0.3136
      8  C3B        2.7620  -10.4940   34.7420 C.3   1001  NAP1001     0.2157
      9  O3B        2.5050   -9.4570   35.6980 O.3   1001  NAP1001    -0.2175
     10  C2B        1.6000  -11.4700   34.6660 C.3   1001  NAP1001     0.2314
     11  O2B        0.8780  -11.6810   35.8780 O.3   1001  NAP1001    -0.2630
     12  C1B        0.7010  -10.7740   33.6580 C.3   1001  NAP1001     0.3158
     13  N9A       -0.3000  -11.6750   33.0280 N.pl3 1001  NAP1001    -0.1439
     14  C8A        0.2160  -12.8770   32.4110 C.3   1001  NAP1001     0.3377
     15  N7A       -1.0580  -13.4200   31.9560 N.2   1001  NAP1001    -0.2095
     16  C5A       -2.0970  -12.6270   32.2900 C.2   1001  NAP1001     0.2526
     17  C6A       -3.4640  -12.7210   32.0780 C.2   1001  NAP1001     0.4393
     18  N6A       -3.9950  -13.7780   31.4190 N.pl3 1001  NAP1001     0.2180
     19  N1A       -4.2700  -11.7360   32.5330 N.2   1001  NAP1001     0.0021
     20  C2A       -3.7720  -10.6770   33.1890 C.3   1001  NAP1001     0.5254
     21  N3A       -2.4530  -10.5490   33.4070 N.2   1001  NAP1001    -0.0055
     22  C4A       -1.6100  -11.5070   32.9720 C.2   1001  NAP1001     0.3518
     23  O3         6.6630  -11.5710   31.3850 O.3   1001  NAP1001    -0.2261
     24  PN         6.7540  -13.0030   30.6440 P.3   1001  NAP1001     0.5373
     25  O1N        5.5180  -13.7390   31.1210 O.3   1001  NAP1001    -0.1143
     26  O2N        6.7360  -12.6410   29.1760 O.2   1001  NAP1001    -0.2221
     27  O5D        8.0530  -13.6070   31.1290 O.3   1001  NAP1001    -0.1143
     28  P2B        1.5910  -12.1630   37.2400 P.3   1001  NAP1001     0.5328
     29  O1X        2.4140  -10.9840   37.6900 O.3   1001  NAP1001    -0.1145
     30  O2X        2.4130  -13.3540   36.8080 O.2   1001  NAP1001    -0.2224
     31  O3X        0.4190  -12.4860   38.1360 O.3   1001  NAP1001    -0.1145
@<TRIPOS>BOND
     1    26    24    2
     2    24    25    1
     3    24    27    1
     4    24    23    1
     5    23     1    1
     6    18    17    1
     7    15    16    2
     8    15    14    1
     9    17    16    1
    10    17    19    2
    11    16    22    1
    12    14    13    1
    13     5     4    1
    14     5     6    1
    15    19    20    1
    16     7     6    1
    17     7    12    1
    18     4     1    1
    19     1     3    2
    20     1     2    1
    21    22    13    1
    22    22    21    2
    23    13    12    1
    24    20    21    1
    25     6     8    1
    26    12    10    1
    27    10     8    1
    28    10    11    1
    29     8     9    1
    30    11    28    1
    31    30    28    2
    32    28    29    1
    33    28    31    1
