@<TRIPOS>MOLECULE
4b4w_9L9_A_1.pdb
 31 32 0 0 0
SMALL
GASTEIGER

@<TRIPOS>ATOM
      1  N2A       17.2200   -4.5350   30.9650 N.pl3 2001  9L92001    -0.0226
      2  N1        15.8900   -5.8340   29.5460 N.2   2001  9L92001    -0.3084
      3  C2        16.3120   -4.6280   29.9830 C.1   2001  9L92001     0.2526
      4  N3        15.8190   -3.5060   29.4290 N.2   2001  9L92001    -0.2522
      5  C4        14.9100   -3.5650   28.4450 C.1   2001  9L92001     0.2199
      6  O4A       14.4480   -2.4020   27.9190 O.2   2001  9L92001    -0.2112
      7  N5A       13.5380   -4.8400   27.0040 N.am  2001  9L92001    -0.1618
      8  C5        14.4640   -4.8080   27.9710 C.3   2001  9L92001     0.2843
      9  C6        14.9700   -5.9520   28.5710 C.2   2001  9L92001     0.2469
     10  N7        14.5650   -7.1510   28.1680 N.pl3 2001  9L92001    -0.0939
     11  O8A       14.9700   -4.4480   25.3020 O.2   2001  9L92001    -0.2488
     12  N9        12.7530   -4.6780   24.8900 N.am  2001  9L92001    -0.1609
     13  C1B       12.6810   -4.3430   23.5930 C.ar  2001  9L92001     0.0750
     14  C2B       13.5750   -3.4400   23.0060 C.ar  2001  9L92001     0.0168
     15  C3B       13.4230   -3.0410   21.6780 C.ar  2001  9L92001     0.0059
     16  C4B       12.3520   -3.5170   20.9240 C.ar  2001  9L92001     0.0551
     17  C5B       11.4250   -4.3750   21.5230 C.ar  2001  9L92001     0.0059
     18  C6B       11.5810   -4.7720   22.8530 C.ar  2001  9L92001     0.0168
     19  C7B       12.1720   -3.0400   19.4740 C.2   2001  9L92001     0.2652
     20  O7B       12.6360   -1.9540   19.1250 O.2   2001  9L92001    -0.2684
     21  N         11.3850   -3.7900   18.7000 N.am  2001  9L92001    -0.1918
     22  CB        10.7170   -4.6620   16.4920 C.3   2001  9L92001     0.0451
     23  CG        11.9800   -5.2140   15.8310 C.3   2001  9L92001     0.1164
     24  CD        12.2510   -6.6570   16.2630 C.2   2001  9L92001     0.3649
     25  OE1       12.8260   -7.3960   15.4270 O.co2 2001  9L92001    -0.2457
     26  OE2       11.8930   -6.9920   17.4220 O.co2 2001  9L92001    -0.2457
     27  C          9.7760   -2.5220   17.3540 C.2   2001  9L92001     0.3842
     28  O          8.9440   -2.7140   18.2790 O.co2 2001  9L92001    -0.2437
     29  OXT        9.6500   -1.6720   16.4470 O.co2 2001  9L92001    -0.2437
     30  CA        11.0360   -3.4070   17.3140 C.3   2001  9L92001     0.1986
     31  CAW       13.8200   -4.6180   25.7070 C.2   2001  9L92001     0.3449
@<TRIPOS>BOND
     1    25    24   ar
     2    23    24    1
     3    23    22    1
     4    24    26   ar
     5    29    27   ar
     6    22    30    1
     7    30    27    1
     8    30    21    1
     9    27    28   ar
    10    21    19   am
    11    20    19    2
    12    19    16    1
    13    16    17   ar
    14    16    15   ar
    15    17    18   ar
    16    15    14   ar
    17    18    13   ar
    18    14    13   ar
    19    13    12    1
    20    12    31   am
    21    11    31    2
    22    31     7   am
    23     7     8    1
    24     6     5    2
    25     8     5    1
    26     8     9    1
    27    10     9    1
    28     5     4    2
    29     9     2    2
    30     4     3    2
    31     2     3    2
    32     3     1    1
