@<TRIPOS>MOLECULE
4b4w_NAP_A_1.pdb
 31 33 0 0 0
SMALL
GASTEIGER

@<TRIPOS>ATOM
      1  PA         6.9360  -11.3840   33.3070 P.3   1001  NAP1001     0.2231
      2  O1A        8.2160  -10.5900   33.4110 O.2   1001  NAP1001    -0.5169
      3  O2A        6.5520  -12.3400   34.4110 O.3   1001  NAP1001    -0.4370
      4  O5B        5.7250  -10.3350   33.1210 O.3   1001  NAP1001    -0.3111
      5  C5B        4.4290  -10.7730   32.7320 C.3   1001  NAP1001     0.1813
      6  C4B        3.3470  -10.0640   33.5350 C.3   1001  NAP1001     0.1820
      7  O4B        2.0960  -10.3250   32.8990 O.3   1001  NAP1001    -0.3136
      8  C3B        3.2370  -10.5980   34.9560 C.3   1001  NAP1001     0.2157
      9  O3B        3.0050   -9.5320   35.8830 O.3   1001  NAP1001    -0.2175
     10  C2B        2.0520  -11.5460   34.8930 C.3   1001  NAP1001     0.2314
     11  O2B        1.3310  -11.7130   36.1140 O.3   1001  NAP1001    -0.2630
     12  C1B        1.1830  -10.8770   33.8470 C.3   1001  NAP1001     0.3158
     13  N9A        0.1820  -11.7970   33.2410 N.pl3 1001  NAP1001    -0.1439
     14  C8A        0.7020  -13.0180   32.6600 C.3   1001  NAP1001     0.3377
     15  N7A       -0.5740  -13.5780   32.2180 N.2   1001  NAP1001    -0.2095
     16  C5A       -1.6130  -12.7730   32.5260 C.2   1001  NAP1001     0.2526
     17  C6A       -2.9810  -12.8790   32.3150 C.2   1001  NAP1001     0.4393
     18  N6A       -3.4950  -13.9630   31.6850 N.pl3 1001  NAP1001     0.2180
     19  N1A       -3.7950  -11.8850   32.7360 N.2   1001  NAP1001     0.0021
     20  C2A       -3.3010  -10.7990   33.3590 C.3   1001  NAP1001     0.5254
     21  N3A       -1.9820  -10.6670   33.5790 N.2   1001  NAP1001    -0.0055
     22  C4A       -1.1320  -11.6330   33.1730 C.2   1001  NAP1001     0.3518
     23  O3         6.9410  -12.1750   31.9050 O.3   1001  NAP1001    -0.2261
     24  PN         6.7400  -13.7790   31.8370 P.3   1001  NAP1001     0.5373
     25  O1N        5.3560  -14.0000   32.4160 O.3   1001  NAP1001    -0.1143
     26  O2N        6.8660  -14.0720   30.3550 O.2   1001  NAP1001    -0.2221
     27  O5D        7.8640  -14.3480   32.6810 O.3   1001  NAP1001    -0.1143
     28  P2B        2.0650  -12.2510   37.4390 P.3   1001  NAP1001     0.5328
     29  O1X        2.8670  -11.0730   37.9330 O.3   1001  NAP1001    -0.1145
     30  O2X        2.9110  -13.3970   36.9440 O.2   1001  NAP1001    -0.2224
     31  O3X        0.9390  -12.6530   38.3560 O.3   1001  NAP1001    -0.1145
@<TRIPOS>BOND
     1    26    24    2
     2    18    17    1
     3    24    23    1
     4    24    25    1
     5    24    27    1
     6    23     1    1
     7    15    16    2
     8    15    14    1
     9    17    16    1
    10    17    19    2
    11    16    22    1
    12    14    13    1
    13     5     4    1
    14     5     6    1
    15    19    20    1
    16     7     6    1
    17     7    12    1
    18     4     1    1
    19    22    13    1
    20    22    21    2
    21    13    12    1
    22     1     2    2
    23     1     3    1
    24    20    21    1
    25     6     8    1
    26    12    10    1
    27    10     8    1
    28    10    11    1
    29     8     9    1
    30    11    28    1
    31    30    28    2
    32    28    29    1
    33    28    31    1
