@<TRIPOS>MOLECULE
4b4y_HEM_A_1.pdb
 43 51 0 0 0
SMALL
GASTEIGER

@<TRIPOS>ATOM
      1  CHA       50.7800   15.2130    6.5950 C.2   1155  HEM1155     0.0000
      2  CHB       51.3680   13.8620   11.1720 C.2   1155  HEM1155     0.0000
      3  CHC       50.7070   18.5190   12.5270 C.2   1155  HEM1155     0.0000
      4  CHD       49.0590   19.5400    8.1340 C.2   1155  HEM1155     0.0000
      5  C1A       51.0140   14.4400    7.7070 C.2   1155  HEM1155     0.0000
      6  C2A       51.4480   13.0820    7.7200 C.2   1155  HEM1155     0.0000
      7  C3A       51.5980   12.7080    8.9670 C.2   1155  HEM1155     0.0000
      8  C4A       51.3330   13.8280    9.7860 C.2   1155  HEM1155     0.0000
      9  CMA       52.0720   11.3180    9.5160 C.3   1155  HEM1155     0.0000
     10  CAA       51.6820   12.2340    6.4240 C.3   1155  HEM1155     0.0000
     11  CBA       50.4340   11.4170    6.1730 C.3   1155  HEM1155     0.0000
     12  CGA       50.4400   10.7690    4.8040 C.2   1155  HEM1155     0.0000
     13  O2A       49.3890   10.8050    4.1300 O.co2 1155  HEM1155     0.0000
     14  O1A       51.4300   10.2250    4.3300 O.co2 1155  HEM1155     0.0000
     15  C1B       51.2850   15.0210   11.9740 C.ar  1155  HEM1155     0.0000
     16  C2B       51.5660   15.1200   13.3980 C.ar  1155  HEM1155     0.0000
     17  C3B       51.4230   16.3820   13.7660 C.ar  1155  HEM1155     0.0000
     18  C4B       50.9900   17.1340   12.6010 C.ar  1155  HEM1155     0.0000
     19  CMB       52.0110   13.9030   14.2540 C.3   1155  HEM1155     0.0000
     20  CAB       51.5710   16.9610   15.1880 C.2   1155  HEM1155     0.0000
     21  CBB       52.7820   17.0420   15.7480 C.2   1155  HEM1155     0.0000
     22  C1C       50.1140   19.1720   11.4680 C.2   1155  HEM1155     0.0000
     23  C2C       49.4060   20.4660   11.5040 C.2   1155  HEM1155     0.0000
     24  C3C       48.8810   20.6950   10.3170 C.2   1155  HEM1155     0.0000
     25  C4C       49.2750   19.5960    9.4850 C.2   1155  HEM1155     0.0000
     26  CMC       49.2190   21.3630   12.7550 C.3   1155  HEM1155     0.0000
     27  CAC       48.0650   21.9720    9.8790 C.2   1155  HEM1155     0.0000
     28  CBC       47.0980   21.8060    8.9700 C.2   1155  HEM1155     0.0000
     29  C1D       49.5410   18.5820    7.2610 C.2   1155  HEM1155     0.0000
     30  C2D       49.5990   18.6620    5.7920 C.2   1155  HEM1155     0.0000
     31  C3D       50.1220   17.3310    5.4190 C.2   1155  HEM1155     0.0000
     32  C4D       50.3030   16.5230    6.6030 C.2   1155  HEM1155     0.0000
     33  CMD       49.1560   19.7620    4.8220 C.3   1155  HEM1155     0.0000
     34  CAD       50.2830   16.7540    4.0140 C.3   1155  HEM1155     0.0000
     35  CBD       48.9220   16.4950    4.7570 C.3   1155  HEM1155     0.0000
     36  CGD       48.2310   15.7370    3.7900 C.2   1155  HEM1155     0.0000
     37  O1D       47.0100   15.6080    4.0140 O.co2 1155  HEM1155     0.0000
     38  O2D       49.0160   15.3900    2.8430 O.co2 1155  HEM1155     0.0000
     39  NA        50.9730   14.8570    8.9790 N.2   1155  HEM1155     0.0000
     40  NB        50.9600   16.2520   11.5510 N.ar  1155  HEM1155     0.0000
     41  NC        49.9910   18.6730   10.2310 N.2   1155  HEM1155     0.0000
     42  ND        50.0430   17.3450    7.6520 N.pl3 1155  HEM1155     0.0000
     43 FE         50.5190   16.7760    9.5480 Fe    1155  HEM1155     0.0000
@<TRIPOS>BOND
     1    38    36   ar
     2    36    37   ar
     3    36    35    1
     4    34    35    1
     5    34    31    1
     6    13    12   ar
     7    14    12   ar
     8    35    31    1
     9    12    11    1
    10    33    30    1
    11    31    30    2
    12    31    32    1
    13    30    29    1
    14    11    10    1
    15    10     6    1
    16     1    32    2
    17     1     5    1
    18    32    42    1
    19    29    42    1
    20    29     4    2
    21    42    43    1
    22     5     6    1
    23     5    39    2
    24     6     7    2
    25     4    25    1
    26     7     9    1
    27     7     8    1
    28    28    27    2
    29    39    43    1
    30    39     8    1
    31    25    41    2
    32    25    24    1
    33    43    41    1
    34    43    40    1
    35     8     2    2
    36    27    24    1
    37    41    22    1
    38    24    23    2
    39     2    15    1
    40    22    23    1
    41    22     3    2
    42    23    26    1
    43    40    15   ar
    44    40    18   ar
    45    15    16   ar
    46     3    18    1
    47    18    17   ar
    48    16    17   ar
    49    16    19    1
    50    17    20    1
    51    20    21    2
