@<TRIPOS>MOLECULE
4b52_RDF_A_1.pdb
 37 39 0 0 0
SMALL
GASTEIGER

@<TRIPOS>ATOM
      1  C1        -0.7630   20.7570   45.4150 C.3   501  RDF501      0.2770
      2  O1        -1.0930   19.8240   46.4440 O.3   501  RDF501     -0.2518
      3  C2         0.4000   20.2450   44.5540 C.3   501  RDF501      0.2410
      4  O2         0.7250   21.2300   43.5670 O.3   501  RDF501     -0.2149
      5  C3        -0.0190   19.0290   43.7400 C.3   501  RDF501      0.2197
      6  O3         1.0440   18.5780   42.8690 O.3   501  RDF501     -0.2174
      7  C4        -1.2910   19.2690   42.9380 C.3   501  RDF501      0.2118
      8  O4        -1.7780   17.9860   42.4780 O.3   501  RDF501     -0.2177
      9  C5        -2.4340   19.8330   43.8480 C.3   501  RDF501      0.1508
     10  O5        -1.9330   20.9540   44.5890 O.3   501  RDF501     -0.3281
     11  C6        -3.8420   20.1440   43.2100 C.3   501  RDF501      0.0350
     12  P         -2.0730   20.1080   47.6560 P.3   501  RDF501      0.4552
     13  O1P       -3.3520   20.8680   47.2730 O.2   501  RDF501     -0.2359
     14  O2P       -2.0950   18.7530   48.2740 O.3   501  RDF501     -0.1258
     15  N         -1.0250   21.0970   48.6700 N.3   501  RDF501     -0.1121
     16  CA        -1.7800   21.9820   49.5770 C.3   501  RDF501      0.1616
     17  C         -2.3100   23.2840   49.0420 C.2   501  RDF501      0.2582
     18  O         -3.3720   23.7120   49.4300 O.2   501  RDF501     -0.2718
     19  CB        -0.9630   22.2570   50.8230 C.3   501  RDF501      0.0274
     20  CG        -1.7290   22.9530   51.9510 C.3   501  RDF501      0.0019
     21  CD1       -2.6790   21.9480   52.5400 C.3   501  RDF501      0.0001
     22  CD2       -0.6880   23.3210   52.9970 C.3   501  RDF501      0.0001
     23  N1        -1.4910   23.9240   48.2460 N.am  501  RDF501     -0.1941
     24  CA1       -1.7960   25.1890   47.6400 C.3   501  RDF501      0.2021
     25  C7        -1.1240   25.3320   46.3130 C.2   501  RDF501      0.3845
     26  O6        -1.4630   26.3340   45.7240 O.co2 501  RDF501     -0.2437
     27  CB1       -1.4600   26.3920   48.5320 C.3   501  RDF501      0.0612
     28  CG1        0.0420   26.6770   48.5950 C.2   501  RDF501      0.0004
     29  CD3        0.9970   25.8570   49.2000 C.2   501  RDF501      0.0946
     30  CD4        0.7540   27.7710   48.1130 C.2   501  RDF501      0.0113
     31  NE1        2.2160   26.4510   49.0820 N.2   501  RDF501     -0.2442
     32  CE2        2.0900   27.6120   48.4410 C.2   501  RDF501      0.0804
     33  CE3        0.3170   28.9090   47.4210 C.2   501  RDF501     -0.0202
     34  CZ2        3.0520   28.5620   48.0890 C.2   501  RDF501      0.0148
     35  CZ3        1.2950   29.8500   47.0320 C.3   501  RDF501      0.0521
     36  CH2        2.6500   29.6950   47.3670 C.2   501  RDF501     -0.0199
     37  OXT       -0.3100   24.4930   45.8860 O.co2 501  RDF501     -0.2437
@<TRIPOS>BOND
     1     8     7    1
     2     6     5    1
     3     7     5    1
     4     7     9    1
     5    11     9    1
     6     4     3    1
     7     5     3    1
     8     9    10    1
     9     3     1    1
    10    10     1    1
    11     1     2    1
    12    26    25   ar
    13    37    25   ar
    14    25    24    1
    15     2    12    1
    16    35    36    1
    17    35    33    1
    18    13    12    2
    19    36    34    2
    20    33    30    2
    21    24    23    1
    22    24    27    1
    23    12    14    1
    24    12    15    1
    25    34    32    1
    26    30    32    1
    27    30    28    1
    28    23    17   am
    29    32    31    2
    30    27    28    1
    31    28    29    2
    32    15    16    1
    33    17    18    2
    34    17    16    1
    35    31    29    1
    36    16    19    1
    37    19    20    1
    38    20    21    1
    39    20    22    1
