@<TRIPOS>MOLECULE
4b55_P18_A_1.pdb
 10 10 0 0 0
SMALL
GASTEIGER

@<TRIPOS>ATOM
      1  O          5.6840   20.1780  -10.9580 O.2   1276  P181276    -0.2913
      2  C          6.2170   19.0930  -11.1150 C.2   1276  P181276     0.1730
      3  C1         6.7010   18.3240   -9.9140 C.3   1276  P181276     0.0692
      4  C2         6.5260   19.0430   -8.5860 C.3   1276  P181276     0.0086
      5  C3         6.4230   18.5380  -12.4870 C.ar  1276  P181276     0.0347
      6  C8         5.9760   19.2510  -13.5990 C.ar  1276  P181276     0.0028
      7  C7         6.1970   18.7680  -14.8810 C.ar  1276  P181276     0.0001
      8  C4         7.0820   17.3260  -12.6900 C.ar  1276  P181276     0.0028
      9  C5         7.3020   16.8520  -13.9760 C.ar  1276  P181276     0.0001
     10  C6         6.8610   17.5720  -15.0700 C.ar  1276  P181276     0.0000
@<TRIPOS>BOND
     1    10     7   ar
     2    10     9   ar
     3     7     6   ar
     4     9     8   ar
     5     6     5   ar
     6     8     5   ar
     7     5     2    1
     8     2     1    2
     9     2     3    1
    10     3     4    1
