@<TRIPOS>MOLECULE
4b5b_BBE_A_1.pdb
 28 30 0 0 0
SMALL
GASTEIGER

@<TRIPOS>ATOM
      1  CAY       38.2360    5.5840   12.4420 C.ar  400  BBE400     -0.0003
      2  CAZ       37.7550    6.6490   13.2080 C.ar  400  BBE400     -0.0002
      3  CBA       37.3830    7.8410   12.6120 C.ar  400  BBE400     -0.0000
      4  CAX       37.4970    7.9680   11.2280 C.ar  400  BBE400     -0.0002
      5  CAW       37.9830    6.9030   10.4490 C.ar  400  BBE400     -0.0003
      6  CAV       38.3430    5.6880   11.0540 C.ar  400  BBE400      0.0256
      7  CAU       38.8350    4.6400   10.2570 C.3   400  BBE400      0.2480
      8  NAN       37.9910    3.4390   10.2540 N.am  400  BBE400     -0.0766
      9  CAO       37.1010    3.1630    9.2560 C.2   400  BBE400      0.4012
     10  NAP       36.8610    4.0180    8.2660 N.2   400  BBE400      0.1921
     11  CAM       38.1980    2.5170   11.2260 C.1   400  BBE400      0.3740
     12  OAL       39.0380    2.7120   12.1070 O.2   400  BBE400     -0.1670
     13  NAD       37.4810    1.3290   11.2700 N.2   400  BBE400     -0.2291
     14  CAE       36.5090    1.0490   10.3220 C.1   400  BBE400      0.2223
     15  OAA       35.8960   -0.0200   10.3810 O.2   400  BBE400     -0.2113
     16  CAF       36.3190    1.9820    9.2950 C.3   400  BBE400      0.3085
     17  NAG       35.4390    1.6580    8.3180 N.3   400  BBE400     -0.1277
     18  CAB       35.9140    0.6690    7.3300 C.3   400  BBE400      0.1168
     19  SAH       33.8650    2.1460    8.3400 S.O2  400  BBE400      0.0648
     20  OAQ       33.8230    3.6770    8.3750 O.2   400  BBE400     -0.1527
     21  OAC       33.1340    1.5840    7.0990 O.2   400  BBE400     -0.1527
     22  CAI       33.1450    1.4460    9.8480 C.ar  400  BBE400      0.1219
     23  CAJ       33.3350    2.0970   11.0700 C.ar  400  BBE400      0.0199
     24  CAK       32.7720    1.5440   12.2230 C.ar  400  BBE400      0.0010
     25  CAT       32.0250    0.3590   12.1490 C.ar  400  BBE400     -0.0042
     26  CAS       31.8430   -0.2890   10.9350 C.ar  400  BBE400     -0.0205
     27  CAR       32.3920    0.2670    9.7890 C.ar  400  BBE400      0.0157
     28  CAL       31.0900   -1.4930   10.8590 C.3   400  BBE400      0.0311
@<TRIPOS>BOND
     1    21    19    2
     2    18    17    1
     3    10     9    2
     4    17    19    1
     5    17    16    1
     6    19    20    2
     7    19    22    1
     8     9    16    1
     9     9     8    1
    10    16    14    1
    11    27    22   ar
    12    27    26   ar
    13    22    23   ar
    14     8     7    1
    15     8    11   am
    16     7     6    1
    17    14    15    2
    18    14    13    2
    19     5     6   ar
    20     5     4   ar
    21    28    26    1
    22    26    25   ar
    23     6     1   ar
    24    23    24   ar
    25    11    13    2
    26    11    12    2
    27     4     3   ar
    28    25    24   ar
    29     1     2   ar
    30     3     2   ar
