@<TRIPOS>MOLECULE
4b5d_SW4_A_1.pdb
 18 20 0 0 0
SMALL
GASTEIGER

@<TRIPOS>ATOM
      1  O01       13.5190   31.6260   22.3520 O.3   1213  SW41213    -0.2204
      2  C02       14.1200   30.8490   23.3160 C.3   1213  SW41213     0.1821
      3  C03       14.2270   29.3620   23.0100 C.3   1213  SW41213     0.0359
      4  C04       15.3310   29.0330   22.0700 C.3   1213  SW41213     0.0070
      5  C05       16.2200   27.9110   22.5090 C.3   1213  SW41213     0.0048
      6  C06       15.1320   27.6700   21.5100 C.3   1213  SW41213     0.0241
      7  C07       15.2740   26.5640   20.4600 C.ar  1213  SW41213    -0.0003
      8  C08       14.8990   25.2290   20.6090 C.ar  1213  SW41213     0.0948
      9  N09       15.0770   24.3780   19.5520 N.ar  1213  SW41213    -0.2395
     10  C10       15.6170   24.8000   18.3790 C.ar  1213  SW41213     0.1356
     11  C11       15.9910   26.1630   18.2100 C.ar  1213  SW41213     0.1574
     12  O12       16.5420   26.7090   17.0070 O.3   1213  SW41213    -0.4724
     13  C13       17.4530   27.7520   17.0640 C.3   1213  SW41213     0.2227
     14  C14       18.1540   28.0320   15.7550 C.3   1213  SW41213     0.1178
     15  C15       17.3860   27.4300   14.6620 C.3   1213  SW41213     0.0400
     16  C16       18.2870   26.2640   14.6990 C.3   1213  SW41213     0.0903
     17  N17       19.1940   27.0200   15.5540 N.3   1213  SW41213    -0.2156
     18  C18       15.8160   27.0320   19.2680 C.ar  1213  SW41213     0.0358
@<TRIPOS>BOND
     1    15    16    1
     2    15    14    1
     3    16    17    1
     4    17    14    1
     5    14    13    1
     6    12    13    1
     7    12    11    1
     8    11    10   ar
     9    11    18   ar
    10    10     9   ar
    11    18     7   ar
    12     9     8   ar
    13     7     8   ar
    14     7     6    1
    15     6     4    1
    16     6     5    1
    17     4     5    1
    18     4     3    1
    19     1     2    1
    20     3     2    1
