@<TRIPOS>MOLECULE
4b5v_E8U_A_1.pdb
 21 20 0 0 0
SMALL
GASTEIGER

@<TRIPOS>ATOM
      1  OAC      -19.1770   -8.6970    7.5760 O.3   1253  E8U1253    -0.3913
      2  CAM      -20.3770   -8.8690    8.2480 C.3   1253  E8U1253     0.0630
      3  CAF      -21.3210   -9.8220    7.5790 C.3   1253  E8U1253    -0.0162
      4  CAK      -21.3600  -11.2360    8.0550 C.3   1253  E8U1253     0.0515
      5  CAI      -21.5850  -11.4450    9.5210 C.2   1253  E8U1253     0.3561
      6  OAD      -20.6160  -11.7100   10.2830 O.co2 1253  E8U1253    -0.2464
      7  OAA      -22.7540  -11.3520    9.9960 O.co2 1253  E8U1253    -0.2464
      8  CAG      -21.0530   -7.5870    8.6770 C.3   1253  E8U1253     0.0432
      9  CAL      -20.2540   -6.5610    9.4380 C.2   1253  E8U1253     0.2458
     10  CAJ      -20.0800   -6.7200   10.9290 C.2   1253  E8U1253     0.4213
     11  OAE      -18.9310   -6.6870   11.4400 O.co2 1253  E8U1253    -0.2373
     12  OAB      -21.0920   -6.8950   11.6680 O.co2 1253  E8U1253    -0.2373
     13  O10      -19.7570   -5.6050    8.8500 O.2   1253  E8U1253    -0.2849
     14  HAC      -18.9740   -7.8240    7.5450 H     1253  E8U1253     0.2098
     15  HAM      -20.1410   -9.3060    9.0910 H     1253  E8U1253     0.0597
     16 HAF1      -21.1290   -9.8160    6.6280 H     1253  E8U1253     0.0295
     17 HAF2      -22.2150   -9.4710    7.7020 H     1253  E8U1253     0.0295
     18 HAG1      -21.8100   -7.8370    9.2400 H     1253  E8U1253     0.0373
     19 HAG2      -21.4050   -7.1580    7.8830 H     1253  E8U1253     0.0373
     20 HAK1      -22.1020  -11.6690    7.6060 H     1253  E8U1253     0.0380
     21 HAK2      -20.5320  -11.6760    7.8030 H     1253  E8U1253     0.0380
@<TRIPOS>BOND
     1    16     3    1
     2    14     1    1
     3     1     2    1
     4     3    17    1
     5     3     4    1
     6     3     2    1
     7    20     4    1
     8    21     4    1
     9    19     8    1
    10     4     5    1
    11     2     8    1
    12     2    15    1
    13     8    18    1
    14     8     9    1
    15    13     9    2
    16     9    10    1
    17     5     7   ar
    18     5     6   ar
    19    10    11   ar
    20    10    12   ar
