@<TRIPOS>MOLECULE
4b63_NAP_A_1.pdb
 48 52 0 0 0
SMALL
GASTEIGER

@<TRIPOS>ATOM
      1  PA       -16.4550  -29.4420    7.1540 P.3   1493  NAP1493     0.2189
      2  O1A      -17.3690  -30.6470    7.1570 O.2   1493  NAP1493    -0.5170
      3  O2A      -15.0870  -29.5720    7.7720 O.3   1493  NAP1493    -0.4371
      4  O5B      -16.2830  -28.9480    5.6340 O.3   1493  NAP1493    -0.3112
      5  C5B      -15.3750  -27.8850    5.3400 C.3   1493  NAP1493     0.1813
      6  C4B      -15.3360  -27.5770    3.8470 C.3   1493  NAP1493     0.1820
      7  O4B      -14.4250  -26.4910    3.6250 O.3   1493  NAP1493    -0.3136
      8  C3B      -14.8180  -28.7440    3.0210 C.3   1493  NAP1493     0.2157
      9  O3B      -15.5170  -28.7730    1.7730 O.3   1493  NAP1493    -0.2175
     10  C2B      -13.3570  -28.4100    2.7810 C.3   1493  NAP1493     0.2314
     11  O2B      -12.8480  -28.9330    1.5570 O.3   1493  NAP1493    -0.2630
     12  C1B      -13.3840  -26.8930    2.7280 C.3   1493  NAP1493     0.3158
     13  N9A      -12.0870  -26.2870    3.1140 N.pl3 1493  NAP1493    -0.1439
     14  C8A      -11.4620  -26.3980    4.3030 C.3   1493  NAP1493     0.3377
     15  N7A      -10.2960  -25.7000    4.3040 N.2   1493  NAP1493    -0.2095
     16  C5A      -10.1680  -25.1260    3.0920 C.2   1493  NAP1493     0.2526
     17  C6A       -9.1740  -24.2550    2.4160 C.2   1493  NAP1493     0.4393
     18  N6A       -8.0540  -23.8520    3.0620 N.pl3 1493  NAP1493     0.2180
     19  N1A       -9.4280  -23.8780    1.1400 N.2   1493  NAP1493     0.0021
     20  C2A      -10.5400  -24.2700    0.4840 C.3   1493  NAP1493     0.5254
     21  N3A      -11.4830  -25.0630    1.0360 N.2   1493  NAP1493    -0.0055
     22  C4A      -11.3550  -25.5150    2.3110 C.2   1493  NAP1493     0.3518
     23  O3       -17.1680  -28.1780    7.8690 O.3   1493  NAP1493    -0.2703
     24  PN       -18.7610  -28.0020    8.0870 P.3   1493  NAP1493     0.2189
     25  O1N      -19.4760  -28.2210    6.7810 O.2   1493  NAP1493    -0.5170
     26  O2N      -18.9710  -26.7240    8.8660 O.3   1493  NAP1493    -0.4371
     27  O5D      -19.1260  -29.2160    9.0800 O.3   1493  NAP1493    -0.3112
     28  C5D      -18.5720  -29.3090   10.3950 C.3   1493  NAP1493     0.1813
     29  C4D      -19.4670  -30.1840   11.2720 C.3   1493  NAP1493     0.1799
     30  O4D      -20.6990  -29.5060   11.5410 O.3   1493  NAP1493    -0.3327
     31  C3D      -19.8240  -31.5030   10.5970 C.3   1493  NAP1493     0.2158
     32  O3D      -19.6500  -32.5690   11.5310 O.3   1493  NAP1493    -0.2175
     33  C2D      -21.2900  -31.3850   10.2390 C.3   1493  NAP1493     0.2309
     34  O2D      -21.9830  -32.6250   10.4130 O.3   1493  NAP1493    -0.2158
     35  C1D      -21.8150  -30.3430   11.2120 C.3   1493  NAP1493     0.2263
     36  N1N      -22.9440  -29.6030   10.6350 N.pl3 1493  NAP1493    -0.2787
     37  C2N      -24.1620  -30.1700   10.6940 C.3   1493  NAP1493     0.1244
     38  C3N      -25.2770  -29.5210   10.1750 C.2   1493  NAP1493     0.0544
     39  C7N      -26.6270  -30.1760   10.2480 C.2   1493  NAP1493     0.2818
     40  O7N      -27.2310  -30.3840    9.2080 O.2   1493  NAP1493    -0.2670
     41  N7N      -27.1410  -30.5090   11.4340 N.am  1493  NAP1493    -0.0839
     42  C4N      -25.1190  -28.2680    9.5810 C.2   1493  NAP1493     0.0033
     43  C5N      -23.8480  -27.6990    9.5180 C.2   1493  NAP1493     0.0157
     44  C6N      -22.7670  -28.3960   10.0650 C.2   1493  NAP1493     0.0633
     45  P2B      -12.5900  -30.5050    1.3000 P.3   1493  NAP1493     0.5328
     46  O1X      -11.3580  -30.5100    0.4270 O.2   1493  NAP1493    -0.2224
     47  O2X      -12.3830  -31.1420    2.6560 O.3   1493  NAP1493    -0.1145
     48  O3X      -13.8590  -30.9470    0.6000 O.3   1493  NAP1493    -0.1145
@<TRIPOS>BOND
     1    46    45    2
     2    20    21    1
     3    20    19    1
     4    48    45    1
     5    21    22    2
     6    19    17    2
     7    45    11    1
     8    45    47    1
     9    11    10    1
    10     9     8    1
    11    22    16    1
    12    22    13    1
    13    17    18    1
    14    17    16    1
    15    12    10    1
    16    12    13    1
    17    12     7    1
    18    10     8    1
    19     8     6    1
    20    16    15    2
    21    13    14    1
    22     7     6    1
    23     6     5    1
    24    14    15    1
    25     5     4    1
    26     4     1    1
    27    25    24    2
    28     1     2    2
    29     1     3    1
    30     1    23    1
    31    23    24    1
    32    24    26    1
    33    24    27    1
    34    27    28    1
    35    40    39    2
    36    43    42    1
    37    43    44    2
    38    42    38    2
    39    44    36    1
    40    38    39    1
    41    38    37    1
    42    33    34    1
    43    33    31    1
    44    33    35    1
    45    39    41   am
    46    28    29    1
    47    31    29    1
    48    31    32    1
    49    36    37    1
    50    36    35    1
    51    35    30    1
    52    29    30    1
