@<TRIPOS>MOLECULE
4b64_NAP_A_1.pdb
 48 52 0 0 0
SMALL
GASTEIGER

@<TRIPOS>ATOM
      1  PA       -16.3930  -29.5580    7.2190 P.3   1505  NAP1505     0.2189
      2  O1A      -17.3380  -30.7310    7.1750 O.2   1505  NAP1505    -0.5170
      3  O2A      -15.0280  -29.7640    7.8350 O.3   1505  NAP1505    -0.4371
      4  O5B      -16.2180  -29.0030    5.7210 O.3   1505  NAP1505    -0.3112
      5  C5B      -15.2770  -27.9700    5.4300 C.3   1505  NAP1505     0.1813
      6  C4B      -15.2680  -27.6580    3.9350 C.3   1505  NAP1505     0.1820
      7  O4B      -14.3700  -26.5680    3.6840 O.3   1505  NAP1505    -0.3136
      8  C3B      -14.7780  -28.8260    3.0980 C.3   1505  NAP1505     0.2157
      9  O3B      -15.5790  -28.9210    1.9140 O.3   1505  NAP1505    -0.2175
     10  C2B      -13.3470  -28.4620    2.7440 C.3   1505  NAP1505     0.2314
     11  O2B      -12.9440  -28.9900    1.4810 O.3   1505  NAP1505    -0.2630
     12  C1B      -13.3630  -26.9410    2.7370 C.3   1505  NAP1505     0.3158
     13  N9A      -12.0470  -26.3610    3.1130 N.pl3 1505  NAP1505    -0.1439
     14  C8A      -11.4170  -26.5070    4.2970 C.3   1505  NAP1505     0.3377
     15  N7A      -10.2350  -25.8380    4.3060 N.2   1505  NAP1505    -0.2095
     16  C5A      -10.0960  -25.2450    3.1020 C.2   1505  NAP1505     0.2526
     17  C6A       -9.0840  -24.3830    2.4340 C.2   1505  NAP1505     0.4393
     18  N6A       -7.9500  -24.0130    3.0770 N.pl3 1505  NAP1505     0.2180
     19  N1A       -9.3290  -23.9790    1.1640 N.2   1505  NAP1505     0.0021
     20  C2A      -10.4550  -24.3290    0.5050 C.3   1505  NAP1505     0.5254
     21  N3A      -11.4130  -25.1080    1.0500 N.2   1505  NAP1505    -0.0055
     22  C4A      -11.2960  -25.5900    2.3180 C.2   1505  NAP1505     0.3518
     23  O3       -17.0900  -28.2960    7.9620 O.3   1505  NAP1505    -0.2703
     24  PN       -18.6870  -28.1120    8.1710 P.3   1505  NAP1505     0.2189
     25  O1N      -19.4210  -28.3540    6.8670 O.2   1505  NAP1505    -0.5170
     26  O2N      -18.9190  -26.8200    8.9230 O.3   1505  NAP1505    -0.4371
     27  O5D      -19.0290  -29.3130    9.1830 O.3   1505  NAP1505    -0.3112
     28  C5D      -18.4120  -29.3790   10.4710 C.3   1505  NAP1505     0.1813
     29  C4D      -19.2720  -30.2240   11.4100 C.3   1505  NAP1505     0.1799
     30  O4D      -20.5580  -29.6240   11.6060 O.3   1505  NAP1505    -0.3327
     31  C3D      -19.5250  -31.6160   10.8530 C.3   1505  NAP1505     0.2158
     32  O3D      -19.4310  -32.5310   11.9450 O.3   1505  NAP1505    -0.2175
     33  C2D      -20.9490  -31.5710   10.3340 C.3   1505  NAP1505     0.2309
     34  O2D      -21.5970  -32.8410   10.4260 O.3   1505  NAP1505    -0.2158
     35  C1D      -21.5950  -30.5570   11.2640 C.3   1505  NAP1505     0.2263
     36  N1N      -22.7840  -29.9090   10.6900 N.pl3 1505  NAP1505    -0.2787
     37  C2N      -23.9660  -30.5450   10.7980 C.3   1505  NAP1505     0.1244
     38  C3N      -25.1330  -29.9760   10.2940 C.2   1505  NAP1505     0.0544
     39  C7N      -26.4410  -30.7050   10.4240 C.2   1505  NAP1505     0.2818
     40  O7N      -26.9460  -31.1850    9.4260 O.2   1505  NAP1505    -0.2670
     41  N7N      -27.0280  -30.8080   11.6180 N.am  1505  NAP1505    -0.0839
     42  C4N      -25.0670  -28.7310    9.6660 C.2   1505  NAP1505     0.0033
     43  C5N      -23.8340  -28.0880    9.5590 C.2   1505  NAP1505     0.0157
     44  C6N      -22.6980  -28.7050   10.0890 C.2   1505  NAP1505     0.0633
     45  P2B      -12.1860  -30.4110    1.3680 P.3   1505  NAP1505     0.5328
     46  O1X      -11.5510  -30.3680   -0.0030 O.2   1505  NAP1505    -0.2224
     47  O2X      -11.2130  -30.4410    2.5210 O.3   1505  NAP1505    -0.1145
     48  O3X      -13.2980  -31.4220    1.4740 O.3   1505  NAP1505    -0.1145
@<TRIPOS>BOND
     1    46    45    2
     2    20    21    1
     3    20    19    1
     4    21    22    2
     5    19    17    2
     6    45    48    1
     7    45    11    1
     8    45    47    1
     9    11    10    1
    10     9     8    1
    11    22    16    1
    12    22    13    1
    13    17    18    1
    14    17    16    1
    15    12    10    1
    16    12    13    1
    17    12     7    1
    18    10     8    1
    19     8     6    1
    20    16    15    2
    21    13    14    1
    22     7     6    1
    23     6     5    1
    24    14    15    1
    25     5     4    1
    26     4     1    1
    27    25    24    2
    28     2     1    2
    29     1     3    1
    30     1    23    1
    31    23    24    1
    32    24    26    1
    33    24    27    1
    34    27    28    1
    35    40    39    2
    36    43    42    1
    37    43    44    2
    38    42    38    2
    39    44    36    1
    40    38    39    1
    41    38    37    1
    42    33    34    1
    43    33    31    1
    44    33    35    1
    45    39    41   am
    46    28    29    1
    47    36    37    1
    48    36    35    1
    49    31    29    1
    50    31    32    1
    51    35    30    1
    52    29    30    1
