@<TRIPOS>MOLECULE
4b64_LYS_A_1.pdb
 10 9 0 0 0
SMALL
GASTEIGER

@<TRIPOS>ATOM
      1  N        -24.7000  -40.6610   11.7660 N.3   1503  LYS1503    -0.1208
      2  CA       -24.2440  -40.2640   13.1330 C.3   1503  LYS1503     0.1943
      3  C        -25.0210  -40.9920   14.2280 C.2   1503  LYS1503     0.3819
      4  O        -25.9070  -41.8030   13.9530 O.co2 1503  LYS1503    -0.2441
      5  CB       -24.3440  -38.7490   13.3200 C.3   1503  LYS1503     0.0307
      6  CG       -23.5900  -37.9430   12.2740 C.3   1503  LYS1503     0.0036
      7  CD       -23.8210  -36.4550   12.4710 C.3   1503  LYS1503     0.0206
      8  CE       -23.2090  -35.6510   11.3370 C.3   1503  LYS1503     0.1093
      9  NZ       -23.2950  -34.1930   11.6260 N.3   1503  LYS1503    -0.1314
     10  OXT      -24.7730  -40.8030   15.4190 O.co2 1503  LYS1503    -0.2441
@<TRIPOS>BOND
     1     8     9    1
     2     8     7    1
     3     1     2    1
     4     6     7    1
     5     6     5    1
     6     2     5    1
     7     2     3    1
     8     4     3   ar
     9     3    10   ar
