@<TRIPOS>MOLECULE
4b65_NDP_A_1.pdb
 48 52 0 0 0
SMALL
GASTEIGER

@<TRIPOS>ATOM
      1  PA       -16.6830  -29.4600    7.1220 P.3   1493  NDP1493     0.2189
      2  O1A      -15.3020  -29.5840    7.7090 O.3   1493  NDP1493    -0.4371
      3  O2A      -17.5650  -30.6780    7.1100 O.2   1493  NDP1493    -0.5170
      4  O5B      -16.5190  -28.9090    5.6360 O.3   1493  NDP1493    -0.3112
      5  C5B      -15.5970  -27.8530    5.3910 C.3   1493  NDP1493     0.1813
      6  C4B      -15.4970  -27.5970    3.8910 C.3   1493  NDP1493     0.1820
      7  O4B      -14.5550  -26.5360    3.6540 O.3   1493  NDP1493    -0.3136
      8  C3B      -14.9950  -28.8080    3.1170 C.3   1493  NDP1493     0.2157
      9  O3B      -15.7440  -28.9010    1.8960 O.3   1493  NDP1493    -0.2175
     10  C2B      -13.5380  -28.4730    2.8410 C.3   1493  NDP1493     0.2314
     11  O2B      -13.0480  -29.0690    1.6500 O.3   1493  NDP1493    -0.2630
     12  C1B      -13.5550  -26.9590    2.7270 C.3   1493  NDP1493     0.3158
     13  N9A      -12.2640  -26.3400    3.0940 N.pl3 1493  NDP1493    -0.1439
     14  C8A      -11.6270  -26.4510    4.2790 C.3   1493  NDP1493     0.3377
     15  N7A      -10.4740  -25.7420    4.2650 N.2   1493  NDP1493    -0.2095
     16  C5A      -10.3710  -25.1610    3.0540 C.2   1493  NDP1493     0.2526
     17  C6A       -9.4050  -24.2680    2.3660 C.2   1493  NDP1493     0.4393
     18  N6A       -8.2910  -23.8500    2.9950 N.pl3 1493  NDP1493     0.2180
     19  N1A       -9.6730  -23.8870    1.0960 N.2   1493  NDP1493     0.0021
     20  C2A      -10.7960  -24.2870    0.4520 C.3   1493  NDP1493     0.5254
     21  N3A      -11.7140  -25.0980    1.0170 N.2   1493  NDP1493    -0.0055
     22  C4A      -11.5590  -25.5560    2.2870 C.2   1493  NDP1493     0.3518
     23  O3       -17.3820  -28.2270    7.9020 O.3   1493  NDP1493    -0.2703
     24  PN       -18.9660  -27.9410    8.0620 P.3   1493  NDP1493     0.2189
     25  O1N      -19.0960  -26.6680    8.8580 O.3   1493  NDP1493    -0.4371
     26  O2N      -19.6530  -28.0890    6.7310 O.2   1493  NDP1493    -0.5170
     27  O5D      -19.4500  -29.1400    9.0080 O.3   1493  NDP1493    -0.3112
     28  C5D      -18.9700  -29.2650   10.3470 C.3   1493  NDP1493     0.1813
     29  C4D      -19.9210  -30.1820   11.1050 C.3   1493  NDP1493     0.1799
     30  O4D      -21.1350  -29.4830   11.4170 O.3   1493  NDP1493    -0.3327
     31  C3D      -20.3000  -31.3820   10.2500 C.3   1493  NDP1493     0.2158
     32  O3D      -20.1220  -32.5760   11.0210 O.3   1493  NDP1493    -0.2175
     33  C2D      -21.7610  -31.1640    9.8880 C.3   1493  NDP1493     0.2309
     34  O2D      -22.4970  -32.3870    9.8620 O.3   1493  NDP1493    -0.2158
     35  C1D      -22.2770  -30.2320   10.9730 C.3   1493  NDP1493     0.2263
     36  N1N      -23.3410  -29.3620   10.4500 N.pl3 1493  NDP1493    -0.2787
     37  C2N      -24.6190  -29.7120   10.6900 C.3   1493  NDP1493     0.1244
     38  C3N      -25.6940  -28.9510   10.2310 C.2   1493  NDP1493     0.0544
     39  C7N      -27.1050  -29.3880   10.5340 C.2   1493  NDP1493     0.2818
     40  O7N      -27.3430  -30.0780   11.5160 O.2   1493  NDP1493    -0.2670
     41  N7N      -28.0820  -29.0000    9.7230 N.am  1493  NDP1493    -0.0839
     42  C4N      -25.4560  -27.6860    9.4290 C.2   1493  NDP1493     0.0033
     43  C5N      -24.0320  -27.4170    9.2300 C.2   1493  NDP1493     0.0157
     44  C6N      -23.0390  -28.2560    9.7430 C.2   1493  NDP1493     0.0633
     45  P2B      -12.1500  -30.4140    1.6950 P.3   1493  NDP1493     0.5328
     46  O1X      -11.0900  -30.1400    2.7400 O.3   1493  NDP1493    -0.1145
     47  O2X      -13.1010  -31.5120    2.0920 O.3   1493  NDP1493    -0.1145
     48  O3X      -11.6620  -30.5180    0.2700 O.2   1493  NDP1493    -0.2224
@<TRIPOS>BOND
     1    48    45    2
     2    20    21    1
     3    20    19    1
     4    21    22    2
     5    19    17    2
     6    11    45    1
     7    11    10    1
     8    45    47    1
     9    45    46    1
    10     9     8    1
    11    22    16    1
    12    22    13    1
    13    17    18    1
    14    17    16    1
    15    12    10    1
    16    12    13    1
    17    12     7    1
    18    10     8    1
    19    16    15    2
    20    13    14    1
    21     8     6    1
    22     7     6    1
    23     6     5    1
    24    15    14    1
    25     5     4    1
    26     4     1    1
    27    26    24    2
    28     3     1    2
    29     1     2    1
    30     1    23    1
    31    23    24    1
    32    24    25    1
    33    24    27    1
    34    27    28    1
    35    43    42    1
    36    43    44    2
    37    42    38    2
    38    41    39   am
    39    44    36    1
    40    34    33    1
    41    33    31    1
    42    33    35    1
    43    38    39    1
    44    38    37    1
    45    31    32    1
    46    31    29    1
    47    28    29    1
    48    36    37    1
    49    36    35    1
    50    39    40    2
    51    35    30    1
    52    29    30    1
