@<TRIPOS>MOLECULE
4b66_ARG_A_1.pdb
 12 11 0 0 0
SMALL
GASTEIGER

@<TRIPOS>ATOM
      1  N        -26.2680  -39.9840   12.0130 N.3   503  ARG503     -0.1208
      2  CA       -25.0830  -40.6180   12.6890 C.3   503  ARG503      0.1944
      3  C        -25.4660  -41.2490   14.0350 C.2   503  ARG503      0.3819
      4  O        -24.8800  -41.0120   15.1000 O.co2 503  ARG503     -0.2441
      5  CB       -23.9290  -39.6060   12.8350 C.3   503  ARG503      0.0343
      6  CG       -24.3530  -38.2160   13.3120 C.3   503  ARG503      0.0490
      7  CD       -23.3910  -37.1290   12.8430 C.3   503  ARG503      0.2205
      8  NE       -23.4010  -36.9670   11.3920 N.pl3 503  ARG503     -0.0865
      9  CZ       -23.2360  -35.8010   10.7590 C.cat 503  ARG503      0.5346
     10  NH1      -23.0480  -34.6750   11.4490 N.pl3 503  ARG503      0.1354
     11  NH2      -23.2650  -35.7510    9.4290 N.pl3 503  ARG503      0.1354
     12  OXT      -26.4040  -42.0480   14.0740 O.co2 503  ARG503     -0.2441
@<TRIPOS>BOND
     1    11     9    1
     2     9     8    2
     3     9    10    1
     4     8     7    1
     5     1     2    1
     6     2     5    1
     7     2     3    1
     8     5     6    1
     9     7     6    1
    10     3    12   ar
    11     3     4   ar
