@<TRIPOS>MOLECULE
4b66_NAP_A_1.pdb
 48 52 0 0 0
SMALL
GASTEIGER

@<TRIPOS>ATOM
      1  PA       -16.7830  -29.5210    7.0680 P.3   1505  NAP1505     0.2189
      2  O1A      -17.7610  -30.6620    6.9330 O.2   1505  NAP1505    -0.5170
      3  O2A      -15.5110  -29.7210    7.8750 O.3   1505  NAP1505    -0.4371
      4  O5B      -16.4370  -29.0420    5.5650 O.3   1505  NAP1505    -0.3112
      5  C5B      -15.5360  -27.9660    5.2890 C.3   1505  NAP1505     0.1813
      6  C4B      -15.4190  -27.7800    3.7730 C.3   1505  NAP1505     0.1820
      7  O4B      -14.5060  -26.7210    3.4540 O.3   1505  NAP1505    -0.3136
      8  C3B      -14.9270  -29.0130    3.0080 C.3   1505  NAP1505     0.2157
      9  O3B      -15.7220  -29.1480    1.8170 O.3   1505  NAP1505    -0.2175
     10  C2B      -13.4950  -28.7080    2.6180 C.3   1505  NAP1505     0.2314
     11  O2B      -13.1990  -29.2370    1.3250 O.3   1505  NAP1505    -0.2630
     12  C1B      -13.4860  -27.1900    2.5490 C.3   1505  NAP1505     0.3158
     13  N9A      -12.2080  -26.5940    2.9890 N.pl3 1505  NAP1505    -0.1439
     14  C8A      -11.6590  -26.7690    4.2090 C.3   1505  NAP1505     0.3377
     15  N7A      -10.5100  -26.0750    4.3310 N.2   1505  NAP1505    -0.2095
     16  C5A      -10.3210  -25.4290    3.1700 C.2   1505  NAP1505     0.2526
     17  C6A       -9.2910  -24.5130    2.6390 C.2   1505  NAP1505     0.4393
     18  N6A       -8.2400  -24.1870    3.4340 N.pl3 1505  NAP1505     0.2180
     19  N1A       -9.4390  -24.0370    1.3740 N.2   1505  NAP1505     0.0021
     20  C2A      -10.5030  -24.3800    0.6130 C.3   1505  NAP1505     0.5254
     21  N3A      -11.4820  -25.2120    1.0410 N.2   1505  NAP1505    -0.0055
     22  C4A      -11.4460  -25.7600    2.2850 C.2   1505  NAP1505     0.3518
     23  O3       -17.4810  -28.2210    7.7200 O.3   1505  NAP1505    -0.2703
     24  PN       -19.0380  -28.0380    8.0890 P.3   1505  NAP1505     0.2189
     25  O1N      -19.7890  -27.9430    6.7650 O.2   1505  NAP1505    -0.5170
     26  O2N      -19.1410  -26.9380    9.1300 O.3   1505  NAP1505    -0.4371
     27  O5D      -19.4030  -29.3640    8.9280 O.3   1505  NAP1505    -0.3112
     28  C5D      -18.7530  -29.6140   10.1830 C.3   1505  NAP1505     0.1813
     29  C4D      -19.7140  -30.2140   11.2130 C.3   1505  NAP1505     0.1799
     30  O4D      -20.8990  -29.4320   11.4910 O.3   1505  NAP1505    -0.3327
     31  C3D      -20.2030  -31.5530   10.7140 C.3   1505  NAP1505     0.2158
     32  O3D      -20.2330  -32.3520   11.8950 O.3   1505  NAP1505    -0.2175
     33  C2D      -21.6010  -31.2800   10.1740 C.3   1505  NAP1505     0.2309
     34  O2D      -22.4420  -32.4430   10.1500 O.3   1505  NAP1505    -0.2158
     35  C1D      -22.0850  -30.2020   11.1450 C.3   1505  NAP1505     0.2263
     36  N1N      -23.2410  -29.4350   10.6060 N.pl3 1505  NAP1505    -0.2787
     37  C2N      -24.4680  -29.8650   10.9060 C.3   1505  NAP1505     0.1244
     38  C3N      -25.5990  -29.2100   10.4390 C.2   1505  NAP1505     0.0544
     39  C7N      -26.9570  -29.7490   10.8030 C.2   1505  NAP1505     0.2818
     40  O7N      -27.1520  -30.1650   11.9450 O.2   1505  NAP1505    -0.2670
     41  N7N      -27.9040  -29.7720    9.8550 N.am  1505  NAP1505    -0.0839
     42  C4N      -25.4620  -28.0720    9.6430 C.2   1505  NAP1505     0.0033
     43  C5N      -24.1830  -27.6200    9.3300 C.2   1505  NAP1505     0.0157
     44  C6N      -23.0860  -28.3360    9.8310 C.2   1505  NAP1505     0.0633
     45  P2B      -12.4150  -30.6450    1.1270 P.3   1505  NAP1505     0.5328
     46  O1X      -10.9390  -30.2980    1.1710 O.3   1505  NAP1505    -0.1145
     47  O2X      -12.8820  -31.4580    2.3210 O.3   1505  NAP1505    -0.1145
     48  O3X      -12.8410  -31.1310   -0.2510 O.2   1505  NAP1505    -0.2224
@<TRIPOS>BOND
     1    48    45    2
     2    20    21    1
     3    20    19    1
     4    21    22    2
     5    45    46    1
     6    45    11    1
     7    45    47    1
     8    11    10    1
     9    19    17    2
    10     9     8    1
    11    22    13    1
    12    22    16    1
    13    12    10    1
    14    12    13    1
    15    12     7    1
    16    10     8    1
    17    17    16    1
    18    17    18    1
    19    13    14    1
    20     8     6    1
    21    16    15    2
    22     7     6    1
    23     6     5    1
    24    14    15    1
    25     5     4    1
    26     4     1    1
    27    25    24    2
    28     2     1    2
    29     1    23    1
    30     1     3    1
    31    23    24    1
    32    24    27    1
    33    24    26    1
    34    27    28    1
    35    43    42    1
    36    43    44    2
    37    42    38    2
    38    44    36    1
    39    41    39   am
    40    34    33    1
    41    33    31    1
    42    33    35    1
    43    28    29    1
    44    38    39    1
    45    38    37    1
    46    36    37    1
    47    36    35    1
    48    31    29    1
    49    31    32    1
    50    39    40    2
    51    35    30    1
    52    29    30    1
