@<TRIPOS>MOLECULE
4b67_NAP_A_1.pdb
 48 52 0 0 0
SMALL
GASTEIGER

@<TRIPOS>ATOM
      1  PA       -16.4680  -29.2260    7.0720 P.3   1493  NAP1493     0.2189
      2  O1A      -17.4160  -30.4040    7.0720 O.2   1493  NAP1493    -0.5170
      3  O2A      -15.1210  -29.3470    7.7410 O.3   1493  NAP1493    -0.4371
      4  O5B      -16.2300  -28.7960    5.5400 O.3   1493  NAP1493    -0.3112
      5  C5B      -15.5570  -27.5810    5.2220 C.3   1493  NAP1493     0.1813
      6  C4B      -15.3870  -27.4290    3.7120 C.3   1493  NAP1493     0.1820
      7  O4B      -14.4950  -26.3360    3.4580 O.3   1493  NAP1493    -0.3136
      8  C3B      -14.7840  -28.6570    3.0410 C.3   1493  NAP1493     0.2157
      9  O3B      -15.5180  -28.9530    1.8470 O.3   1493  NAP1493    -0.2175
     10  C2B      -13.3560  -28.2570    2.7080 C.3   1493  NAP1493     0.2314
     11  O2B      -12.8570  -28.8000    1.4830 O.3   1493  NAP1493    -0.2630
     12  C1B      -13.4190  -26.7430    2.6110 C.3   1493  NAP1493     0.3158
     13  N9A      -12.1110  -26.1850    3.0280 N.pl3 1493  NAP1493    -0.1439
     14  C8A      -11.5110  -26.3450    4.2240 C.3   1493  NAP1493     0.3377
     15  N7A      -10.3120  -25.7110    4.2540 N.2   1493  NAP1493    -0.2095
     16  C5A      -10.1330  -25.1320    3.0480 C.2   1493  NAP1493     0.2526
     17  C6A       -9.0860  -24.3010    2.3950 C.2   1493  NAP1493     0.4393
     18  N6A       -7.9560  -23.9560    3.0570 N.pl3 1493  NAP1493     0.2180
     19  N1A       -9.2950  -23.9060    1.1140 N.2   1493  NAP1493     0.0021
     20  C2A      -10.4170  -24.2400    0.4400 C.3   1493  NAP1493     0.5254
     21  N3A      -11.4090  -24.9870    0.9700 N.2   1493  NAP1493    -0.0055
     22  C4A      -11.3240  -25.4530    2.2430 C.2   1493  NAP1493     0.3518
     23  O3       -17.1880  -27.9340    7.7130 O.3   1493  NAP1493    -0.2703
     24  PN       -18.7650  -27.8510    8.0370 P.3   1493  NAP1493     0.2189
     25  O1N      -19.5030  -27.9240    6.7200 O.2   1493  NAP1493    -0.5170
     26  O2N      -18.9660  -26.6660    8.9500 O.3   1493  NAP1493    -0.4371
     27  O5D      -19.0580  -29.1700    8.9200 O.3   1493  NAP1493    -0.3112
     28  C5D      -18.5980  -29.2680   10.2720 C.3   1493  NAP1493     0.1813
     29  C4D      -19.5930  -30.0000   11.1780 C.3   1493  NAP1493     0.1799
     30  O4D      -20.7620  -29.2050   11.4250 O.3   1493  NAP1493    -0.3327
     31  C3D      -20.0760  -31.3130   10.5830 C.3   1493  NAP1493     0.2158
     32  O3D      -20.0730  -32.2930   11.6250 O.3   1493  NAP1493    -0.2175
     33  C2D      -21.4970  -31.0320   10.1200 C.3   1493  NAP1493     0.2309
     34  O2D      -22.3470  -32.1800   10.2210 O.3   1493  NAP1493    -0.2158
     35  C1D      -21.9450  -29.9340   11.0720 C.3   1493  NAP1493     0.2263
     36  N1N      -23.0020  -29.0820   10.5070 N.pl3 1493  NAP1493    -0.2787
     37  C2N      -24.2780  -29.4240   10.7610 C.3   1493  NAP1493     0.1244
     38  C3N      -25.3450  -28.6710   10.2750 C.2   1493  NAP1493     0.0544
     39  C7N      -26.7540  -29.0950   10.5960 C.2   1493  NAP1493     0.2818
     40  O7N      -26.9850  -29.5910   11.6870 O.2   1493  NAP1493    -0.2670
     41  N7N      -27.7260  -28.9220    9.7030 N.am  1493  NAP1493    -0.0839
     42  C4N      -25.0760  -27.5340    9.5090 C.2   1493  NAP1493     0.0033
     43  C5N      -23.7490  -27.1910    9.2520 C.2   1493  NAP1493     0.0157
     44  C6N      -22.7190  -27.9880    9.7690 C.2   1493  NAP1493     0.0633
     45  P2B      -12.2630  -30.2950    1.3720 P.3   1493  NAP1493     0.5328
     46  O1X      -10.8200  -30.1110    0.9620 O.3   1493  NAP1493    -0.1145
     47  O2X      -12.4040  -30.9020    2.7480 O.3   1493  NAP1493    -0.1145
     48  O3X      -13.1310  -30.8950    0.2910 O.2   1493  NAP1493    -0.2224
@<TRIPOS>BOND
     1    48    45    2
     2    20    21    1
     3    20    19    1
     4    46    45    1
     5    21    22    2
     6    19    17    2
     7    45    11    1
     8    45    47    1
     9    11    10    1
    10     9     8    1
    11    22    13    1
    12    22    16    1
    13    17    16    1
    14    17    18    1
    15    12    10    1
    16    12    13    1
    17    12     7    1
    18    10     8    1
    19    13    14    1
    20     8     6    1
    21    16    15    2
    22     7     6    1
    23     6     5    1
    24    14    15    1
    25     5     4    1
    26     4     1    1
    27    25    24    2
    28     1     2    2
    29     1    23    1
    30     1     3    1
    31    23    24    1
    32    24    27    1
    33    24    26    1
    34    27    28    1
    35    43    42    1
    36    43    44    2
    37    42    38    2
    38    41    39   am
    39    44    36    1
    40    33    34    1
    41    33    31    1
    42    33    35    1
    43    28    29    1
    44    38    39    1
    45    38    37    1
    46    36    37    1
    47    36    35    1
    48    31    29    1
    49    31    32    1
    50    39    40    2
    51    35    30    1
    52    29    30    1
