@<TRIPOS>MOLECULE
4b68_ARG_A_1.pdb
 12 11 0 0 0
SMALL
GASTEIGER

@<TRIPOS>ATOM
      1  N        -24.5640  -40.8020   11.7400 N.3   503  ARG503     -0.1208
      2  CA       -24.2380  -40.3330   13.1230 C.3   503  ARG503      0.1944
      3  C        -25.0760  -41.0590   14.1770 C.2   503  ARG503      0.3819
      4  O        -24.8000  -40.9970   15.3750 O.co2 503  ARG503     -0.2441
      5  CB       -24.4040  -38.8110   13.2210 C.3   503  ARG503      0.0343
      6  CG       -23.5270  -38.0500   12.2300 C.3   503  ARG503      0.0490
      7  CD       -23.9300  -36.5900   12.1040 C.3   503  ARG503      0.2205
      8  NE       -23.1120  -35.8720   11.1240 N.pl3 503  ARG503     -0.0865
      9  CZ       -23.3640  -35.8150    9.8160 C.cat 503  ARG503      0.5346
     10  NH1      -24.4180  -36.4410    9.3020 N.pl3 503  ARG503      0.1354
     11  NH2      -22.5560  -35.1290    9.0170 N.pl3 503  ARG503      0.1354
     12  OXT      -26.0430  -41.7500   13.8560 O.co2 503  ARG503     -0.2441
@<TRIPOS>BOND
     1    11     9    1
     2    10     9    1
     3     9     8    2
     4     8     7    1
     5     1     2    1
     6     7     6    1
     7     6     5    1
     8     2     5    1
     9     2     3    1
    10    12     3   ar
    11     3     4   ar
