@<TRIPOS>MOLECULE
4b68_NAP_A_1.pdb
 48 52 0 0 0
SMALL
GASTEIGER

@<TRIPOS>ATOM
      1  PA       -16.5980  -29.5260    6.9050 P.3   1493  NAP1493     0.2189
      2  O1A      -17.6330  -30.6010    6.6970 O.2   1493  NAP1493    -0.5170
      3  O2A      -15.2660  -29.9140    7.4980 O.3   1493  NAP1493    -0.4371
      4  O5B      -16.3810  -28.7960    5.4910 O.3   1493  NAP1493    -0.3112
      5  C5B      -15.2990  -27.9000    5.2460 C.3   1493  NAP1493     0.1813
      6  C4B      -15.2410  -27.6150    3.7450 C.3   1493  NAP1493     0.1820
      7  O4B      -14.3380  -26.5330    3.4940 O.3   1493  NAP1493    -0.3136
      8  C3B      -14.7300  -28.8160    2.9590 C.3   1493  NAP1493     0.2157
      9  O3B      -15.4830  -28.9450    1.7450 O.3   1493  NAP1493    -0.2175
     10  C2B      -13.2820  -28.4660    2.6620 C.3   1493  NAP1493     0.2314
     11  O2B      -12.8020  -28.9990    1.4290 O.3   1493  NAP1493    -0.2630
     12  C1B      -13.2880  -26.9490    2.6180 C.3   1493  NAP1493     0.3158
     13  N9A      -11.9740  -26.4090    3.0410 N.pl3 1493  NAP1493    -0.1439
     14  C8A      -11.3540  -26.6240    4.2180 C.3   1493  NAP1493     0.3377
     15  N7A      -10.1610  -25.9790    4.2650 N.2   1493  NAP1493    -0.2095
     16  C5A      -10.0080  -25.3300    3.0940 C.2   1493  NAP1493     0.2526
     17  C6A       -8.9810  -24.4530    2.4770 C.2   1493  NAP1493     0.4393
     18  N6A       -7.8480  -24.1350    3.1440 N.pl3 1493  NAP1493     0.2180
     19  N1A       -9.2140  -23.9850    1.2270 N.2   1493  NAP1493     0.0021
     20  C2A      -10.3400  -24.2930    0.5470 C.3   1493  NAP1493     0.5254
     21  N3A      -11.3130  -25.0800    1.0460 N.2   1493  NAP1493    -0.0055
     22  C4A      -11.2070  -25.6190    2.2890 C.2   1493  NAP1493     0.3518
     23  O3       -17.1950  -28.3430    7.8230 O.3   1493  NAP1493    -0.2703
     24  PN       -18.7640  -27.9860    7.9250 P.3   1493  NAP1493     0.2189
     25  O1N      -19.3820  -28.0590    6.5520 O.2   1493  NAP1493    -0.5170
     26  O2N      -18.8850  -26.7220    8.7440 O.3   1493  NAP1493    -0.4371
     27  O5D      -19.3700  -29.1760    8.8190 O.3   1493  NAP1493    -0.3112
     28  C5D      -18.8460  -29.4780   10.1130 C.3   1493  NAP1493     0.1813
     29  C4D      -19.8200  -30.3820   10.8620 C.3   1493  NAP1493     0.1799
     30  O4D      -20.9890  -29.6410   11.2310 O.3   1493  NAP1493    -0.3327
     31  C3D      -20.2790  -31.5520   10.0020 C.3   1493  NAP1493     0.2158
     32  O3D      -20.1800  -32.7620   10.7600 O.3   1493  NAP1493    -0.2175
     33  C2D      -21.7280  -31.2540    9.6660 C.3   1493  NAP1493     0.2309
     34  O2D      -22.5410  -32.4300    9.6470 O.3   1493  NAP1493    -0.2158
     35  C1D      -22.1690  -30.3150   10.7780 C.3   1493  NAP1493     0.2263
     36  N1N      -23.2110  -29.3870   10.3230 N.pl3 1493  NAP1493    -0.2787
     37  C2N      -24.4910  -29.7010   10.5930 C.3   1493  NAP1493     0.1244
     38  C3N      -25.5360  -28.8670   10.1970 C.2   1493  NAP1493     0.0544
     39  C7N      -26.9590  -29.2390   10.5180 C.2   1493  NAP1493     0.2818
     40  O7N      -27.2100  -29.8170   11.5640 O.2   1493  NAP1493    -0.2670
     41  N7N      -27.9250  -28.9340    9.6570 N.am  1493  NAP1493    -0.0839
     42  C4N      -25.2350  -27.6910    9.5090 C.2   1493  NAP1493     0.0033
     43  C5N      -23.9030  -27.3840    9.2340 C.2   1493  NAP1493     0.0157
     44  C6N      -22.8990  -28.2570    9.6560 C.2   1493  NAP1493     0.0633
     45  P2B      -12.2320  -30.5030    1.3140 P.3   1493  NAP1493     0.5328
     46  O1X      -11.2030  -30.4020    0.2140 O.2   1493  NAP1493    -0.2224
     47  O2X      -11.6530  -30.8320    2.6690 O.3   1493  NAP1493    -0.1145
     48  O3X      -13.4560  -31.3030    0.9340 O.3   1493  NAP1493    -0.1145
@<TRIPOS>BOND
     1    46    45    2
     2    20    21    1
     3    20    19    1
     4    48    45    1
     5    21    22    2
     6    19    17    2
     7    45    11    1
     8    45    47    1
     9    11    10    1
    10     9     8    1
    11    22    13    1
    12    22    16    1
    13    17    16    1
    14    17    18    1
    15    12    10    1
    16    12    13    1
    17    12     7    1
    18    10     8    1
    19     8     6    1
    20    13    14    1
    21    16    15    2
    22     7     6    1
    23     6     5    1
    24    14    15    1
    25     5     4    1
    26     4     1    1
    27    25    24    2
    28     2     1    2
    29     1     3    1
    30     1    23    1
    31    23    24    1
    32    24    26    1
    33    24    27    1
    34    27    28    1
    35    43    42    1
    36    43    44    2
    37    42    38    2
    38    34    33    1
    39    44    36    1
    40    41    39   am
    41    33    31    1
    42    33    35    1
    43    31    32    1
    44    31    29    1
    45    28    29    1
    46    38    39    1
    47    38    37    1
    48    36    37    1
    49    36    35    1
    50    39    40    2
    51    35    30    1
    52    29    30    1
