@<TRIPOS>MOLECULE
4b6c_B5U_A_1.pdb
 35 38 0 0 0
SMALL
GASTEIGER

@<TRIPOS>ATOM
      1  C1        27.6240   37.1060   78.4500 C.3   1256  B5U1256     0.0307
      2  C2        26.5110   36.1060   78.1910 C.ar  1256  B5U1256    -0.0258
      3  C3        25.3820   36.1080   79.0190 C.ar  1256  B5U1256    -0.0045
      4  C4        24.3360   35.2280   78.8120 C.ar  1256  B5U1256     0.0020
      5  C5        24.3750   34.2820   77.7800 C.ar  1256  B5U1256     0.0295
      6  C6        25.4790   34.2910   76.9250 C.ar  1256  B5U1256    -0.0022
      7  C7        26.5390   35.1920   77.0940 C.ar  1256  B5U1256    -0.0257
      8  C8        27.6970   35.1160   76.1360 C.3   1256  B5U1256     0.0307
      9  C9        23.2250   33.3690   77.5340 C.2   1256  B5U1256     0.1629
     10  C10       23.3350   32.1500   76.8340 C.3   1256  B5U1256     0.3214
     11  N11       22.2790   31.3340   76.6280 N.2   1256  B5U1256    -0.0513
     12  C12       21.0840   31.7600   77.1030 C.2   1256  B5U1256     0.3962
     13  C13       20.9370   33.0150   77.7810 C.2   1256  B5U1256     0.2729
     14  N14       22.0220   33.7900   77.9930 N.2   1256  B5U1256    -0.3897
     15  C15       19.6180   33.4950   78.3890 C.2   1256  B5U1256     0.3215
     16  O16       18.5940   32.8090   78.2930 O.2   1256  B5U1256    -0.2636
     17  N17       19.6550   34.6520   79.0390 N.am  1256  B5U1256    -0.0812
     18  N18       19.9460   30.9980   76.9060 N.pl3 1256  B5U1256    -0.0037
     19  C19       19.7590   29.6520   76.4950 C.ar  1256  B5U1256     0.1837
     20  C20       20.6160   29.0230   75.5810 C.ar  1256  B5U1256     0.0475
     21  C21       20.3840   27.7110   75.1860 C.ar  1256  B5U1256     0.0405
     22  C22       19.2730   27.0220   75.6740 C.ar  1256  B5U1256     0.1388
     23  C23       18.3950   27.6530   76.5630 C.ar  1256  B5U1256     0.0405
     24  C24       18.6310   28.9690   76.9560 C.ar  1256  B5U1256     0.0475
     25  O25       18.9920   25.7230   75.2820 O.3   1256  B5U1256    -0.4754
     26  C26       19.6360   25.1590   74.1220 C.3   1256  B5U1256     0.2068
     27  C27       19.0370   23.8220   73.7660 C.3   1256  B5U1256     0.0646
     28  C28       19.2590   22.6550   74.7280 C.3   1256  B5U1256     0.0760
     29  N29       20.6740   22.3480   75.0580 N.3   1256  B5U1256    -0.2702
     30  C30       20.7630   21.6820   76.3720 C.3   1256  B5U1256     0.0897
     31  C31       22.2040   21.3390   76.7200 C.3   1256  B5U1256     0.0897
     32  N32       22.8020   20.4920   75.6920 N.3   1256  B5U1256    -0.2691
     33  C33       22.7330   21.1700   74.3980 C.3   1256  B5U1256     0.0897
     34  C34       21.2940   21.4880   74.0350 C.3   1256  B5U1256     0.0897
     35  C35       24.1860   20.1630   76.0320 C.3   1256  B5U1256     0.0897
@<TRIPOS>BOND
     1    27    26    1
     2    27    28    1
     3    34    33    1
     4    34    29    1
     5    26    25    1
     6    33    32    1
     7    28    29    1
     8    29    30    1
     9    21    20   ar
    10    21    22   ar
    11    25    22    1
    12    20    19   ar
    13    22    23   ar
    14    32    35    1
    15    32    31    1
    16     8     7    1
    17    30    31    1
    18    19    18    1
    19    19    24   ar
    20    23    24   ar
    21    11    10    1
    22    11    12    2
    23    10     9    1
    24    18    12    1
    25     6     7   ar
    26     6     5   ar
    27     7     2   ar
    28    12    13    1
    29     9     5    1
    30     9    14    2
    31     5     4   ar
    32    13    14    2
    33    13    15    1
    34     2     1    1
    35     2     3   ar
    36    16    15    2
    37    15    17   am
    38     4     3   ar
