@<TRIPOS>MOLECULE
4b6e_10L_B_1.pdb
 17 18 0 0 0
SMALL
GASTEIGER

@<TRIPOS>ATOM
      1  N3        45.2750    9.2910  -39.4650 N.pl3 1722  10L1722    -0.3563
      2  C3        44.5300    8.1520  -39.6560 C.ar  1722  10L1722     0.0503
      3  C2        44.9930    6.8600  -39.3080 C.ar  1722  10L1722     0.0863
      4  C4        43.2590    8.2400  -40.2270 C.ar  1722  10L1722    -0.0390
      5  C5        42.4850    7.1130  -40.4410 C.ar  1722  10L1722    -0.0593
      6  C6        42.9520    5.8540  -40.1010 C.ar  1722  10L1722    -0.0510
      7  C1        44.2150    5.7340  -39.5300 C.ar  1722  10L1722     0.0213
      8  C1'       44.9870    4.6540  -39.0770 C.ar  1722  10L1722     0.0569
      9  N1'       46.1740    5.0660  -38.6010 N.ar  1722  10L1722    -0.1811
     10  N9        46.1670    6.4190  -38.7490 N.ar  1722  10L1722    -0.2752
     11 H31N       46.1460    9.2140  -39.0530 H     1722  10L1722     0.1424
     12 H32N       44.9210   10.1500  -39.7440 H     1722  10L1722     0.1424
     13  H4        42.8740    9.2060  -40.4990 H     1722  10L1722     0.0637
     14  H9        46.9210    6.9680  -38.4810 H     1722  10L1722     0.1890
     15  H5        41.5050    7.2160  -40.8840 H     1722  10L1722     0.0618
     16  H6        42.3390    4.9850  -40.2770 H     1722  10L1722     0.0625
     17  H1'       44.6900    3.6160  -39.0920 H     1722  10L1722     0.0854
@<TRIPOS>BOND
     1    15     5    1
     2    13     4    1
     3     5     4   ar
     4     5     6   ar
     5    16     6    1
     6     4     2   ar
     7     6     7   ar
     8    12     1    1
     9     2     1    1
    10     2     3   ar
    11     7     3   ar
    12     7     8   ar
    13     1    11    1
    14     3    10   ar
    15    17     8    1
    16     8     9   ar
    17    10     9   ar
    18    10    14    1
