@<TRIPOS>MOLECULE
4b6f_20L_A_1.pdb
 29 30 0 0 0
SMALL
GASTEIGER

@<TRIPOS>ATOM
      1  N13       -0.1500   14.8320  -43.5070 N.4   1722  20L1722     0.3808
      2  C15       -0.0610   14.5840  -42.0440 C.3   1722  20L1722    -0.0700
      3  C22        7.4920   13.5410  -37.9400 C.ar  1722  20L1722    -0.0615
      4  C21        7.9870   14.3760  -38.9220 C.ar  1722  20L1722    -0.0583
      5  C20        7.1440   15.2470  -39.5760 C.ar  1722  20L1722    -0.0193
      6  C19        5.7990   15.3030  -39.2350 C.ar  1722  20L1722     0.1284
      7  C18        5.2980   14.4360  -38.2760 C.ar  1722  20L1722    -0.0193
      8  C17        6.1500   13.5750  -37.6140 C.ar  1722  20L1722    -0.0583
      9  C23        1.2700   14.9940  -41.4660 C.ar  1722  20L1722    -0.0647
     10  C24        1.5460   16.3330  -41.2040 C.ar  1722  20L1722    -0.0569
     11  C25        2.7720   16.7120  -40.6960 C.ar  1722  20L1722    -0.0191
     12  C26        3.7240   15.7560  -40.3840 C.ar  1722  20L1722     0.1285
     13  C27        3.4750   14.4230  -40.6790 C.ar  1722  20L1722    -0.0191
     14  C28        2.2530   14.0430  -41.1960 C.ar  1722  20L1722    -0.0569
     15  O10        4.9590   16.1520  -39.9170 O.3   1722  20L1722    -0.4560
     16  H19       -0.3470   14.0470  -43.9510 H     1722  20L1722    -0.0896
     17  H29        0.6480   15.1570  -43.8240 H     1722  20L1722    -0.0896
     18  H39       -0.8070   15.4420  -43.6850 H     1722  20L1722    -0.0896
     19  H21        8.9130   14.3550  -39.1420 H     1722  20L1722     0.0619
     20  H25        2.9480   17.6290  -40.5110 H     1722  20L1722     0.0654
     21  H17        5.8120   12.9970  -36.9420 H     1722  20L1722     0.0619
     22  H18        4.3760   14.4680  -38.0440 H     1722  20L1722     0.0654
     23  H22        8.0760   12.9410  -37.4890 H     1722  20L1722     0.0618
     24  H24        0.8850   16.9920  -41.3890 H     1722  20L1722     0.0621
     25  H28        2.0760   13.1240  -41.3700 H     1722  20L1722     0.0621
     26  H27        4.1310   13.7710  -40.4950 H     1722  20L1722     0.0654
     27  H20        7.4830   15.8230  -40.2450 H     1722  20L1722     0.0654
     28  H51       -0.7810   15.0830  -41.6100 H     1722  20L1722     0.0097
     29  H52       -0.2110   13.6300  -41.8910 H     1722  20L1722     0.0097
@<TRIPOS>BOND
     1    16     1    1
     2    17     1    1
     3    18     1    1
     4     1     2    1
     5     2    29    1
     6     2    28    1
     7     2     9    1
     8     9    10   ar
     9     9    14   ar
    10    24    10    1
    11    25    14    1
    12    10    11   ar
    13    14    13   ar
    14    11    20    1
    15    11    12   ar
    16    13    26    1
    17    13    12   ar
    18    12    15    1
    19    27     5    1
    20    15     6    1
    21     5     6   ar
    22     5     4   ar
    23     6     7   ar
    24    19     4    1
    25     4     3   ar
    26     7    22    1
    27     7     8   ar
    28     3     8   ar
    29     3    23    1
    30     8    21    1
