@<TRIPOS>MOLECULE
4b6h_III_D_1.pdb
 13 13 0 0 0
SMALL
GASTEIGER

@<TRIPOS>ATOM
      1  N        -14.8170  -58.6440   49.0630 N.3   102  PRO102     -0.2102
      2  CA       -14.2010  -58.5390   47.7370 C.3   102  PRO102      0.1504
      3  C        -12.7610  -59.0400   47.7890 C.2   102  PRO102      0.2576
      4  O        -11.8900  -58.3440   48.3160 O.2   102  PRO102     -0.2718
      5  CB       -14.2100  -57.0290   47.4860 C.3   102  PRO102      0.0282
      6  CG       -14.0730  -56.4190   48.9120 C.3   102  PRO102      0.0208
      7  CD       -14.3970  -57.5230   49.9230 C.3   102  PRO102      0.0893
      8  N        -12.5240  -60.2300   47.2450 N.am  103  SER103     -0.1953
      9  CA       -11.2270  -60.9000   47.3580 C.3   103  SER103      0.1924
     10  C        -10.0400  -59.9360   47.5170 C.2   103  SER103      0.2314
     11  O         -8.9300  -60.3410   47.8800 O.2   103  SER103     -0.2863
     12  CB       -11.0120  -61.8280   46.1600 C.3   103  SER103      0.2116
     13  OG       -10.1600  -62.9080   46.4990 O.3   103  SER103     -0.2180
@<TRIPOS>BOND
     1    12    13    1
     2    12     9    1
     3     8     9    1
     4     8     3   am
     5     9    10    1
     6     5     2    1
     7     5     6    1
     8    10    11    2
     9     2     3    1
    10     2     1    1
    11     3     4    2
    12     6     7    1
    13     1     7    1
