@<TRIPOS>MOLECULE
4b6o_3DQ_A_1.pdb
 22 23 0 0 0
SMALL
GASTEIGER

@<TRIPOS>ATOM
      1  CAA      -52.1670  -29.4250   -7.6900 C.3   1144  3DQ1144     0.2525
      2  OAN      -51.2420  -28.9440   -6.6820 O.3   1144  3DQ1144    -0.4714
      3  CAR      -49.9080  -29.2470   -6.8040 C.ar  1144  3DQ1144     0.1387
      4  CAK      -49.3690  -29.8830   -7.9070 C.ar  1144  3DQ1144     0.0366
      5  CAI      -48.0060  -30.1570   -7.9810 C.ar  1144  3DQ1144    -0.0011
      6  CAJ      -49.0560  -28.9030   -5.7600 C.ar  1144  3DQ1144     0.0366
      7  CAH      -47.7000  -29.1840   -5.8220 C.ar  1144  3DQ1144    -0.0011
      8  CAQ      -47.1790  -29.8300   -6.9360 C.ar  1144  3DQ1144    -0.0215
      9  CAL      -45.6960  -30.1330   -6.9930 C.3   1144  3DQ1144     0.0368
     10  CAU      -44.8700  -28.8360   -7.1380 C.3   1144  3DQ1144     0.1032
     11  CAP      -45.2230  -28.1690   -8.4810 C.2   1144  3DQ1144     0.1862
     12  OAC      -45.9670  -27.1690   -8.5380 O.2   1144  3DQ1144    -0.2932
     13  CAT      -44.6370  -28.7950   -9.7530 C.3   1144  3DQ1144     0.2388
     14  OAF      -44.8850  -27.9660  -10.9130 O.3   1144  3DQ1144    -0.2124
     15  CAS      -43.1270  -29.0040   -9.5600 C.3   1144  3DQ1144     0.1924
     16  OAE      -42.6160  -29.6960  -10.7040 O.3   1144  3DQ1144    -0.2198
     17  CAM      -42.8330  -29.8340   -8.3050 C.3   1144  3DQ1144     0.0780
     18  CAV      -43.3140  -29.0840   -7.0440 C.3   1144  3DQ1144     0.2282
     19  CAO      -42.9860  -29.8570   -5.7510 C.2   1144  3DQ1144     0.3921
     20  OAB      -42.8180  -31.1090   -5.8300 O.co2 1144  3DQ1144    -0.2429
     21  OAD      -42.9140  -29.1860   -4.6820 O.co2 1144  3DQ1144    -0.2429
     22  OAG      -42.6360  -27.7790   -7.0150 O.3   1144  3DQ1144    -0.2136
@<TRIPOS>BOND
     1    14    13    1
     2    16    15    1
     3    13    15    1
     4    13    11    1
     5    15    17    1
     6    12    11    2
     7    11    10    1
     8    17    18    1
     9     5     4   ar
    10     5     8   ar
    11     4     3   ar
    12     1     2    1
    13    10    18    1
    14    10     9    1
    15    18    22    1
    16    18    19    1
    17     9     8    1
    18     8     7   ar
    19     3     2    1
    20     3     6   ar
    21    20    19   ar
    22     7     6   ar
    23    19    21   ar
