@<TRIPOS>MOLECULE
4b6p_2HN_A_1.pdb
 25 26 0 0 0
SMALL
GASTEIGER

@<TRIPOS>ATOM
      1  OAC       29.3860   42.9380    4.8760 O.co2 1145  2HN1145    -0.2429
      2  CAN       30.0220   42.9490    5.9320 C.2   1145  2HN1145     0.3921
      3  OAA       31.2750   42.8340    6.0500 O.co2 1145  2HN1145    -0.2429
      4  CAY       29.1690   43.2630    7.1710 C.3   1145  2HN1145     0.2282
      5  OAF       27.8840   42.6350    7.0220 O.3   1145  2HN1145    -0.2136
      6  CAM       29.9090   42.7860    8.4550 C.3   1145  2HN1145     0.0780
      7  CAV       29.0460   43.0850    9.6910 C.3   1145  2HN1145     0.1924
      8  OAD       29.7460   42.6720   10.8720 O.3   1145  2HN1145    -0.2198
      9  CAW       28.8220   44.6090    9.8050 C.3   1145  2HN1145     0.2388
     10  OAE       28.0440   44.9340   10.9620 O.3   1145  2HN1145    -0.2124
     11  CAO       28.2330   45.1690    8.4850 C.2   1145  2HN1145     0.1862
     12  OAB       27.3450   46.0200    8.4590 O.2   1145  2HN1145    -0.2932
     13  CAX       28.8620   44.7570    7.1580 C.3   1145  2HN1145     0.1034
     14  CAL       30.1230   45.5930    6.9310 C.3   1145  2HN1145     0.0415
     15  CAU       29.8280   47.0380    6.6220 C.ar  1145  2HN1145     0.0379
     16  CAT       29.6810   47.4700    5.3030 C.ar  1145  2HN1145     0.1679
     17  FAK       29.7750   46.6210    4.2740 F     1145  2HN1145    -0.2020
     18  CAR       29.4280   48.7870    5.0150 C.ar  1145  2HN1145     0.1967
     19  FAI       29.3070   49.1930    3.7370 F     1145  2HN1145    -0.1993
     20  CAP       29.3190   49.6660    6.0740 C.ar  1145  2HN1145     0.1991
     21  FAG       29.0870   50.9610    5.9400 F     1145  2HN1145    -0.1993
     22  CAQ       29.4620   49.2700    7.3570 C.ar  1145  2HN1145     0.1967
     23  FAH       29.3220   50.1970    8.3030 F     1145  2HN1145    -0.1993
     24  CAS       29.7210   47.9650    7.6630 C.ar  1145  2HN1145     0.1679
     25  FAJ       29.8460   47.6520    8.9780 F     1145  2HN1145    -0.2020
@<TRIPOS>BOND
     1    19    18    1
     2    17    16    1
     3     1     2   ar
     4    18    16   ar
     5    18    20   ar
     6    16    15   ar
     7     2     3   ar
     8     2     4    1
     9    21    20    1
    10    20    22   ar
    11    15    14    1
    12    15    24   ar
    13    14    13    1
    14     5     4    1
    15    13     4    1
    16    13    11    1
    17     4     6    1
    18    22    24   ar
    19    22    23    1
    20    24    25    1
    21     6     7    1
    22    12    11    2
    23    11     9    1
    24     7     9    1
    25     7     8    1
    26     9    10    1
