@<TRIPOS>MOLECULE
4b6q_BZ5_A_1.pdb
 23 25 0 0 0
SMALL
GASTEIGER

@<TRIPOS>ATOM
      1  CAK       18.7850    2.0030   36.0950 C.ar  1145  BZ51145     0.0075
      2  CAT       17.5020    1.7350   36.3290 C.ar  1145  BZ51145     0.0062
      3  CAI       16.5040    2.5880   36.8230 C.ar  1145  BZ51145    -0.0037
      4  CAH       15.2280    2.1240   36.9840 C.ar  1145  BZ51145    -0.0216
      5  CAR       14.9300    0.8050   36.5900 C.ar  1145  BZ51145    -0.0037
      6  CAJ       15.8890   -0.0610   36.0800 C.ar  1145  BZ51145     0.0062
      7  CAU       17.1750    0.4050   35.9460 C.ar  1145  BZ51145     0.0295
      8  SAO       18.5790   -0.3810   35.3420 S.2   1145  BZ51145    -0.0864
      9  CAS       19.5130    1.0090   35.6300 C.ar  1145  BZ51145     0.0354
     10  OAN       14.6370    4.0320   40.0500 O.2   1145  BZ51145    -0.2932
     11  CAQ       13.8110    3.1250   40.0510 C.2   1145  BZ51145     0.1862
     12  CAX       11.9030    2.4300   38.7040 C.3   1145  BZ51145     0.2282
     13  CAP       11.4200    1.6500   37.4850 C.2   1145  BZ51145     0.3921
     14  CA0       13.4340    2.4110   38.7620 C.3   1145  BZ51145     0.1032
     15  OAC       11.4720    0.4090   37.5480 O.co2 1145  BZ51145    -0.2429
     16  OAB       11.0520    2.3070   36.4950 O.co2 1145  BZ51145    -0.2429
     17  OAF       11.4780    3.8010   38.5940 O.3   1145  BZ51145    -0.2136
     18  CAM       11.3290    1.7900   39.9700 C.3   1145  BZ51145     0.0780
     19  CAV       11.6870    2.5790   41.2280 C.3   1145  BZ51145     0.1924
     20  OAD       11.1510    1.9240   42.4260 O.3   1145  BZ51145    -0.2198
     21  CAW       13.1930    2.6460   41.3620 C.3   1145  BZ51145     0.2388
     22  OAE       13.5540    3.5520   42.4580 O.3   1145  BZ51145    -0.2124
     23  CAA       14.1120    3.0220   37.5360 C.3   1145  BZ51145     0.0368
@<TRIPOS>BOND
     1     8     9   ar
     2     8     7   ar
     3     9     1   ar
     4     7     6   ar
     5     7     2   ar
     6     6     5   ar
     7     1     2   ar
     8     2     3   ar
     9    16    13   ar
    10     5     4   ar
    11     3     4   ar
    12     4    23    1
    13    13    15   ar
    14    13    12    1
    15    23    14    1
    16    17    12    1
    17    12    14    1
    18    12    18    1
    19    14    11    1
    20    18    19    1
    21    10    11    2
    22    11    21    1
    23    19    21    1
    24    19    20    1
    25    21    22    1
