@<TRIPOS>MOLECULE
4b6r_9ZT_A_1.pdb
 22 23 0 0 0
SMALL
GASTEIGER

@<TRIPOS>ATOM
      1  CAA       26.1420   50.1600  -20.2620 C.3   1158  9ZT1158     0.2525
      2  OAN       25.3160   49.1700  -19.6400 O.3   1158  9ZT1158    -0.4714
      3  CAR       25.0340   49.2360  -18.3020 C.ar  1158  9ZT1158     0.1387
      4  CAK       23.7080   49.2950  -17.8410 C.ar  1158  9ZT1158     0.0366
      5  CAI       23.4680   49.3630  -16.4530 C.ar  1158  9ZT1158    -0.0011
      6  CAJ       26.0880   49.2200  -17.3900 C.ar  1158  9ZT1158     0.0366
      7  CAH       25.8340   49.2860  -16.0150 C.ar  1158  9ZT1158    -0.0011
      8  CAQ       24.5310   49.3520  -15.5140 C.ar  1158  9ZT1158    -0.0215
      9  CAL       24.2990   49.4680  -13.9890 C.3   1158  9ZT1158     0.0368
     10  CAP       22.9370   47.6050  -13.7110 C.2   1158  9ZT1158     0.1862
     11  OAC       23.0160   46.7760  -14.6130 O.2   1158  9ZT1158    -0.2932
     12  CAT       21.6200   48.1050  -13.1510 C.3   1158  9ZT1158     0.2388
     13  CAU       24.2040   48.1720  -13.1770 C.3   1158  9ZT1158     0.1032
     14  OAF       20.5140   47.3330  -13.6510 O.3   1158  9ZT1158    -0.2124
     15  CAS       21.6370   48.1590  -11.6190 C.3   1158  9ZT1158     0.1924
     16  OAE       20.4340   48.7910  -11.2420 O.3   1158  9ZT1158    -0.2198
     17  CAM       22.8490   48.9920  -11.0860 C.3   1158  9ZT1158     0.0780
     18  CAV       24.1600   48.3560  -11.6340 C.3   1158  9ZT1158     0.2282
     19  CAO       25.3900   49.1260  -11.1960 C.2   1158  9ZT1158     0.3921
     20  OAB       25.2810   50.2850  -10.7250 O.co2 1158  9ZT1158    -0.2429
     21  OAD       26.4720   48.5440  -11.3410 O.co2 1158  9ZT1158    -0.2429
     22  OAG       24.2750   47.1250  -10.9260 O.3   1158  9ZT1158    -0.2136
@<TRIPOS>BOND
     1     1     2    1
     2     2     3    1
     3     3     4   ar
     4     3     6   ar
     5     4     5   ar
     6     6     7   ar
     7     5     8   ar
     8     7     8   ar
     9     8     9    1
    10    11    10    2
    11     9    13    1
    12    10    13    1
    13    10    12    1
    14    14    12    1
    15    13    18    1
    16    12    15    1
    17    18    19    1
    18    18    17    1
    19    18    22    1
    20    15    16    1
    21    15    17    1
    22    21    19   ar
    23    19    20   ar
