@<TRIPOS>MOLECULE
4b6s_2HN_A_1.pdb
 25 26 0 0 0
SMALL
GASTEIGER

@<TRIPOS>ATOM
      1  FAK       26.8880   48.9070  -15.2100 F     200  2HN200     -0.2020
      2  CAT       25.8030   48.8670  -16.0050 C.ar  200  2HN200      0.1679
      3  CAR       25.9910   48.6980  -17.3640 C.ar  200  2HN200      0.1967
      4  FAI       27.2120   48.5840  -17.8740 F     200  2HN200     -0.1993
      5  CAP       24.9280   48.6450  -18.2270 C.ar  200  2HN200      0.1991
      6  FAG       25.1120   48.4680  -19.5320 F     200  2HN200     -0.1993
      7  CAQ       23.6640   48.7410  -17.7260 C.ar  200  2HN200      0.1967
      8  FAH       22.6450   48.6830  -18.5810 F     200  2HN200     -0.1993
      9  CAS       23.4670   48.9230  -16.3810 C.ar  200  2HN200      0.1679
     10  FAJ       22.1970   49.0150  -15.9890 F     200  2HN200     -0.2020
     11  CAU       24.5240   48.9910  -15.4630 C.ar  200  2HN200      0.0379
     12  CAL       24.3220   49.2180  -13.9430 C.3   200  2HN200      0.0415
     13  CAX       24.1800   47.9400  -13.1240 C.3   200  2HN200      0.1034
     14  CAY       24.1230   48.1590  -11.6040 C.3   200  2HN200      0.2282
     15  OAF       24.2260   46.9210  -10.9170 O.3   200  2HN200     -0.2136
     16  CAN       25.3510   48.9740  -11.2690 C.2   200  2HN200      0.3921
     17  OAC       26.4230   48.3660  -11.2940 O.co2 200  2HN200     -0.2429
     18  OAA       25.1920   50.1640  -10.9830 O.co2 200  2HN200     -0.2429
     19  CAO       22.8630   47.3470  -13.5210 C.2   200  2HN200      0.1862
     20  OAB       22.9150   46.3940  -14.2890 O.2   200  2HN200     -0.2932
     21  CAW       21.5280   47.9440  -13.0000 C.3   200  2HN200      0.2388
     22  OAE       20.4050   47.2260  -13.5120 O.3   200  2HN200     -0.2124
     23  CAV       21.5600   48.0410  -11.4750 C.3   200  2HN200      0.1924
     24  OAD       20.4300   48.7930  -11.0820 O.3   200  2HN200     -0.2198
     25  CAM       22.8260   48.8580  -11.1160 C.3   200  2HN200      0.0780
@<TRIPOS>BOND
     1     6     5    1
     2     8     7    1
     3     5     7   ar
     4     5     3   ar
     5     4     3    1
     6     7     9   ar
     7     3     2   ar
     8     9    10    1
     9     9    11   ar
    10     2    11   ar
    11     2     1    1
    12    11    12    1
    13    20    19    2
    14    12    13    1
    15    19    13    1
    16    19    21    1
    17    22    21    1
    18    13    14    1
    19    21    23    1
    20    14    16    1
    21    14    25    1
    22    14    15    1
    23    23    25    1
    24    23    24    1
    25    17    16   ar
    26    16    18   ar
