@<TRIPOS>MOLECULE
4b71_DJL_A_1.pdb
 35 36 0 0 0
SMALL
GASTEIGER

@<TRIPOS>ATOM
      1  C1         7.7680   13.4270  -39.4550 C.ar  1721  DJL1721    -0.0583
      2  C2         7.1580   13.4280  -38.2140 C.ar  1721  DJL1721    -0.0615
      3  C3         5.8280   13.7970  -38.0940 C.ar  1721  DJL1721    -0.0583
      4  C4         5.1050   14.1660  -39.2150 C.ar  1721  DJL1721    -0.0193
      5  C5         5.7170   14.1650  -40.4640 C.ar  1721  DJL1721     0.1286
      6  C6         7.0530   13.7940  -40.5790 C.ar  1721  DJL1721    -0.0193
      7  O7         5.1250   14.5100  -41.6870 O.3   1721  DJL1721    -0.4517
      8  C8         3.8310   15.0160  -41.7490 C.ar  1721  DJL1721     0.1818
      9  C9         3.4620   16.3190  -41.3980 C.ar  1721  DJL1721     0.0860
     10  C10        2.1500   16.7420  -41.4900 C.ar  1721  DJL1721    -0.0394
     11  C11        1.1700   15.8830  -41.9320 C.ar  1721  DJL1721    -0.0558
     12  C12        1.4900   14.5790  -42.2910 C.ar  1721  DJL1721    -0.0229
     13  C13        2.8320   14.1670  -42.1910 C.ar  1721  DJL1721     0.1684
     14 CL1         4.6360   17.4580  -40.8330 Cl    1721  DJL1721    -0.0796
     15  N20        0.5340   12.2930  -42.1410 N.4   1721  DJL1721     0.3827
     16  C22        0.1150   14.7410  -45.0340 C.3   1721  DJL1721    -0.0665
     17  C23        0.4300   13.4730  -44.2950 C.3   1721  DJL1721    -0.0650
     18  F23        3.1500   12.9070  -42.5370 F     1721  DJL1721    -0.2014
     19  C30        0.4080   13.6340  -42.7790 C.3   1721  DJL1721    -0.0549
     20  H30       -0.4680   14.0020  -42.5160 H     1721  DJL1721     0.0133
     21 HN20       -0.2440   11.8170  -42.2520 H     1721  DJL1721    -0.0892
     22 HN2A        1.2250   11.8220  -42.5240 H     1721  DJL1721    -0.0892
     23 HN2B        0.6990   12.3830  -41.2400 H     1721  DJL1721    -0.0892
     24  H22        0.8920   15.3330  -45.0130 H     1721  DJL1721     0.0229
     25 H22A       -0.1080   14.5320  -45.9620 H     1721  DJL1721     0.0229
     26 H22B       -0.6430   15.1860  -44.6100 H     1721  DJL1721     0.0229
     27  H23       -0.2220   12.7880  -44.5490 H     1721  DJL1721     0.0250
     28  H28        1.3180   13.1610  -44.5660 H     1721  DJL1721     0.0250
     29  H11        0.2770   16.1800  -41.9910 H     1721  DJL1721     0.0621
     30  H10        1.9280   17.6210  -41.2480 H     1721  DJL1721     0.0633
     31  H4         4.1980   14.4170  -39.1320 H     1721  DJL1721     0.0654
     32  H3         5.4140   13.7970  -37.2450 H     1721  DJL1721     0.0619
     33  H2         7.6490   13.1770  -37.4470 H     1721  DJL1721     0.0618
     34  H1         8.6750   13.1750  -39.5350 H     1721  DJL1721     0.0619
     35  H6         7.4680   13.7930  -41.4220 H     1721  DJL1721     0.0654
@<TRIPOS>BOND
     1    25    16    1
     2    16    24    1
     3    16    26    1
     4    16    17    1
     5    28    17    1
     6    27    17    1
     7    17    19    1
     8    19    20    1
     9    19    12    1
    10    19    15    1
    11    18    13    1
    12    22    15    1
    13    12    13   ar
    14    12    11   ar
    15    21    15    1
    16    13     8   ar
    17    15    23    1
    18    29    11    1
    19    11    10   ar
    20     8     7    1
    21     8     9   ar
    22     7     5    1
    23    10     9   ar
    24    10    30    1
    25    35     6    1
    26     9    14    1
    27     6     5   ar
    28     6     1   ar
    29     5     4   ar
    30    34     1    1
    31     1     2   ar
    32     4    31    1
    33     4     3   ar
    34     2     3   ar
    35     2    33    1
    36     3    32    1
