@<TRIPOS>MOLECULE
4b73_4VA_A_1.pdb
 48 49 0 0 0
SMALL
GASTEIGER

@<TRIPOS>ATOM
      1  C1         0.0900   14.7230  -44.6530 C.3   1721  4VA1721    -0.0665
      2  C2         0.3370   13.5970  -43.7100 C.3   1721  4VA1721    -0.0645
      3  C3         0.2120   13.9940  -42.2420 C.3   1721  4VA1721    -0.0517
      4  H3        -0.5940   14.5390  -42.1410 H     1721  4VA1721     0.0139
      5  N5         0.0390   12.7450  -41.4160 N.4   1721  4VA1721     0.3856
      6  HN5        0.6410   12.1150  -41.7270 H     1721  4VA1721    -0.0846
      7  H7         0.2640   12.9470  -40.5500 H     1721  4VA1721    -0.0846
      8  C8        -1.3280   12.1080  -41.4030 C.3   1721  4VA1721    -0.0746
      9  H8        -1.6090   11.9700  -42.3360 H     1721  4VA1721     0.0092
     10  C10       -1.2660   10.7500  -40.7120 C.3   1721  4VA1721    -0.0775
     11  C11       -2.3040   13.0670  -40.7370 C.3   1721  4VA1721     0.0111
     12  C12       -1.9570   13.3170  -39.2990 C.2   1721  4VA1721     0.2089
     13  O13       -0.8030   13.4170  -38.9530 O.2   1721  4VA1721    -0.2761
     14  N14       -2.9780   13.4060  -38.4560 N.am  1721  4VA1721    -0.3294
     15  C15        1.3840   14.8280  -41.7740 C.ar  1721  4VA1721    -0.0224
     16  C16        1.1900   16.1430  -41.3940 C.ar  1721  4VA1721    -0.0558
     17  C17        2.2520   16.9070  -40.9780 C.ar  1721  4VA1721    -0.0394
     18  C18        3.5160   16.3620  -40.9350 C.ar  1721  4VA1721     0.0860
     19 CL          4.8220   17.3540  -40.3950 Cl    1721  4VA1721    -0.0796
     20  C20        3.7260   15.0480  -41.2970 C.ar  1721  4VA1721     0.1818
     21  O21        4.9770   14.5010  -41.2760 O.3   1721  4VA1721    -0.4517
     22  C22        5.6700   14.2380  -40.1190 C.ar  1721  4VA1721     0.1286
     23  C23        5.0310   14.2550  -38.8950 C.ar  1721  4VA1721    -0.0193
     24  C24        5.7370   13.9820  -37.7540 C.ar  1721  4VA1721    -0.0583
     25  C25        7.0880   13.6810  -37.8260 C.ar  1721  4VA1721    -0.0615
     26  C26        7.7270   13.6600  -39.0410 C.ar  1721  4VA1721    -0.0583
     27  C27        7.0260   13.9400  -40.1880 C.ar  1721  4VA1721    -0.0193
     28  C28        2.6750   14.3010  -41.7210 C.ar  1721  4VA1721     0.1684
     29  F          2.8870   13.0280  -42.0830 F     1721  4VA1721    -0.2014
     30  H1         0.8250   15.3580  -44.6060 H     1721  4VA1721     0.0229
     31  H1A        0.0190   14.3820  -45.5620 H     1721  4VA1721     0.0229
     32  H1B       -0.7390   15.1750  -44.4160 H     1721  4VA1721     0.0229
     33  H2        -0.3040   12.8830  -43.8990 H     1721  4VA1721     0.0250
     34  H2A        1.2350   13.2460  -43.8680 H     1721  4VA1721     0.0250
     35  H10       -0.4840   10.7120  -40.1340 H     1721  4VA1721     0.0214
     36  H36       -2.0670   10.6180  -40.1770 H     1721  4VA1721     0.0214
     37  H37       -1.2070   10.0470  -41.3780 H     1721  4VA1721     0.0214
     38  H11       -2.3030   13.9180  -41.2150 H     1721  4VA1721     0.0342
     39  H39       -3.2060   12.6900  -40.7830 H     1721  4VA1721     0.0342
     40  H40       -3.8000   13.3450  -38.7560 H     1721  4VA1721     0.1449
     41  H41       -2.8240   13.5290  -37.5790 H     1721  4VA1721     0.1449
     42  H16        0.3230   16.5170  -41.4260 H     1721  4VA1721     0.0621
     43  H17        2.1180   17.8010  -40.7170 H     1721  4VA1721     0.0633
     44  H23        4.1090   14.4560  -38.8450 H     1721  4VA1721     0.0654
     45  H24        5.3000   13.9940  -36.9140 H     1721  4VA1721     0.0619
     46  H25        7.5730   13.4950  -37.0340 H     1721  4VA1721     0.0618
     47  H26        8.6520   13.4590  -39.0880 H     1721  4VA1721     0.0619
     48  H27        7.4610   13.9220  -41.0270 H     1721  4VA1721     0.0654
@<TRIPOS>BOND
     1    31     1    1
     2     1    30    1
     3     1    32    1
     4     1     2    1
     5    33     2    1
     6    34     2    1
     7     2     3    1
     8     9     8    1
     9     3     4    1
    10     3    15    1
    11     3     5    1
    12    29    28    1
    13    15    28   ar
    14    15    16   ar
    15     6     5    1
    16    28    20   ar
    17    42    16    1
    18     5     8    1
    19     5     7    1
    20     8    11    1
    21     8    10    1
    22    16    17   ar
    23    37    10    1
    24    20    21    1
    25    20    18   ar
    26    21    22    1
    27    38    11    1
    28    48    27    1
    29    17    18   ar
    30    17    43    1
    31    18    19    1
    32    39    11    1
    33    11    12    1
    34    10    36    1
    35    10    35    1
    36    27    22   ar
    37    27    26   ar
    38    22    23   ar
    39    12    13    2
    40    12    14   am
    41    47    26    1
    42    26    25   ar
    43    23    44    1
    44    23    24   ar
    45    40    14    1
    46    14    41    1
    47    25    24   ar
    48    25    46    1
    49    24    45    1
