@<TRIPOS>MOLECULE
4b75_4VA_A_1.pdb
 48 49 0 0 0
SMALL
GASTEIGER

@<TRIPOS>ATOM
      1  F          3.2470   13.2740  -41.4480 F     1721  4VA1721    -0.2014
      2 CL          5.1940   17.5430  -39.5590 Cl    1721  4VA1721    -0.0796
      3  C1         0.4530   15.1660  -44.1150 C.3   1721  4VA1721    -0.0665
      4  C2         0.6930   13.9960  -43.2170 C.3   1721  4VA1721    -0.0645
      5  C3         0.5680   14.3380  -41.7370 C.3   1721  4VA1721    -0.0517
      6  N5         0.3530   13.0670  -40.9550 N.4   1721  4VA1721     0.3856
      7  C8        -1.0350   12.4790  -40.9140 C.3   1721  4VA1721    -0.0746
      8  C10       -0.9730   11.0510  -40.3870 C.3   1721  4VA1721    -0.0775
      9  C11       -1.9760   13.3620  -40.0870 C.3   1721  4VA1721     0.0111
     10  C12       -1.5390   13.5740  -38.6560 C.2   1721  4VA1721     0.2089
     11  O13       -0.3590   13.7730  -38.3760 O.2   1721  4VA1721    -0.2761
     12  N14       -2.4900   13.5330  -37.7460 N.am  1721  4VA1721    -0.3294
     13  C15        1.7540   15.1190  -41.1930 C.ar  1721  4VA1721    -0.0224
     14  C16        1.5840   16.4410  -40.7940 C.ar  1721  4VA1721    -0.0558
     15  C17        2.6480   17.1650  -40.2970 C.ar  1721  4VA1721    -0.0394
     16  C18        3.8940   16.5840  -40.1910 C.ar  1721  4VA1721     0.0860
     17  C20        4.1080   15.2610  -40.5790 C.ar  1721  4VA1721     0.1818
     18  O21        5.3320   14.6140  -40.5000 O.3   1721  4VA1721    -0.4517
     19  C22        5.9100   14.3210  -39.2660 C.ar  1721  4VA1721     0.1286
     20  C23        5.2860   14.4340  -38.0380 C.ar  1721  4VA1721    -0.0193
     21  C24        5.9710   14.1110  -36.8810 C.ar  1721  4VA1721    -0.0583
     22  C25        7.2730   13.6750  -36.9460 C.ar  1721  4VA1721    -0.0615
     23  C26        7.9000   13.5610  -38.1680 C.ar  1721  4VA1721    -0.0583
     24  C27        7.2180   13.8840  -39.3310 C.ar  1721  4VA1721    -0.0193
     25  C28        3.0380   14.5480  -41.0740 C.ar  1721  4VA1721     0.1684
     26  H3        -0.2350   14.8950  -41.6270 H     1721  4VA1721     0.0139
     27  HN5        0.9150   12.4280  -41.3040 H     1721  4VA1721    -0.0846
     28 HN5A        0.6140   13.2230  -40.0950 H     1721  4VA1721    -0.0846
     29  H8        -1.3670   12.4480  -41.8410 H     1721  4VA1721     0.0092
     30  H1         1.1260   15.8530  -43.9440 H     1721  4VA1721     0.0229
     31  H1A        0.5110   14.8800  -45.0480 H     1721  4VA1721     0.0229
     32  H1B       -0.4360   15.5330  -43.9440 H     1721  4VA1721     0.0229
     33  H2         0.0480   13.2930  -43.4330 H     1721  4VA1721     0.0250
     34  H2A        1.5900   13.6450  -43.3850 H     1721  4VA1721     0.0250
     35  H10       -0.2460   10.9730  -39.7420 H     1721  4VA1721     0.0214
     36 H10A       -1.8190   10.8270  -39.9520 H     1721  4VA1721     0.0214
     37 H10B       -0.8170   10.4370  -41.1290 H     1721  4VA1721     0.0214
     38  H11       -2.0500   14.2350  -40.5220 H     1721  4VA1721     0.0342
     39 H11A       -2.8660   12.9540  -40.0840 H     1721  4VA1721     0.0342
     40 HN14       -3.3280   13.4000  -37.9850 H     1721  4VA1721     0.1449
     41 HN1A       -2.2820   13.6390  -36.8840 H     1721  4VA1721     0.1449
     42  H16        0.7370   16.8430  -40.8630 H     1721  4VA1721     0.0621
     43  H17        2.5250   18.0590  -40.0290 H     1721  4VA1721     0.0633
     44  H23        4.3910   14.7330  -37.9890 H     1721  4VA1721     0.0654
     45  H24        5.5420   14.1890  -36.0420 H     1721  4VA1721     0.0619
     46  H25        7.7390   13.4550  -36.1540 H     1721  4VA1721     0.0618
     47  H26        8.7940   13.2620  -38.2120 H     1721  4VA1721     0.0619
     48  H27        7.6430   13.8050  -40.1590 H     1721  4VA1721     0.0654
@<TRIPOS>BOND
     1    31     3    1
     2     3    30    1
     3     3    32    1
     4     3     4    1
     5    33     4    1
     6    34     4    1
     7     4     5    1
     8    29     7    1
     9     5    26    1
    10     5    13    1
    11     5     6    1
    12     1    25    1
    13    27     6    1
    14    13    25   ar
    15    13    14   ar
    16    37     8    1
    17    25    17   ar
    18     6     7    1
    19     6    28    1
    20     7     8    1
    21     7     9    1
    22    42    14    1
    23    14    15   ar
    24    17    18    1
    25    17    16   ar
    26    38     9    1
    27    18    19    1
    28     8    36    1
    29     8    35    1
    30    15    16   ar
    31    15    43    1
    32    16     2    1
    33    48    24    1
    34     9    39    1
    35     9    10    1
    36    24    19   ar
    37    24    23   ar
    38    19    20   ar
    39    10    11    2
    40    10    12   am
    41    47    23    1
    42    23    22   ar
    43    20    44    1
    44    20    21   ar
    45    40    12    1
    46    12    41    1
    47    22    21   ar
    48    22    46    1
    49    21    45    1
