@<TRIPOS>MOLECULE
4b76_PW1_A_1.pdb
 29 30 0 0 0
SMALL
GASTEIGER

@<TRIPOS>ATOM
      1  C6         1.6890   16.2410  -41.6570 C.ar  1721  PW11721    -0.0548
      2  C5         2.6250   17.2050  -41.3700 C.ar  1721  PW11721    -0.0224
      3  C4         3.9390   16.8510  -41.2380 C.ar  1721  PW11721     0.1683
      4  F          4.8460   17.8070  -40.9570 F     1721  PW11721    -0.2015
      5  C3         4.3740   15.5550  -41.3820 C.ar  1721  PW11721     0.1986
      6  C8         3.4180   14.5950  -41.6710 C.ar  1721  PW11721     0.1696
      7  C7         2.0770   14.9160  -41.8110 C.ar  1721  PW11721    -0.0258
      8  C2         1.0330   13.8670  -42.1270 C.3   1721  PW11721    -0.0672
      9  N3         1.2490   13.2160  -43.4380 N.4   1721  PW11721     0.3808
     10  C13        8.2200   13.8480  -39.0380 C.ar  1721  PW11721    -0.0583
     11  C12        7.5890   14.4170  -40.1230 C.ar  1721  PW11721    -0.0193
     12  C11        6.2320   14.6850  -40.0720 C.ar  1721  PW11721     0.1287
     13  C10        5.5100   14.3800  -38.9300 C.ar  1721  PW11721    -0.0193
     14  O12        5.7260   15.2590  -41.2360 O.3   1721  PW11721    -0.4502
     15  C9         6.1470   13.8110  -37.8480 C.ar  1721  PW11721    -0.0583
     16  F2         3.8040   13.3140  -41.8190 F     1721  PW11721    -0.2013
     17  C14        7.4990   13.5450  -37.9010 C.ar  1721  PW11721    -0.0615
     18  H21        0.1480   14.2790  -42.1310 H     1721  PW11721     0.0098
     19  H22        1.0440   13.1770  -41.4340 H     1721  PW11721     0.0098
     20  H6         0.7790   16.4790  -41.7490 H     1721  PW11721     0.0621
     21  H5         2.3660   18.1020  -41.2650 H     1721  PW11721     0.0647
     22  H10        4.5830   14.5620  -38.8920 H     1721  PW11721     0.0654
     23  H9         5.6580   13.6030  -37.0710 H     1721  PW11721     0.0619
     24  H14        7.9310   13.1550  -37.1590 H     1721  PW11721     0.0618
     25  H13        9.1460   13.6650  -39.0720 H     1721  PW11721     0.0619
     26  H12        8.0820   14.6250  -40.9010 H     1721  PW11721     0.0654
     27  H31        1.9980   12.7030  -43.4150 H     1721  PW11721    -0.0896
     28  H32        1.3360   13.8430  -44.0870 H     1721  PW11721    -0.0896
     29  H33        0.5330   12.6790  -43.6450 H     1721  PW11721    -0.0896
@<TRIPOS>BOND
     1    28     9    1
     2    29     9    1
     3     9    27    1
     4     9     8    1
     5    18     8    1
     6     8     7    1
     7     8    19    1
     8    16     6    1
     9     7     6   ar
    10     7     1   ar
    11    20     1    1
    12     6     5   ar
    13     1     2   ar
    14     5     3   ar
    15     5    14    1
    16     2    21    1
    17     2     3   ar
    18     3     4    1
    19    14    12    1
    20    26    11    1
    21    11    12   ar
    22    11    10   ar
    23    12    13   ar
    24    25    10    1
    25    10    17   ar
    26    13    22    1
    27    13    15   ar
    28    17    15   ar
    29    17    24    1
    30    15    23    1
