@<TRIPOS>MOLECULE
4b79_NAD_A_1.pdb
 44 48 0 0 0
SMALL
GASTEIGER

@<TRIPOS>ATOM
      1  PA         4.8550  -59.6510   19.2680 P.3   1242  NAD1242     0.2189
      2  O1A        5.7950  -60.6430   18.6430 O.2   1242  NAD1242    -0.5170
      3  O2A        5.0530  -59.2390   20.7040 O.3   1242  NAD1242    -0.4371
      4  O5B        3.3650  -60.2090   19.0890 O.3   1242  NAD1242    -0.3112
      5  C5B        3.0640  -61.2100   18.1160 C.3   1242  NAD1242     0.1813
      6  C4B        1.6970  -61.7700   18.4750 C.3   1242  NAD1242     0.1821
      7  O4B        1.0970  -62.4280   17.3500 O.3   1242  NAD1242    -0.3135
      8  C3B        1.8520  -62.7970   19.5850 C.3   1242  NAD1242     0.2184
      9  O3B        0.6800  -62.7740   20.4140 O.3   1242  NAD1242    -0.2174
     10  C2B        1.9660  -64.0780   18.8010 C.3   1242  NAD1242     0.2570
     11  O2B        1.6350  -65.2220   19.5810 O.3   1242  NAD1242    -0.2130
     12  C1B        0.9410  -63.7970   17.7080 C.3   1242  NAD1242     0.3186
     13  N9A        1.1440  -64.7670   16.6260 N.pl3 1242  NAD1242    -0.1439
     14  C8A        2.2740  -65.0030   15.9320 C.3   1242  NAD1242     0.3377
     15  N7A        2.0630  -66.0250   15.0560 N.2   1242  NAD1242    -0.2095
     16  C5A        0.7860  -66.4500   15.2220 C.2   1242  NAD1242     0.2526
     17  C6A       -0.0860  -67.4900   14.6420 C.2   1242  NAD1242     0.4393
     18  N6A        0.3890  -68.2970   13.6690 N.pl3 1242  NAD1242     0.2180
     19  N1A       -1.3590  -67.5980   15.1100 N.2   1242  NAD1242     0.0021
     20  C2A       -1.8340  -66.7930   16.0850 C.3   1242  NAD1242     0.5254
     21  N3A       -1.0990  -65.8210   16.6580 N.2   1242  NAD1242    -0.0055
     22  C4A        0.1890  -65.6150   16.2680 C.2   1242  NAD1242     0.3518
     23  O3         4.8380  -58.3950   18.2940 O.3   1242  NAD1242    -0.2703
     24  PN         4.0540  -57.0120   18.3990 P.3   1242  NAD1242     0.2189
     25  O1N        3.1110  -56.8530   19.5510 O.3   1242  NAD1242    -0.4371
     26  O2N        5.1610  -56.0170   18.2230 O.2   1242  NAD1242    -0.5170
     27  O5D        3.2230  -57.0640   17.0430 O.3   1242  NAD1242    -0.3112
     28  C5D        1.8140  -56.9130   16.9660 C.3   1242  NAD1242     0.1813
     29  C4D        1.4530  -56.2970   15.6330 C.3   1242  NAD1242     0.1799
     30  O4D        1.8890  -54.9310   15.5560 O.3   1242  NAD1242    -0.3327
     31  C3D        2.0220  -57.0240   14.4160 C.3   1242  NAD1242     0.2158
     32  O3D        1.0170  -57.0250   13.3730 O.3   1242  NAD1242    -0.2175
     33  C2D        3.1880  -56.1350   14.0090 C.3   1242  NAD1242     0.2309
     34  O2D        3.4780  -56.2330   12.6160 O.3   1242  NAD1242    -0.2158
     35  C1D        2.6310  -54.7560   14.3400 C.3   1242  NAD1242     0.2263
     36  N1N        3.6290  -53.6990   14.5040 N.pl3 1242  NAD1242    -0.2787
     37  C2N        4.5070  -53.7500   15.5120 C.3   1242  NAD1242     0.1244
     38  C3N        5.4450  -52.7220   15.6810 C.2   1242  NAD1242     0.0544
     39  C7N        6.4660  -52.7260   16.7820 C.2   1242  NAD1242     0.2818
     40  O7N        7.2120  -51.7690   16.8790 O.2   1242  NAD1242    -0.2670
     41  N7N        6.5410  -53.7240   17.6480 N.am  1242  NAD1242    -0.0839
     42  C4N        5.4400  -51.6460   14.7940 C.2   1242  NAD1242     0.0033
     43  C5N        4.5020  -51.6040   13.7720 C.2   1242  NAD1242     0.0157
     44  C6N        3.5950  -52.6560   13.6550 C.2   1242  NAD1242     0.0633
@<TRIPOS>BOND
     1    34    33    1
     2    32    31    1
     3    44    43    2
     4    44    36    1
     5    18    17    1
     6    43    42    1
     7    33    35    1
     8    33    31    1
     9    35    36    1
    10    35    30    1
    11    31    29    1
    12    36    37    1
    13    17    19    2
    14    17    16    1
    15    42    38    2
    16    15    16    2
    17    15    14    1
    18    19    20    1
    19    16    22    1
    20    37    38    1
    21    30    29    1
    22    29    28    1
    23    38    39    1
    24    14    13    1
    25    20    21    1
    26    22    13    1
    27    22    21    2
    28    13    12    1
    29    39    40    2
    30    39    41   am
    31    28    27    1
    32    27    24    1
    33     7    12    1
    34     7     6    1
    35    12    10    1
    36     5     6    1
    37     5     4    1
    38    26    24    2
    39    23    24    1
    40    23     1    1
    41    24    25    1
    42     6     8    1
    43     2     1    2
    44    10    11    1
    45    10     8    1
    46     4     1    1
    47     1     3    1
    48     8     9    1
