@<TRIPOS>MOLECULE
4b7i_BMA_A_1.pdb
 11 11 0 0 0
SMALL
GASTEIGER

@<TRIPOS>ATOM
      1  O6        -4.6110   -4.7670  -12.4590 O.3   1447  BMA1447    -0.2176
      2  C1        -4.5060   -4.8550   -8.1500 C.3   1447  BMA1447     0.1777
      3  C2        -4.2490   -3.3490   -8.0880 C.3   1447  BMA1447     0.2141
      4  C3        -5.3110   -2.5970   -8.8930 C.3   1447  BMA1447     0.2173
      5  C4        -5.3310   -3.1460  -10.3110 C.3   1447  BMA1447     0.2142
      6  C5        -5.5930   -4.6500  -10.2500 C.3   1447  BMA1447     0.1810
      7  C6        -5.6630   -5.2700  -11.6350 C.3   1447  BMA1447     0.2141
      8  O2        -2.9420   -3.0630   -8.6030 O.3   1447  BMA1447    -0.2176
      9  O3        -5.0760   -1.1750   -8.9020 O.3   1447  BMA1447    -0.2175
     10  O4        -6.3530   -2.5070  -11.0770 O.3   1447  BMA1447    -0.2176
     11  O5        -4.5710   -5.3000   -9.4970 O.3   1447  BMA1447    -0.3481
@<TRIPOS>BOND
     1     1     7    1
     2     7     6    1
     3    10     5    1
     4     5     6    1
     5     5     4    1
     6     6    11    1
     7    11     2    1
     8     9     4    1
     9     4     3    1
    10     8     3    1
    11     2     3    1
