@<TRIPOS>MOLECULE
4b7i_FUC_A_1.pdb
 10 10 0 0 0
SMALL
GASTEIGER

@<TRIPOS>ATOM
      1  C1        -0.7230  -13.7910   -6.6670 C.3   1451  FUC1451     0.1776
      2  C2         0.3990  -13.3770   -7.6250 C.3   1451  FUC1451     0.2141
      3  C3         1.5150  -12.6900   -6.8200 C.3   1451  FUC1451     0.2172
      4  C4         2.0440  -13.6260   -5.7420 C.3   1451  FUC1451     0.2116
      5  C5         0.8800  -14.0850   -4.8740 C.3   1451  FUC1451     0.1483
      6  C6         1.2970  -15.1070   -3.8220 C.3   1451  FUC1451     0.0349
      7  O2        -0.1110  -12.5270   -8.6260 O.3   1451  FUC1451    -0.2176
      8  O3         2.5880  -12.3120   -7.6510 O.3   1451  FUC1451    -0.2175
      9  O4         2.6410  -14.7490   -6.3580 O.3   1451  FUC1451    -0.2177
     10  O5        -0.0720  -14.6710   -5.7450 O.3   1451  FUC1451    -0.3508
@<TRIPOS>BOND
     1     7     2    1
     2     8     3    1
     3     2     3    1
     4     2     1    1
     5     3     4    1
     6     1    10    1
     7     9     4    1
     8    10     5    1
     9     4     5    1
    10     5     6    1
