@<TRIPOS>MOLECULE
4b7j_5AX_A_1.pdb
 14 14 0 0 0
SMALL
GASTEIGER

@<TRIPOS>ATOM
      1  C4        31.3390    4.9790   51.7240 C.3   501  5AX501      0.2134
      2  C5        32.4310    4.0930   51.1180 C.3   501  5AX501      0.1809
      3  C6        32.6660    2.8740   52.0020 C.3   501  5AX501      0.2141
      4  C7        28.8090    6.0750   47.8720 C.2   501  5AX501      0.2420
      5  C8        28.4350    6.9650   46.7240 C.3   501  5AX501      0.0964
      6  C1        31.8570    4.7260   48.9240 C.3   501  5AX501      0.1665
      7  C2        30.5580    5.3560   49.3940 C.3   501  5AX501      0.1576
      8  C3        30.8110    6.0200   50.7390 C.3   501  5AX501      0.2069
      9  N2        30.0150    6.2710   48.4060 N.am  501  5AX501     -0.2019
     10  O3        29.6130    6.5840   51.2250 O.3   501  5AX501     -0.2184
     11  O4        31.8660    5.6270   52.8630 O.3   501  5AX501     -0.2176
     12  O5        32.1280    3.6600   49.8050 O.3   501  5AX501     -0.3489
     13  O6        32.9970    3.3000   53.3050 O.3   501  5AX501     -0.2176
     14  O7        28.0210    5.2190   48.2770 O.2   501  5AX501     -0.2733
@<TRIPOS>BOND
     1     5     4    1
     2     4    14    2
     3     4     9   am
     4     9     7    1
     5     6     7    1
     6     6    12    1
     7     7     8    1
     8    12     2    1
     9     8    10    1
    10     8     1    1
    11     2     1    1
    12     2     3    1
    13     1    11    1
    14     3    13    1
