@<TRIPOS>MOLECULE
4b7j_G39_A_1.pdb
 20 20 0 0 0
SMALL
GASTEIGER

@<TRIPOS>ATOM
      1  C1        28.9340   -5.5650   11.8320 C.2   1470  G391470     0.3644
      2  O1A       29.7840   -4.6730   11.6030 O.co2 1470  G391470    -0.2457
      3  O1B       27.7010   -5.2850   11.7910 O.co2 1470  G391470    -0.2457
      4  C2        29.3720   -6.9820   12.1710 C.3   1470  G391470     0.1074
      5  C3        30.7800   -6.9540   12.6950 C.3   1470  G391470     0.0322
      6  C4        31.0620   -7.8390   13.8680 C.3   1470  G391470     0.1146
      7  C5        30.1770   -9.0360   13.8980 C.3   1470  G391470     0.1398
      8  N5        30.5290   -9.8660   15.0460 N.am  1470  G391470    -0.2032
      9  C10       30.9970  -11.2220   14.8760 C.2   1470  G391470     0.2419
     10  O10       31.1110  -11.6980   13.7610 O.2   1470  G391470    -0.2733
     11  C11       31.3450  -12.0410   16.0930 C.3   1470  G391470     0.0964
     12  C6        28.7450   -8.6330   14.0390 C.3   1470  G391470     0.1369
     13  C7        28.3260   -7.5590   13.0850 C.3   1470  G391470     0.0427
     14  O7        27.9120   -9.7560   13.8850 O.3   1470  G391470    -0.3569
     15  C8        27.1360  -10.2160   14.9680 C.3   1470  G391470     0.1152
     16  C9        26.1610   -9.1810   15.5290 C.3   1470  G391470     0.0296
     17  C81       26.5080  -11.5760   14.7160 C.3   1470  G391470     0.0296
     18  C82       27.4420  -12.7560   14.6270 C.3   1470  G391470     0.0026
     19  C91       25.0590   -8.6950   14.6300 C.3   1470  G391470     0.0026
     20  N4        32.4550   -8.2690   13.8310 N.3   1470  G391470    -0.1310
@<TRIPOS>BOND
     1     2     1   ar
     2     3     1   ar
     3     1     4    1
     4     4     5    1
     5     4    13    1
     6     5     6    1
     7    13    12    1
     8    10     9    2
     9    20     6    1
    10     6     7    1
    11    14    12    1
    12    14    15    1
    13     7    12    1
    14     7     8    1
    15    18    17    1
    16    19    16    1
    17    17    15    1
    18     9     8   am
    19     9    11    1
    20    15    16    1
