@<TRIPOS>MOLECULE
4b7n_ZMR_A_1.pdb
 23 23 0 0 0
SMALL
GASTEIGER

@<TRIPOS>ATOM
      1  C1        29.0600   -5.5790   12.0760 C.2   601  ZMR601      0.3914
      2  O1A       29.9370   -4.7960   11.6480 O.co2 601  ZMR601     -0.2430
      3  O1B       27.8400   -5.3200   11.9730 O.co2 601  ZMR601     -0.2430
      4  C2        29.4410   -6.8380   12.7170 C.3   601  ZMR601      0.2213
      5  C3        30.7140   -7.1040   13.0790 C.3   601  ZMR601      0.0864
      6  C4        31.0100   -8.1110   14.1760 C.3   601  ZMR601      0.2063
      7  C5        29.9420   -9.2110   14.1660 C.3   601  ZMR601      0.1646
      8  N5        30.1120  -10.1330   15.2820 N.am  601  ZMR601     -0.2010
      9  C10       30.5420  -11.3930   15.1360 C.2   601  ZMR601      0.2420
     10  O10       30.7420  -11.9130   14.0490 O.2   601  ZMR601     -0.2733
     11  C11       30.7690  -12.1540   16.4100 C.3   601  ZMR601      0.0964
     12  C6        28.5490   -8.5730   14.1620 C.3   601  ZMR601      0.1719
     13  O6        28.3900   -7.8170   12.9580 O.3   601  ZMR601     -0.3429
     14  C7        27.4030   -9.5790   14.2360 C.3   601  ZMR601      0.2135
     15  O7        27.4290  -10.4030   13.0630 O.3   601  ZMR601     -0.2176
     16  C8        26.0500   -8.8670   14.3450 C.3   601  ZMR601      0.2173
     17  O8        25.8900   -8.2910   15.6460 O.3   601  ZMR601     -0.2175
     18  C9        24.8720   -9.8000   14.0870 C.3   601  ZMR601      0.2175
     19  O9        24.9010  -10.8780   15.0300 O.3   601  ZMR601     -0.2175
     20  NE        32.3000   -8.7680   13.9710 N.pl3 601  ZMR601     -0.0882
     21  CZ        33.0960   -9.0750   14.9120 C.cat 601  ZMR601      0.5345
     22  NH1       34.2510   -9.6720   14.6170 N.pl3 601  ZMR601      0.1354
     23  NH2       32.8010   -8.8210   16.1910 N.pl3 601  ZMR601      0.1354
@<TRIPOS>BOND
     1     2     1   ar
     2     3     1   ar
     3     1     4    1
     4     4    13    1
     5     4     5    1
     6    13    12    1
     7    15    14    1
     8     5     6    1
     9    20     6    1
    10    20    21    2
    11    10     9    2
    12    18    16    1
    13    18    19    1
    14    12     7    1
    15    12    14    1
    16     7     6    1
    17     7     8    1
    18    14    16    1
    19    16    17    1
    20    22    21    1
    21    21    23    1
    22     9     8   am
    23     9    11    1
