@<TRIPOS>MOLECULE
4b7q_ZMR_A_1.pdb
 23 23 0 0 0
SMALL
GASTEIGER

@<TRIPOS>ATOM
      1  C1        26.7390   20.1080  -39.9700 C.2   601  ZMR601      0.3914
      2  O1A       27.1130   18.9470  -39.6960 O.co2 601  ZMR601     -0.2430
      3  O1B       27.5990   21.0150  -40.1590 O.co2 601  ZMR601     -0.2430
      4  C2        25.4070   20.4050  -40.0410 C.3   601  ZMR601      0.2213
      5  C3        24.5170   19.2330  -40.5010 C.3   601  ZMR601      0.0864
      6  C4        23.1250   19.6520  -40.6420 C.3   601  ZMR601      0.2063
      7  C5        22.9510   20.7200  -41.5440 C.3   601  ZMR601      0.1646
      8  N5        21.4620   21.1630  -41.5760 N.am  601  ZMR601     -0.2010
      9  C10       20.5540   20.8030  -42.6440 C.2   601  ZMR601      0.2420
     10  O10       20.9310   20.1270  -43.5770 O.2   601  ZMR601     -0.2733
     11  C11       19.1130   21.2540  -42.5970 C.3   601  ZMR601      0.0964
     12  C6        23.7770   21.8730  -41.2230 C.3   601  ZMR601      0.1719
     13  O6        25.1610   21.5280  -40.9960 O.3   601  ZMR601     -0.3429
     14  C7        23.7100   22.8880  -42.3640 C.3   601  ZMR601      0.2135
     15  O7        24.3250   22.3900  -43.5130 O.3   601  ZMR601     -0.2176
     16  C8        24.3450   24.2000  -41.9750 C.3   601  ZMR601      0.2173
     17  O8        23.6070   24.7980  -40.9790 O.3   601  ZMR601     -0.2175
     18  C9        24.4450   25.1510  -43.1350 C.3   601  ZMR601      0.2175
     19  O9        23.2640   25.6690  -43.6700 O.3   601  ZMR601     -0.2175
     20  NE        22.3190   18.4110  -41.0960 N.pl3 601  ZMR601     -0.0882
     21  CZ        20.9500   18.1190  -40.6420 C.cat 601  ZMR601      0.5345
     22  NH1       20.2820   17.1520  -41.2420 N.pl3 601  ZMR601      0.1354
     23  NH2       20.3790   18.8410  -39.7000 N.pl3 601  ZMR601      0.1354
@<TRIPOS>BOND
     1    19    18    1
     2    10     9    2
     3    15    14    1
     4    18    16    1
     5     9    11    1
     6     9     8   am
     7    14    16    1
     8    14    12    1
     9    16    17    1
    10     8     7    1
    11     7    12    1
    12     7     6    1
    13    22    21    1
    14    12    13    1
    15    20     6    1
    16    20    21    2
    17    13     4    1
    18     6     5    1
    19    21    23    1
    20     5     4    1
    21     3     1   ar
    22     4     1    1
    23     1     2   ar
