@<TRIPOS>MOLECULE
4b7r_G39_A_1.pdb
 20 20 0 0 0
SMALL
GASTEIGER

@<TRIPOS>ATOM
      1  C1        27.0270   20.3980  -40.1150 C.2   801  G39801      0.3644
      2  O1A       27.5070   19.3260  -39.6700 O.co2 801  G39801     -0.2457
      3  O1B       27.7320   21.4370  -40.1840 O.co2 801  G39801     -0.2457
      4  C2        25.5640   20.5020  -40.5190 C.3   801  G39801      0.1074
      5  C3        24.8320   19.1930  -40.7580 C.3   801  G39801      0.0322
      6  C4        23.3380   19.5090  -40.7110 C.3   801  G39801      0.1146
      7  C5        22.9970   20.5060  -41.8100 C.3   801  G39801      0.1398
      8  N5        21.5730   20.8630  -41.7760 N.am  801  G39801     -0.2032
      9  C10       20.6540   20.4060  -42.7900 C.2   801  G39801      0.2419
     10  O10       21.0420   19.7080  -43.7070 O.2   801  G39801     -0.2733
     11  C11       19.1970   20.8140  -42.6960 C.3   801  G39801      0.0964
     12  C6        23.8240   21.7860  -41.7060 C.3   801  G39801      0.1369
     13  C7        25.3280   21.5740  -41.5380 C.3   801  G39801      0.0427
     14  O7        23.6060   22.6250  -42.7950 O.3   801  G39801     -0.3569
     15  C8        22.8620   23.8000  -42.5890 C.3   801  G39801      0.1152
     16  C9        22.4630   24.4490  -43.9160 C.3   801  G39801      0.0296
     17  C81       23.4020   24.7720  -41.5140 C.3   801  G39801      0.0296
     18  C82       24.7280   25.4780  -41.8200 C.3   801  G39801      0.0026
     19  C91       21.8290   23.5090  -44.9240 C.3   801  G39801      0.0026
     20  N4        22.5170   18.3160  -40.7060 N.3   801  G39801     -0.1310
@<TRIPOS>BOND
     1    19    16    1
     2    16    15    1
     3    10     9    2
     4    14    15    1
     5    14    12    1
     6     9    11    1
     7     9     8   am
     8    15    17    1
     9    18    17    1
    10     7     8    1
    11     7    12    1
    12     7     6    1
    13    12    13    1
    14    13     4    1
    15     5     6    1
    16     5     4    1
    17     6    20    1
    18     4     1    1
    19     3     1   ar
    20     1     2   ar
