@<TRIPOS>MOLECULE
4b7t_CWT_A_1.pdb
 21 23 0 0 0
SMALL
GASTEIGER

@<TRIPOS>ATOM
      1  CAA       -6.3730   45.5280   -9.5570 C.3   1385  CWT1385     0.0235
      2  CAE       -7.5560   47.5870   -8.7930 C.3   1385  CWT1385     0.0235
      3  CAF       -7.6380   46.1120   -9.0590 C.3   1385  CWT1385     0.0964
      4  NAG       -8.8150   45.7230   -9.8420 N.pl3 1385  CWT1385    -0.1981
      5  CAH       -9.7430   44.7060   -9.3280 C.2   1385  CWT1385     0.2637
      6  NAI       -9.6280   44.0040   -8.0700 N.2   1385  CWT1385    -0.3710
      7  CAJ      -10.7250   43.1000   -7.9430 C.2   1385  CWT1385     0.1700
      8  CAK      -11.5500   43.2490   -9.1590 C.2   1385  CWT1385     0.2815
      9  NAL      -10.9380   44.2300   -9.9920 N.am  1385  CWT1385    -0.2135
     10  OAM      -12.5770   42.6420   -9.4160 O.2   1385  CWT1385    -0.2670
     11  CAN      -10.9800   42.2370   -6.8640 C.3   1385  CWT1385     0.0902
     12  CAO       -9.9540   41.8610   -5.7990 C.ar  1385  CWT1385    -0.0117
     13  CAP       -8.9440   42.7470   -5.4310 C.ar  1385  CWT1385     0.0363
     14  CAQ       -7.9830   42.3820   -4.4260 C.ar  1385  CWT1385     0.1761
     15  CAR       -8.0610   41.1780   -3.8230 C.ar  1385  CWT1385     0.1764
     16  CAS       -9.1050   40.2650   -4.1890 C.ar  1385  CWT1385     0.0399
     17  CAT      -10.0350   40.6200   -5.1740 C.ar  1385  CWT1385    -0.0005
     18  C21      -11.4270   44.6760  -11.2830 C.3   1385  CWT1385     0.1242
     19  OAU       -6.9090   43.0670   -3.8990 O.3   1385  CWT1385    -0.4346
     20  CAV       -6.2420   42.1920   -3.0630 C.3   1385  CWT1385     0.4294
     21  OAW       -7.0390   41.0820   -2.9070 O.3   1385  CWT1385    -0.4346
@<TRIPOS>BOND
     1    18     9    1
     2     9     5    1
     3     9     8   am
     4     4     5    1
     5     4     3    1
     6     1     3    1
     7    10     8    2
     8     5     6    2
     9     8     7    1
    10     3     2    1
    11     6     7    2
    12     7    11    1
    13    11    12    1
    14    12    13   ar
    15    12    17   ar
    16    13    14   ar
    17    17    16   ar
    18    14    19    1
    19    14    15   ar
    20    16    15   ar
    21    19    20    1
    22    15    21    1
    23    20    21    1
