@<TRIPOS>MOLECULE
4b7u_BCN_A_1.pdb
 11 10 0 0 0
SMALL
GASTEIGER

@<TRIPOS>ATOM
      1  N1       -56.1600   45.6360  -29.1340 N.3   1331  BCN1331    -0.2587
      2  C1       -55.1630   45.5710  -30.2220 C.3   1331  BCN1331     0.1879
      3  C2       -54.5540   46.9150  -30.5620 C.2   1331  BCN1331     0.3809
      4  O21      -53.7940   46.9690  -31.5460 O.co2 1331  BCN1331    -0.2441
      5  O22      -54.8010   47.9200  -29.8630 O.co2 1331  BCN1331    -0.2441
      6  C3       -55.8100   44.6730  -28.0590 C.3   1331  BCN1331     0.1086
      7  C4       -54.7410   45.2180  -27.1210 C.3   1331  BCN1331     0.1994
      8  O4       -55.2910   46.2810  -26.3340 O.3   1331  BCN1331    -0.2189
      9  C5       -57.5210   45.3040  -29.6300 C.3   1331  BCN1331     0.1086
     10  C6       -58.1350   46.4050  -30.4950 C.3   1331  BCN1331     0.1994
     11  O6       -58.1490   47.6730  -29.8110 O.3   1331  BCN1331    -0.2189
@<TRIPOS>BOND
     1     4     3   ar
     2     3     2    1
     3     3     5   ar
     4    10    11    1
     5    10     9    1
     6     2     1    1
     7     9     1    1
     8     1     6    1
     9     6     7    1
    10     7     8    1
