@<TRIPOS>MOLECULE
4b7x_NAP_A_1.pdb
 48 52 0 0 0
SMALL
GASTEIGER

@<TRIPOS>ATOM
      1  PA       -43.4240   22.6810   -4.5490 P.3   400  NAP400      0.2189
      2  O1A      -43.7370   22.9000   -6.0190 O.2   400  NAP400     -0.5170
      3  O2A      -42.0270   22.2660   -4.2900 O.3   400  NAP400     -0.4371
      4  O5B      -44.5110   21.7690   -3.9330 O.3   400  NAP400     -0.3112
      5  C5B      -44.2700   21.3980   -2.5720 C.3   400  NAP400      0.1813
      6  C4B      -43.5760   20.0240   -2.5420 C.3   400  NAP400      0.1820
      7  O4B      -43.0870   19.7780   -1.1930 O.3   400  NAP400     -0.3136
      8  C3B      -44.5330   18.8640   -2.7090 C.3   400  NAP400      0.2157
      9  O3B      -44.8290   18.6420   -4.0860 O.3   400  NAP400     -0.2175
     10  C2B      -43.7130   17.6860   -2.1360 C.3   400  NAP400      0.2314
     11  O2B      -42.7900   17.1920   -3.1230 O.3   400  NAP400     -0.2630
     12  C1B      -42.8690   18.3520   -1.0510 C.3   400  NAP400      0.3158
     13  N9A      -43.3730   18.0890    0.3010 N.pl3 400  NAP400     -0.1439
     14  C8A      -44.5630   18.4790    0.7870 C.3   400  NAP400      0.3377
     15  N7A      -44.6580   18.0870    2.0530 N.2   400  NAP400     -0.2095
     16  C5A      -43.5320   17.4540    2.3910 C.2   400  NAP400      0.2526
     17  C6A      -43.0710   16.8220    3.5560 C.2   400  NAP400      0.4393
     18  N6A      -43.8140   16.7760    4.6770 N.pl3 400  NAP400      0.2180
     19  N1A      -41.8500   16.2550    3.5340 N.2   400  NAP400      0.0021
     20  C2A      -41.0930   16.2900    2.4450 C.3   400  NAP400      0.5254
     21  N3A      -41.5010   16.8820    1.3230 N.2   400  NAP400     -0.0055
     22  C4A      -42.7110   17.4580    1.2630 C.2   400  NAP400      0.3518
     23  O3       -43.5450   24.1080   -3.7430 O.3   400  NAP400     -0.2703
     24  PN       -42.6640   25.4320   -4.0690 P.3   400  NAP400      0.2189
     25  O1N      -43.5590   26.5280   -4.4140 O.3   400  NAP400     -0.4371
     26  O2N      -41.5780   25.1040   -5.0150 O.2   400  NAP400     -0.5170
     27  O5D      -42.0420   25.7350   -2.7050 O.3   400  NAP400     -0.3112
     28  C5D      -40.9380   24.9220   -2.1980 C.3   400  NAP400      0.1813
     29  C4D      -40.3770   25.5310   -0.8640 C.3   400  NAP400      0.1799
     30  O4D      -39.8030   26.8600   -1.0210 O.3   400  NAP400     -0.3327
     31  C3D      -41.4670   25.6830    0.1790 C.3   400  NAP400      0.2158
     32  O3D      -40.8570   25.3130    1.3970 O.3   400  NAP400     -0.2175
     33  C2D      -41.8040   27.1870    0.1340 C.3   400  NAP400      0.2309
     34  O2D      -42.2510   27.6620    1.3880 O.3   400  NAP400     -0.2158
     35  C1D      -40.4600   27.7950   -0.0880 C.3   400  NAP400      0.2263
     36  N1N      -40.4760   29.1510   -0.7290 N.pl3 400  NAP400     -0.2787
     37  C2N      -39.7140   30.1550   -0.1430 C.3   400  NAP400      0.1244
     38  C3N      -39.6820   31.4140   -0.7280 C.2   400  NAP400      0.0544
     39  C7N      -38.8440   32.4930   -0.0970 C.2   400  NAP400      0.2818
     40  O7N      -38.8970   33.6570   -0.5030 O.2   400  NAP400     -0.2670
     41  N7N      -37.9750   32.0600    0.8270 N.am  400  NAP400     -0.0839
     42  C4N      -40.4220   31.6610   -1.8960 C.2   400  NAP400      0.0033
     43  C5N      -41.1800   30.6490   -2.4900 C.2   400  NAP400      0.0157
     44  C6N      -41.2070   29.3900   -1.9050 C.2   400  NAP400      0.0633
     45  P2B      -42.3200   15.6380   -3.0270 P.3   400  NAP400      0.5328
     46  O1X      -42.5050   15.2590   -1.4860 O.3   400  NAP400     -0.1145
     47  O2X      -43.4010   14.8280   -3.8850 O.2   400  NAP400     -0.2224
     48  O3X      -40.9740   15.4130   -3.5590 O.3   400  NAP400     -0.1145
@<TRIPOS>BOND
     1     2     1    2
     2    26    24    2
     3     1     3    1
     4     1     4    1
     5     1    23    1
     6    25    24    1
     7     9     8    1
     8    24    23    1
     9    24    27    1
    10     4     5    1
    11    47    45    2
    12    48    45    1
    13    11    45    1
    14    11    10    1
    15    45    46    1
    16     8     6    1
    17     8    10    1
    18    27    28    1
    19     5     6    1
    20     6     7    1
    21    43    44    2
    22    43    42    1
    23    28    29    1
    24    10    12    1
    25    44    36    1
    26    42    38    2
    27     7    12    1
    28    12    13    1
    29    30    29    1
    30    30    35    1
    31    29    31    1
    32    36    37    1
    33    36    35    1
    34    38    37    1
    35    38    39    1
    36    40    39    2
    37    39    41   am
    38    35    33    1
    39    33    31    1
    40    33    34    1
    41    31    32    1
    42    13    14    1
    43    13    22    1
    44    14    15    1
    45    22    21    2
    46    22    16    1
    47    21    20    1
    48    15    16    2
    49    16    17    1
    50    20    19    1
    51    19    17    2
    52    17    18    1
