@<TRIPOS>MOLECULE
4b8u_IBK_B_1.pdb
 20 21 0 0 0
SMALL
GASTEIGER

@<TRIPOS>ATOM
      1  CAA      -26.6170   56.1760   15.1950 C.3   501  IBK501      0.0018
      2  CAB      -24.8460   54.8810   13.9270 C.3   501  IBK501      0.0018
      3  OAC      -25.3750   54.2770   10.7300 O.2   501  IBK501     -0.2706
      4  CAD      -35.4620   53.8550    9.7730 C.ar  501  IBK501      0.0076
      5  CAE      -36.2430   52.7760    9.9430 C.ar  501  IBK501      0.0355
      6  CAF      -34.1490   53.6160    9.6310 C.ar  501  IBK501      0.0102
      7  CAG      -31.4670   52.6640    9.7470 C.ar  501  IBK501      0.0612
      8  CAH      -27.0100   55.6150   12.8060 C.3   501  IBK501      0.1152
      9  CAI      -26.7880   52.3470   10.7920 C.3   501  IBK501      0.2290
     10  CAJ      -28.9900   52.9350    9.7530 C.3   501  IBK501      0.1915
     11  NAK      -30.4830   50.8560    8.9490 N.ar  501  IBK501     -0.0788
     12  NAL      -27.0700   54.2140   12.3160 N.am  501  IBK501     -0.2033
     13  OAM      -27.7210   52.3020    9.6700 O.3   501  IBK501     -0.3377
     14  OAN      -32.0600   50.6650    8.9730 O.2   501  IBK501     -0.3531
     15  SAO      -35.2810   51.4110    9.9240 S.2   501  IBK501     -0.0833
     16  CAP      -26.4030   53.7700   11.2100 C.2   501  IBK501      0.2716
     17  CAQ      -30.2950   52.0840    9.4540 C.ar  501  IBK501      0.1305
     18  CAR      -32.5200   51.8710    9.5410 C.ar  501  IBK501      0.1826
     19  CAS      -33.8050   52.3100    9.6940 C.ar  501  IBK501      0.0666
     20  CAT      -25.9320   55.9470   13.8320 C.3   501  IBK501      0.0217
@<TRIPOS>BOND
     1    11    14   ar
     2    11    17   ar
     3    14    18   ar
     4    17     7   ar
     5    17    10    1
     6    18    19    1
     7    18     7   ar
     8     6    19   ar
     9     6     4   ar
    10    13    10    1
    11    13     9    1
    12    19    15   ar
    13     4     5   ar
    14    15     5   ar
    15     3    16    2
    16     9    16    1
    17    16    12   am
    18    12     8    1
    19     8    20    1
    20    20     2    1
    21    20     1    1
