@<TRIPOS>MOLECULE
4b8w_NAP_A_1.pdb
 48 52 0 0 0
SMALL
GASTEIGER

@<TRIPOS>ATOM
      1  PA        28.9080   50.4790   16.8970 P.3   900  NAP900      0.2189
      2  O1A       29.0320   51.9450   16.7010 O.2   900  NAP900     -0.5170
      3  O2A       30.2570   49.9140   17.3680 O.3   900  NAP900     -0.4371
      4  O5B       27.8040   50.1770   17.9770 O.3   900  NAP900     -0.3112
      5  C5B       27.4400   48.8110   18.2600 C.3   900  NAP900      0.1813
      6  C4B       26.4330   48.7730   19.3830 C.3   900  NAP900      0.1820
      7  O4B       26.3890   47.4390   19.9450 O.3   900  NAP900     -0.3136
      8  C3B       26.6960   49.7250   20.5530 C.3   900  NAP900      0.2157
      9  O3B       25.5310   50.4690   20.8910 O.3   900  NAP900     -0.2175
     10  C2B       27.1450   48.7920   21.6710 C.3   900  NAP900      0.2314
     11  O2B       26.9230   49.2760   23.0100 O.3   900  NAP900     -0.2630
     12  C1B       26.3590   47.5340   21.3530 C.3   900  NAP900      0.3158
     13  N9A       26.9360   46.3280   21.9390 N.pl3 900  NAP900     -0.1439
     14  C8A       28.1310   45.7290   21.6330 C.3   900  NAP900      0.3377
     15  N7A       28.4350   44.7150   22.4070 N.2   900  NAP900     -0.2095
     16  C5A       27.3580   44.6330   23.2790 C.2   900  NAP900      0.2526
     17  C6A       27.0770   43.7800   24.3690 C.2   900  NAP900      0.4393
     18  N6A       27.9010   42.8210   24.7980 N.pl3 900  NAP900      0.2180
     19  N1A       25.9190   43.9810   25.0430 N.2   900  NAP900      0.0021
     20  C2A       25.1110   44.9740   24.6550 C.3   900  NAP900      0.5254
     21  N3A       25.2700   45.8410   23.6500 N.2   900  NAP900     -0.0055
     22  C4A       26.4230   45.6170   22.9970 C.2   900  NAP900      0.3518
     23  O3        28.4880   49.7610   15.5280 O.3   900  NAP900     -0.2703
     24  PN        27.5940   50.1500   14.2560 P.3   900  NAP900      0.2189
     25  O1N       28.2460   49.6210   13.0370 O.2   900  NAP900     -0.5170
     26  O2N       27.2720   51.5880   14.3370 O.3   900  NAP900     -0.4371
     27  O5D       26.2470   49.3370   14.4830 O.3   900  NAP900     -0.3112
     28  C5D       26.3150   47.9290   14.7520 C.3   900  NAP900      0.1813
     29  C4D       25.6150   47.1410   13.6720 C.3   900  NAP900      0.1799
     30  O4D       26.0130   47.6200   12.3670 O.3   900  NAP900     -0.3327
     31  C3D       25.9660   45.6570   13.6840 C.3   900  NAP900      0.2158
     32  O3D       24.7830   44.8660   13.6780 O.3   900  NAP900     -0.2175
     33  C2D       26.8680   45.5250   12.4560 C.3   900  NAP900      0.2309
     34  O2D       26.8170   44.2390   11.8530 O.3   900  NAP900     -0.2158
     35  C1D       26.1850   46.5280   11.5150 C.3   900  NAP900      0.2263
     36  N1N       27.0320   46.9270   10.2920 N.pl3 900  NAP900     -0.2787
     37  C2N       27.9240   48.0010   10.4250 C.3   900  NAP900      0.1244
     38  C3N       28.6730   48.4260    9.3430 C.2   900  NAP900      0.0544
     39  C7N       29.6220   49.5860    9.4970 C.2   900  NAP900      0.2818
     40  O7N       30.3420   49.9180    8.5450 O.2   900  NAP900     -0.2670
     41  N7N       29.6760   50.1990   10.6840 N.am  900  NAP900     -0.0839
     42  C4N       28.5160   47.7690    8.1260 C.2   900  NAP900      0.0033
     43  C5N       27.6250   46.7090    8.0080 C.2   900  NAP900      0.0157
     44  C6N       26.8950   46.2980    9.1100 C.2   900  NAP900      0.0633
     45  P2B       28.0690   49.9860   23.8320 P.3   900  NAP900      0.5328
     46  O1X       28.9720   48.7960   24.1270 O.3   900  NAP900     -0.1145
     47  O2X       28.7780   51.1520   23.2130 O.2   900  NAP900     -0.2224
     48  O3X       27.3250   50.3190   25.1060 O.3   900  NAP900     -0.1145
@<TRIPOS>BOND
     1    43    42    1
     2    43    44    2
     3    42    38    2
     4    40    39    2
     5    44    36    1
     6    38    39    1
     7    38    37    1
     8    39    41   am
     9    36    37    1
    10    36    35    1
    11    35    30    1
    12    35    33    1
    13    34    33    1
    14    30    29    1
    15    33    31    1
    16    25    24    2
    17    29    31    1
    18    29    28    1
    19    32    31    1
    20    24    26    1
    21    24    27    1
    22    24    23    1
    23    27    28    1
    24    23     1    1
    25     2     1    2
    26     1     3    1
    27     1     4    1
    28     4     5    1
    29     5     6    1
    30     6     7    1
    31     6     8    1
    32     7    12    1
    33     8     9    1
    34     8    10    1
    35    12    10    1
    36    12    13    1
    37    14    13    1
    38    14    15    1
    39    10    11    1
    40    13    22    1
    41    15    16    2
    42    22    16    1
    43    22    21    2
    44    11    45    1
    45    47    45    2
    46    16    17    1
    47    21    20    1
    48    45    46    1
    49    45    48    1
    50    17    18    1
    51    17    19    2
    52    20    19    1
