@<TRIPOS>MOLECULE
4b8w_GDP_A_1.pdb
 28 30 0 0 0
SMALL
GASTEIGER

@<TRIPOS>ATOM
      1  PB        35.7990   45.8050    4.4660 P.3   901  GDP901      0.5373
      2  O1B       34.7110   46.2340    3.5540 O.2   901  GDP901     -0.2221
      3  O2B       35.4140   44.6000    5.3440 O.3   901  GDP901     -0.1143
      4  O3B       37.1290   45.5050    3.7660 O.3   901  GDP901     -0.1143
      5  O3A       36.1120   46.8590    5.5790 O.3   901  GDP901     -0.2261
      6  PA        36.4480   48.0570    6.5110 P.3   901  GDP901      0.2231
      7  O1A       35.3130   48.9800    6.7160 O.2   901  GDP901     -0.5169
      8  O2A       37.0240   47.4330    7.7660 O.3   901  GDP901     -0.4370
      9  O5'       37.7770   48.5580    5.7010 O.3   901  GDP901     -0.3111
     10  C5'       38.8880   47.7790    5.1970 C.3   901  GDP901      0.1813
     11  C4'       39.3450   48.2130    3.8190 C.3   901  GDP901      0.1799
     12  O4'       39.7980   49.5860    3.8520 O.3   901  GDP901     -0.3326
     13  C3'       40.5170   47.4170    3.2460 C.3   901  GDP901      0.2158
     14  O3'       40.4490   47.2400    1.8340 O.3   901  GDP901     -0.2175
     15  C2'       41.7300   48.2310    3.7050 C.3   901  GDP901      0.2310
     16  O2'       42.8600   48.0340    2.8650 O.3   901  GDP901     -0.2158
     17  C1'       41.1920   49.6580    3.5990 C.3   901  GDP901      0.2293
     18  N9        41.7940   50.5990    4.5640 N.pl3 901  GDP901     -0.2354
     19  C8        42.7190   51.5660    4.2850 C.3   901  GDP901      0.2246
     20  N7        43.0400   52.2960    5.3260 N.2   901  GDP901     -0.2322
     21  C5        42.2800   51.7800    6.3660 C.2   901  GDP901      0.2182
     22  C6        42.1670   52.1750    7.7800 C.1   901  GDP901      0.2372
     23  O6        42.8470   53.0660    8.2950 O.2   901  GDP901     -0.2069
     24  N1        41.2560   51.4510    8.5320 N.2   901  GDP901     -0.2485
     25  C2        40.5410   50.4510    8.0180 C.1   901  GDP901      0.2531
     26  N2        39.6710   49.7920    8.7870 N.pl3 901  GDP901     -0.0226
     27  N3        40.6420   50.0520    6.7140 N.2   901  GDP901     -0.3074
     28  C4        41.5120   50.7320    5.8980 C.2   901  GDP901      0.2300
@<TRIPOS>BOND
     1    14    13    1
     2    16    15    1
     3    13    15    1
     4    13    11    1
     5     2     1    2
     6    17    15    1
     7    17    12    1
     8    17    18    1
     9     4     1    1
    10    11    12    1
    11    11    10    1
    12    19    18    1
    13    19    20    1
    14     1     3    1
    15     1     5    1
    16    18    28    1
    17    10     9    1
    18    20    21    2
    19     5     6    1
    20     9     6    1
    21    28    21    1
    22    28    27    2
    23    21    22    1
    24     6     7    2
    25     6     8    1
    26    27    25    2
    27    22    23    2
    28    22    24    2
    29    25    24    2
    30    25    26    1
