@<TRIPOS>MOLECULE
4b8y_III_B_1.pdb
 48 48 0 0 0
SMALL
GASTEIGER

@<TRIPOS>ATOM
      1  N         -0.7250   14.6200    3.3000 N.2   806  GLY806     -0.1863
      2  CA        -0.6000   16.0650    3.3450 C.3   806  GLY806      0.2578
      3  C          0.6360   16.4580    2.5520 C.1   806  GLY806      0.1534
      4  O          1.4720   15.6020    2.2880 O.2   806  GLY806     -0.2249
      5  N          1.1200   17.7510    2.2140 N.2   805  GLY805     -0.1863
      6  CA         2.3830   17.8640    1.4860 C.3   805  GLY805      0.2578
      7  C          3.6240   17.4920    2.2910 C.1   805  GLY805      0.1534
      8  O          3.6180   17.4930    3.5280 O.2   805  GLY805     -0.2249
      9  N          4.3610   16.6050    1.5930 N.2   804  GLY804     -0.1863
     10  CA         5.6000   15.9440    1.9580 C.3   804  GLY804      0.2578
     11  C          5.3530   14.5090    2.3970 C.1   804  GLY804      0.1536
     12  O          6.2840   13.7170    2.5490 O.2   804  GLY804     -0.2249
     13  C1         2.5990   12.2210    1.8970 C.1   803  ALA803      0.1545
     14  C2         3.7530   12.7840    2.6760 C.3   803  ALA803      0.2408
     15  C3         3.6200   12.5690    4.1610 C.2   803  ALA803      0.0125
     16  C4         2.6880   13.4710    4.9340 C.2   803  ALA803     -0.0057
     17  C5         2.6120   13.2240    6.4140 C.3   803  ALA803      0.1235
     18  C6         2.7750   10.9190    7.4400 C.2   803  ALA803      0.0682
     19  C7         4.0840   11.2090    8.1050 C.3   803  ALA803      0.0561
     20  N1         3.8570   14.1790    2.3240 N.2   803  ALA803     -0.1849
     21  N2         2.0930   11.8980    6.6590 N.am  803  ALA803     -0.2799
     22  O1         2.2080   12.8070    0.8730 O.2   803  ALA803     -0.2247
     23  O2         0.9520   11.5800    6.1030 O.3   803  ALA803     -0.4195
     24  O3         2.2700    9.8200    7.5380 O.2   803  ALA803     -0.5413
     25  C1        -0.5630   11.5570    1.6140 C.1   802  ALA802      0.1501
     26  C2         0.6410   10.6740    1.4180 C.3   802  ALA802      0.2191
     27  C3         0.3120    9.2410    1.7570 C.3   802  ALA802      0.0441
     28  C4         1.3750    8.1940    1.5630 C.3   802  ALA802      0.0252
     29  C5         2.4870    8.0320    2.5580 C.3   802  ALA802      0.0978
     30  C6         1.5830    7.1450    4.7640 C.2   802  ALA802      0.0679
     31  C7         1.6360    5.7040    4.3240 C.3   802  ALA802      0.0561
     32  N1         1.6980   11.1510    2.2940 N.2   802  ALA802     -0.1894
     33  N2         2.0200    8.2200    3.9120 N.am  802  ALA802     -0.2845
     34  O1        -1.3880   11.7210    0.7180 O.2   802  ALA802     -0.2250
     35  O2         1.9600    9.4440    4.3540 O.3   802  ALA802     -0.4197
     36  O3         1.1840    7.4060    5.9030 O.2   802  ALA802     -0.5413
     37  C1        -2.0830   14.1440    3.2260 C.1   801  ALA801      0.1502
     38  C2        -2.1830   12.6470    3.1570 C.3   801  ALA801      0.2191
     39  C3        -2.7350   12.1300    4.4530 C.3   801  ALA801      0.0441
     40  C4        -3.2890   10.7450    4.3230 C.3   801  ALA801      0.0252
     41  C5        -3.2710    9.9410    5.5690 C.3   801  ALA801      0.0978
     42  C6        -1.6220    9.5120    7.3910 C.2   801  ALA801      0.0679
     43  C7        -2.7160    9.6370    8.4020 C.3   801  ALA801      0.0561
     44  N1        -0.8910   12.0300    2.9540 N.2   801  ALA801     -0.1897
     45  N2        -1.9380    9.6390    6.0130 N.am  801  ALA801     -0.2845
     46  O1        -3.0940   14.8300    3.3880 O.2   801  ALA801     -0.2250
     47  O2        -0.9790    9.5240    5.1440 O.3   801  ALA801     -0.4197
     48  O3        -0.4810    9.2460    7.7350 O.2   801  ALA801     -0.5413
@<TRIPOS>BOND
     1    34    25    2
     2    22    13    2
     3    26    25    1
     4    26    27    1
     5    26    32    1
     6     6     5    1
     7     6     7    1
     8    28    27    1
     9    28    29    1
    10     9    10    1
    11     9     7    2
    12    25    44    2
    13    13    32    2
    14    13    14    1
    15    10    11    1
    16     5     3    2
    17     4     3    2
    18     7     8    2
    19    20    11    2
    20    20    14    1
    21    11    12    2
    22     3     2    1
    23    29    33    1
    24    14    15    1
    25    44    38    1
    26    38    37    1
    27    38    39    1
    28    37     1    2
    29    37    46    2
    30     1     2    1
    31    33    35    1
    32    33    30   am
    33    15    16    2
    34    40    39    1
    35    40    41    1
    36    31    30    1
    37    30    36    2
    38    16    17    1
    39    47    45    1
    40    41    45    1
    41    45    42   am
    42    23    21    1
    43    17    21    1
    44    21    18   am
    45    42    48    2
    46    42    43    1
    47    18    24    2
    48    18    19    1
