@<TRIPOS>MOLECULE
4b8z_NAP_A_1.pdb
 48 52 0 0 0
SMALL
GASTEIGER

@<TRIPOS>ATOM
      1  PA        33.8230    6.1500  -20.7480 P.3   900  NAP900      0.2189
      2  O1A       34.3320    5.4120  -21.9300 O.2   900  NAP900     -0.5170
      3  O2A       34.6260    5.7490  -19.5090 O.3   900  NAP900     -0.4371
      4  O5B       33.9460    7.7000  -20.9880 O.3   900  NAP900     -0.3112
      5  C5B       33.8080    8.6520  -19.9150 C.3   900  NAP900      0.1813
      6  C4B       34.4290    9.9570  -20.3450 C.3   900  NAP900      0.1820
      7  O4B       34.3300   10.9250  -19.2730 O.3   900  NAP900     -0.3136
      8  C3B       35.9090    9.8950  -20.7290 C.3   900  NAP900      0.2157
      9  O3B       36.1160   10.5280  -21.9860 O.3   900  NAP900     -0.2175
     10  C2B       36.6120   10.6210  -19.5870 C.3   900  NAP900      0.2314
     11  O2B       37.8770   11.2140  -19.9460 O.3   900  NAP900     -0.2630
     12  C1B       35.5510   11.6300  -19.1770 C.3   900  NAP900      0.3158
     13  N9A       35.6840   12.1800  -17.8280 N.pl3 900  NAP900     -0.1439
     14  C8A       35.7530   11.4880  -16.6470 C.3   900  NAP900      0.3377
     15  N7A       35.9280   12.2470  -15.5920 N.2   900  NAP900     -0.2095
     16  C5A       35.9740   13.5300  -16.1150 C.2   900  NAP900      0.2526
     17  C6A       36.1650   14.7930  -15.5180 C.2   900  NAP900      0.4393
     18  N6A       36.3330   14.9750  -14.2060 N.pl3 900  NAP900      0.2180
     19  N1A       36.1830   15.8760  -16.3290 N.2   900  NAP900      0.0021
     20  C2A       36.0130   15.7000  -17.6450 C.3   900  NAP900      0.5254
     21  N3A       35.8250   14.5620  -18.3190 N.2   900  NAP900     -0.0055
     22  C4A       35.8190   13.5050  -17.4920 C.2   900  NAP900      0.3518
     23  O3        32.2780    5.7930  -20.5180 O.3   900  NAP900     -0.2703
     24  PN        31.0470    5.8730  -21.5410 P.3   900  NAP900      0.2189
     25  O1N       30.3570    4.5640  -21.5420 O.3   900  NAP900     -0.4371
     26  O2N       31.5500    6.4150  -22.8240 O.2   900  NAP900     -0.5170
     27  O5D       30.1010    6.9150  -20.7900 O.3   900  NAP900     -0.3112
     28  C5D       29.6060    8.1170  -21.4230 C.3   900  NAP900      0.1813
     29  C4D       28.1740    8.3520  -21.0060 C.3   900  NAP900      0.1799
     30  O4D       27.3670    7.2160  -21.3920 O.3   900  NAP900     -0.3327
     31  C3D       27.9350    8.5490  -19.5090 C.3   900  NAP900      0.2158
     32  O3D       27.2780    9.7840  -19.2410 O.3   900  NAP900     -0.2175
     33  C2D       27.0950    7.3240  -19.1390 C.3   900  NAP900      0.2309
     34  O2D       26.0730    7.6340  -18.1990 O.3   900  NAP900     -0.2158
     35  C1D       26.3800    6.9870  -20.4500 C.3   900  NAP900      0.2263
     36  N1N       25.8970    5.5260  -20.5070 N.pl3 900  NAP900     -0.2787
     37  C2N       26.7950    4.4850  -20.8380 C.3   900  NAP900      0.1244
     38  C3N       26.3600    3.1700  -20.8630 C.2   900  NAP900      0.0544
     39  C7N       27.3090    2.0390  -21.1840 C.2   900  NAP900      0.2818
     40  O7N       26.8900    0.8600  -21.1800 O.2   900  NAP900     -0.2670
     41  N7N       28.5800    2.3430  -21.4520 N.am  900  NAP900     -0.0839
     42  C4N       25.0260    2.9030  -20.5680 C.2   900  NAP900      0.0033
     43  C5N       24.1540    3.9350  -20.2570 C.2   900  NAP900      0.0157
     44  C6N       24.6110    5.2450  -20.2290 C.2   900  NAP900      0.0633
     45  P2B       39.3160   10.6010  -19.5650 P.3   900  NAP900      0.5328
     46  O1X       39.7310    9.2740  -20.1130 O.2   900  NAP900     -0.2224
     47  O2X       40.2010   11.7560  -20.0320 O.3   900  NAP900     -0.1145
     48  O3X       39.2590   10.6270  -18.0290 O.3   900  NAP900     -0.1145
@<TRIPOS>BOND
     1    26    24    2
     2     9     8    1
     3     2     1    2
     4    25    24    1
     5    24    27    1
     6    24    23    1
     7    41    39   am
     8    28    29    1
     9    28    27    1
    10    30    29    1
    11    30    35    1
    12    39    40    2
    13    39    38    1
    14    29    31    1
    15     4     1    1
    16     4     5    1
    17    38    37    1
    18    38    42    2
    19    37    36    1
    20     1    23    1
    21     1     3    1
    22     8     6    1
    23     8    10    1
    24    42    43    1
    25    36    35    1
    26    36    44    1
    27    35    33    1
    28     6     5    1
    29     6     7    1
    30    43    44    2
    31    46    45    2
    32    47    45    1
    33    11    10    1
    34    11    45    1
    35    10    12    1
    36    45    48    1
    37    31    32    1
    38    31    33    1
    39     7    12    1
    40    12    13    1
    41    33    34    1
    42    21    20    1
    43    21    22    2
    44    13    22    1
    45    13    14    1
    46    20    19    1
    47    22    16    1
    48    14    15    1
    49    19    17    2
    50    16    15    2
    51    16    17    1
    52    17    18    1
