@<TRIPOS>MOLECULE
4b8z_GDP_A_1.pdb
 28 30 0 0 0
SMALL
GASTEIGER

@<TRIPOS>ATOM
      1  PB        24.5430   -3.7290  -15.1730 P.3   901  GDP901      0.5373
      2  O1B       24.0130   -4.7560  -14.1700 O.3   901  GDP901     -0.1143
      3  O2B       24.2980   -2.3430  -14.5850 O.3   901  GDP901     -0.1143
      4  O3B       23.9930   -3.8780  -16.5470 O.2   901  GDP901     -0.2221
      5  O3A       26.1230   -3.8260  -15.2920 O.3   901  GDP901     -0.2261
      6  PA        27.2340   -4.6910  -16.0230 P.3   901  GDP901      0.2231
      7  O1A       27.3590   -4.1720  -17.4060 O.2   901  GDP901     -0.5169
      8  O2A       28.5500   -4.6290  -15.2480 O.3   901  GDP901     -0.4370
      9  O5'       26.6420   -6.1620  -16.0510 O.3   901  GDP901     -0.3111
     10  C5'       26.4760   -6.9560  -14.8580 C.3   901  GDP901      0.1813
     11  C4'       25.8430   -8.2800  -15.2180 C.3   901  GDP901      0.1799
     12  O4'       26.6670   -8.9870  -16.1740 O.3   901  GDP901     -0.3326
     13  C3'       25.6220   -9.2430  -14.0550 C.3   901  GDP901      0.2158
     14  O3'       24.3870   -9.9320  -14.2060 O.3   901  GDP901     -0.2175
     15  C2'       26.8420  -10.1650  -14.1330 C.3   901  GDP901      0.2310
     16  O2'       26.5490  -11.4430  -13.5810 O.3   901  GDP901     -0.2158
     17  C1'       27.0740  -10.2370  -15.6450 C.3   901  GDP901      0.2293
     18  N9        28.4830  -10.4850  -16.0430 N.pl3 901  GDP901     -0.2354
     19  C8        28.9760  -11.6500  -16.5760 C.3   901  GDP901      0.2246
     20  N7        30.2550  -11.6020  -16.8730 N.2   901  GDP901     -0.2322
     21  C5        30.6390  -10.3220  -16.5080 C.2   901  GDP901      0.2182
     22  C6        31.9170   -9.6540  -16.5740 C.1   901  GDP901      0.2372
     23  O6        32.9770  -10.1130  -16.9880 O.2   901  GDP901     -0.2069
     24  N1        31.8560   -8.3560  -16.0990 N.2   901  GDP901     -0.2485
     25  C2        30.7280   -7.7410  -15.6180 C.1   901  GDP901      0.2531
     26  N2        30.8610   -6.4800  -15.2070 N.pl3 901  GDP901     -0.0226
     27  N3        29.5350   -8.3370  -15.5450 N.2   901  GDP901     -0.3074
     28  C4        29.5570   -9.6150  -15.9980 C.2   901  GDP901      0.2300
@<TRIPOS>BOND
     1     7     6    2
     2    23    22    2
     3    20    19    1
     4    20    21    2
     5    19    18    1
     6    22    21    1
     7    22    24    2
     8     4     1    2
     9    21    28    1
    10    12    17    1
    11    12    11    1
    12    24    25    2
    13     9     6    1
    14     9    10    1
    15    18    28    1
    16    18    17    1
    17     6     5    1
    18     6     8    1
    19    28    27    2
    20    17    15    1
    21    25    27    2
    22    25    26    1
    23     5     1    1
    24    11    10    1
    25    11    13    1
    26     1     3    1
    27     1     2    1
    28    14    13    1
    29    15    13    1
    30    15    16    1
