@<TRIPOS>MOLECULE
4b95_UCK_C_1.pdb
 26 28 0 0 0
SMALL
GASTEIGER

@<TRIPOS>ATOM
      1  O01       -9.5570   31.9900    0.8760 O.3   1206  UCK1206    -0.2212
      2  C02       -8.2830   31.6980    1.3200 C.3   1206  UCK1206     0.1739
      3  C03       -7.8710   32.6030    2.4470 C.3   1206  UCK1206     0.0639
      4  C04       -7.2970   33.8240    1.7870 C.3   1206  UCK1206     0.1564
      5  C05       -6.0310   34.3370    2.5750 C.2   1206  UCK1206     0.2599
      6  N06       -6.2630   35.1040    3.8470 N.am  1206  UCK1206    -0.1992
      7  C07       -5.2390   35.5550    4.7920 C.3   1206  UCK1206     0.1415
      8  C08       -4.9440   34.5940    5.9340 C.ar  1206  UCK1206    -0.0005
      9  C09       -3.7260   34.6590    6.7020 C.ar  1206  UCK1206    -0.0017
     10  C10       -3.4710   33.7230    7.6910 C.ar  1206  UCK1206     0.0111
     11  C11       -4.4040   32.6920    7.9520 C.ar  1206  UCK1206     0.0577
     12 CL1        -4.1490   31.4490    9.1800 Cl    1206  UCK1206    -0.0822
     13  C13       -5.5990   32.6300    7.1790 C.ar  1206  UCK1206     0.0111
     14  C14       -5.8580   33.5670    6.2090 C.ar  1206  UCK1206    -0.0017
     15  O15       -4.9020   34.0960    2.1390 O.2   1206  UCK1206    -0.2715
     16  N16       -7.1060   33.4680    0.3920 N.am  1206  UCK1206    -0.2667
     17  C17       -6.8650   34.4800   -0.7160 C.2   1206  UCK1206     0.2502
     18  C18       -6.6840   34.0250   -2.1540 C.ar  1206  UCK1206     0.0641
     19  C19       -5.5050   33.2820   -2.5020 C.ar  1206  UCK1206     0.0620
     20 CL2        -4.2820   32.9670   -1.3290 Cl    1206  UCK1206    -0.0821
     21  C21       -5.3450   32.8590   -3.7780 C.ar  1206  UCK1206     0.0115
     22  C22       -6.3340   33.1470   -4.7510 C.ar  1206  UCK1206     0.0009
     23  C23       -7.4790   33.8670   -4.4060 C.ar  1206  UCK1206     0.0002
     24  C24       -7.6530   34.3030   -3.1010 C.ar  1206  UCK1206     0.0054
     25  O25       -6.7870   35.6850   -0.4510 O.2   1206  UCK1206    -0.2699
     26  C26       -7.2950   32.0380    0.2830 C.3   1206  UCK1206     0.1269
@<TRIPOS>BOND
     1    22    23   ar
     2    22    21   ar
     3    23    24   ar
     4    21    19   ar
     5    24    18   ar
     6    19    18   ar
     7    19    20    1
     8    18    17    1
     9    17    25    2
    10    17    16   am
    11    26    16    1
    12    26     2    1
    13    16     4    1
    14     1     2    1
    15     2     3    1
    16     4     3    1
    17     4     5    1
    18    15     5    2
    19     5     6   am
    20     6     7    1
    21     7     8    1
    22     8    14   ar
    23     8     9   ar
    24    14    13   ar
    25     9    10   ar
    26    13    11   ar
    27    10    11   ar
    28    11    12    1
