@<TRIPOS>MOLECULE
4b99_R4L_A_1.pdb
 46 52 0 0 0
SMALL
GASTEIGER

@<TRIPOS>ATOM
      1  CAP      -46.5770    1.9940  -11.5450 C.3   1394  R4L1394     0.0202
      2  CAN      -46.5370    0.7880  -10.6060 C.3   1394  R4L1394     0.0018
      3  CAO      -46.3690    1.5350   -9.2780 C.3   1394  R4L1394     0.0018
      4  CAQ      -45.6100    2.8280   -9.6160 C.3   1394  R4L1394     0.0202
      5  CBO      -45.2740    2.6040  -11.0760 C.3   1394  R4L1394     0.0796
      6  NBT      -44.9240    3.7900  -11.9370 N.pl3 1394  R4L1394    -0.2624
      7  CBK      -44.6300    5.0270  -11.5000 C.ar  1394  R4L1394     0.0579
      8  CAK      -43.7330    5.0940  -10.4310 C.ar  1394  R4L1394     0.0150
      9  CAG      -43.3290    6.3230   -9.9270 C.ar  1394  R4L1394     0.0013
     10  CAF      -43.7870    7.4880  -10.5140 C.ar  1394  R4L1394     0.0002
     11  CAJ      -44.6370    7.4300  -11.6050 C.ar  1394  R4L1394     0.0058
     12  CBJ      -45.0550    6.1980  -12.1080 C.ar  1394  R4L1394     0.0676
     13  CBI      -45.9320    6.2950  -13.1880 C.2   1394  R4L1394     0.2541
     14  OAE      -46.7330    7.2410  -13.2070 O.2   1394  R4L1394    -0.2695
     15  NBS      -45.9660    5.4120  -14.2120 N.am  1394  R4L1394    -0.2487
     16  CAC      -47.0180    5.6190  -15.2610 C.3   1394  R4L1394     0.1205
     17  C5       -45.1910    4.3100  -14.3060 C.2   1394  R4L1394     0.1199
     18  C6       -44.8370    3.8960  -15.5910 C.2   1394  R4L1394     0.1306
     19  N1       -44.0500    2.7450  -15.7440 N.2   1394  R4L1394    -0.1669
     20  C4       -44.7380    3.5480  -13.2440 C.2   1394  R4L1394     0.2151
     21  N3       -43.9670    2.4660  -13.4530 N.2   1394  R4L1394    -0.3191
     22  C2       -43.6350    2.0520  -14.6780 C.1   1394  R4L1394     0.1710
     23  NBB      -42.9010    0.9570  -14.8840 N.pl3 1394  R4L1394    -0.1326
     24  CBF      -42.5550    0.0890  -13.9000 C.ar  1394  R4L1394     0.1164
     25  CBH      -42.7350   -1.2590  -14.1860 C.ar  1394  R4L1394     0.1548
     26  CAM      -42.3760   -2.2510  -13.2660 C.ar  1394  R4L1394     0.0428
     27  OBC      -43.3010   -1.5040  -15.4030 O.3   1394  R4L1394    -0.4701
     28  CAA      -43.5460   -2.8790  -15.7050 C.3   1394  R4L1394     0.2525
     29  CAI      -41.9760    0.4440  -12.6890 C.ar  1394  R4L1394     0.0206
     30  CAH      -41.6180   -0.5430  -11.7770 C.ar  1394  R4L1394     0.0061
     31  CBE      -41.8300   -1.8920  -12.0480 C.ar  1394  R4L1394     0.0567
     32  CBD      -41.4070   -2.8620  -11.1260 C.2   1394  R4L1394     0.2491
     33  OAD      -40.3900   -3.5040  -11.4240 O.2   1394  R4L1394    -0.2699
     34  NBQ      -41.9900   -3.0100   -9.9210 N.am  1394  R4L1394    -0.2760
     35  CAU      -41.4220   -4.0130   -8.9800 C.3   1394  R4L1394     0.0951
     36  CAS      -42.4480   -4.9910   -8.5470 C.3   1394  R4L1394     0.0375
     37  CAT      -43.1910   -2.2670   -9.5410 C.3   1394  R4L1394     0.0951
     38  CAR      -44.2140   -3.3090   -9.1450 C.3   1394  R4L1394     0.0375
     39  CBN      -43.5590   -4.1020   -7.9590 C.3   1394  R4L1394     0.0610
     40  NBR      -44.4640   -4.7950   -7.0150 N.3   1394  R4L1394    -0.2715
     41  CAX      -45.5290   -3.9280   -6.4740 C.3   1394  R4L1394     0.0896
     42  CAV      -46.9310   -4.2160   -7.0560 C.3   1394  R4L1394     0.0897
     43  NBP      -47.3400   -5.6400   -6.9500 N.3   1394  R4L1394    -0.2691
     44  CAB      -48.2800   -6.0070   -8.0300 C.3   1394  R4L1394     0.0897
     45  CAW      -46.2140   -6.5670   -6.9560 C.3   1394  R4L1394     0.0897
     46  CAY      -45.1280   -5.8780   -7.7850 C.3   1394  R4L1394     0.0896
@<TRIPOS>BOND
     1    19    18    1
     2    19    22    2
     3    28    27    1
     4    18    17    2
     5    27    25    1
     6    16    15    1
     7    23    22    1
     8    23    24    1
     9    22    21    2
    10    17    15    1
    11    17    20    1
    12    15    13   am
    13    25    24   ar
    14    25    26   ar
    15    24    29   ar
    16    21    20    2
    17    26    31   ar
    18    20     6    1
    19    14    13    2
    20    13    12    1
    21    29    30   ar
    22    12    11   ar
    23    12     7   ar
    24    31    30   ar
    25    31    32    1
    26     6     7    1
    27     6     5    1
    28    11    10   ar
    29     1     5    1
    30     1     2    1
    31     7     8   ar
    32    33    32    2
    33    32    34   am
    34     5     4    1
    35     2     3    1
    36    10     9   ar
    37     8     9   ar
    38    34    37    1
    39    34    35    1
    40     4     3    1
    41    37    38    1
    42    38    39    1
    43    35    36    1
    44    36    39    1
    45    44    43    1
    46    39    40    1
    47    46    40    1
    48    46    45    1
    49    42    43    1
    50    42    41    1
    51    40    41    1
    52    45    43    1
