@<TRIPOS>MOLECULE
4b9d_CK7_A_1.pdb
 23 25 0 0 0
SMALL
GASTEIGER

@<TRIPOS>ATOM
      1  N7A       11.2880   10.2280  -31.4640 N.pl3 1285  CK71285    -0.0867
      2  C3A       11.0080    9.9220  -30.2080 C.2   1285  CK71285     0.2461
      3  N2A       11.8700    9.4750  -29.2790 N.2   1285  CK71285    -0.3852
      4  C1A       11.2900    9.2360  -28.0750 C.2   1285  CK71285     0.1063
      5  C6A       12.1710    8.7270  -26.9550 C.3   1285  CK71285     0.0629
      6  S4A        9.4780   10.0680  -29.5690 S.3   1285  CK71285    -0.0508
      7  C5A        9.9490    9.4770  -28.0080 C.3   1285  CK71285     0.1563
      8  C4         9.0450    9.3670  -26.9980 C.2   1285  CK71285     0.1398
      9  N3         7.8040    9.9060  -27.2060 N.2   1285  CK71285    -0.3393
     10  C5         9.2990    8.7190  -25.7810 C.2   1285  CK71285     0.0513
     11  C6         8.2980    8.6600  -24.8500 C.2   1285  CK71285     0.1141
     12  N1         7.0660    9.2460  -25.1450 N.2   1285  CK71285    -0.1683
     13  C2         6.8190    9.8650  -26.2910 C.1   1285  CK71285     0.1694
     14  N7         5.5510   10.3910  -26.4430 N.pl3 1285  CK71285    -0.1357
     15  C1B        5.1140   11.1340  -27.5080 C.ar  1285  CK71285     0.0842
     16  C6B        3.7210   11.2860  -27.7050 C.ar  1285  CK71285     0.0175
     17  C2B        5.9330   11.7860  -28.4240 C.ar  1285  CK71285     0.0414
     18  C3B        5.3960   12.5410  -29.4810 C.ar  1285  CK71285     0.1442
     19  N7B        6.2440   13.1480  -30.3200 N.pl3 1285  CK71285     0.0577
     20  O8B        7.7170   13.1040  -30.0130 O.2   1285  CK71285    -0.1261
     21  O9B        5.6800   13.9060  -31.5940 O.2   1285  CK71285    -0.1261
     22  C4B        4.0070   12.6770  -29.6470 C.ar  1285  CK71285     0.0242
     23  C5B        3.1610   12.0360  -28.7540 C.ar  1285  CK71285     0.0031
@<TRIPOS>BOND
     1    21    19    2
     2     1     2    1
     3    19    20    2
     4    19    18    1
     5     2     6    1
     6     2     3    2
     7    22    18   ar
     8    22    23   ar
     9     6     7    1
    10    18    17   ar
    11     3     4    2
    12    23    16   ar
    13    17    15   ar
    14     4     7    1
    15     4     5    1
    16     7     8    1
    17    16    15   ar
    18    15    14    1
    19     9     8    2
    20     9    13    2
    21     8    10    1
    22    14    13    1
    23    13    12    2
    24    10    11    2
    25    12    11    1
