@<TRIPOS>MOLECULE
4b9k_TG0_C_1.pdb
 32 35 0 0 0
SMALL
GASTEIGER

@<TRIPOS>ATOM
      1  N01       -4.3610   32.9010   -4.3070 N.pl3 1203  TG01203    -0.1284
      2  C02       -5.5000   33.6220   -3.7890 C.ar  1203  TG01203     0.0853
      3  C03       -5.6260   33.9800   -2.4210 C.ar  1203  TG01203    -0.0007
      4  C04       -4.5440   33.6590   -1.4250 C.3   1203  TG01203     0.0326
      5  C05       -6.7910   34.6970   -2.0380 C.ar  1203  TG01203     0.0509
      6  C06       -7.0110   35.1230   -0.6030 C.2   1203  TG01203     0.2491
      7  N07       -7.4550   34.1190    0.3460 N.am  1203  TG01203    -0.2667
      8  C08       -7.6940   34.3620    1.7650 C.3   1203  TG01203     0.1564
      9  C09       -6.4610   34.9100    2.4740 C.2   1203  TG01203     0.2599
     10  N10       -6.6590   35.8470    3.5490 N.am  1203  TG01203    -0.1992
     11  C11       -5.4720   36.3080    4.2460 C.3   1203  TG01203     0.1415
     12  C12       -5.2330   35.3920    5.4450 C.ar  1203  TG01203    -0.0006
     13  C13       -3.9810   35.4370    6.0880 C.ar  1203  TG01203    -0.0028
     14  C14       -3.7690   34.6180    7.2060 C.ar  1203  TG01203    -0.0034
     15  C15       -4.7810   33.7510    7.6650 C.ar  1203  TG01203    -0.0072
     16  C16       -4.5740   32.9240    8.9120 C.3   1203  TG01203     0.1070
     17  C17       -4.0370   33.4180   10.1520 C.2   1203  TG01203     0.0467
     18  C18       -3.5100   34.7910   10.4490 C.3   1203  TG01203     0.0481
     19  N19       -4.0420   32.3350   11.1460 N.2   1203  TG01203    -0.2658
     20  C20       -4.5930   31.1660   10.6520 C.3   1203  TG01203     0.1829
     21  S21       -5.0320   31.3830    9.1020 S.3   1203  TG01203    -0.1049
     22  C22       -6.0100   33.6790    6.9990 C.ar  1203  TG01203    -0.0034
     23  C23       -6.2510   34.5390    5.9260 C.ar  1203  TG01203    -0.0028
     24  O24       -5.3170   34.5450    2.1710 O.2   1203  TG01203    -0.2715
     25  C25       -8.0280   33.0510    2.3940 C.3   1203  TG01203     0.0639
     26  C26       -8.5680   32.3010    1.2460 C.3   1203  TG01203     0.1739
     27  O27       -9.9100   32.6300    1.0310 O.3   1203  TG01203    -0.2212
     28  C28       -7.7380   32.7050    0.0560 C.3   1203  TG01203     0.1269
     29  O29       -6.8350   36.2950   -0.2600 O.2   1203  TG01203    -0.2699
     30  C30       -7.8170   34.9770   -2.9490 C.ar  1203  TG01203     0.0043
     31  C31       -7.6590   34.6270   -4.2920 C.ar  1203  TG01203     0.0015
     32  C32       -6.5250   33.9110   -4.6870 C.ar  1203  TG01203     0.0177
@<TRIPOS>BOND
     1    32    31   ar
     2    32     2   ar
     3     1     2    1
     4    31    30   ar
     5     2     3   ar
     6    30     5   ar
     7     3     5   ar
     8     3     4    1
     9     5     6    1
    10     6    29    2
    11     6     7   am
    12    28     7    1
    13    28    26    1
    14     7     8    1
    15    27    26    1
    16    26    25    1
    17     8    25    1
    18     8     9    1
    19    24     9    2
    20     9    10   am
    21    10    11    1
    22    11    12    1
    23    12    23   ar
    24    12    13   ar
    25    23    22   ar
    26    13    14   ar
    27    22    15   ar
    28    14    15   ar
    29    15    16    1
    30    16    21    1
    31    16    17    1
    32    21    20    1
    33    17    18    1
    34    17    19    2
    35    20    19    1
