@<TRIPOS>MOLECULE
4b9o_HC4_A_1.pdb
 11 11 0 0 0
SMALL
GASTEIGER

@<TRIPOS>ATOM
      1  C1         3.9530  -11.7780    7.1040 C.2   169  HC4169      0.2074
      2  O1         4.0230  -12.8540    7.6880 O.2   169  HC4169     -0.2883
      3  C2         5.0520  -10.9430    7.1130 C.3   169  HC4169      0.0729
      4  C3         6.3820  -11.3230    7.1960 C.3   169  HC4169      0.0169
      5  C1'        7.1000  -12.4250    6.7410 C.3   169  HC4169      0.0446
      6  C2'        8.3250  -12.6250    7.3720 C.2   169  HC4169     -0.0188
      7  C3'        9.2270  -13.5680    6.8970 C.2   169  HC4169      0.0378
      8  C4'        8.9290  -14.3020    5.7490 C.2   169  HC4169      0.1951
      9  C5'        7.7180  -14.0920    5.1010 C.2   169  HC4169      0.0378
     10  C6'        6.7860  -13.1640    5.5950 C.2   169  HC4169     -0.0188
     11  O4'        9.7730  -15.0850    5.2960 O.2   169  HC4169     -0.2866
@<TRIPOS>BOND
     1     9    10    2
     2     9     8    1
     3    11     8    2
     4    10     5    1
     5     8     7    1
     6     5     4    1
     7     5     6    1
     8     7     6    2
     9     1     3    1
    10     1     2    2
    11     3     4    1
