@<TRIPOS>MOLECULE
4b9q_ATP_A_1.pdb
 31 33 0 0 0
SMALL
GASTEIGER

@<TRIPOS>ATOM
      1  PG       107.9630   80.1210  102.5540 P.3   700  ATP700      0.5373
      2  O1G      108.3240   81.5410  102.1390 O.2   700  ATP700     -0.2221
      3  O2G      106.4820   79.9130  102.7450 O.3   700  ATP700     -0.1143
      4  O3G      108.8740   79.5250  103.6190 O.3   700  ATP700     -0.1143
      5  PB       107.3450   78.7480  100.0590 P.3   700  ATP700      0.2277
      6  O1B      105.8740   79.1000  100.2300 O.3   700  ATP700     -0.4368
      7  O2B      107.9660   79.1970   98.7710 O.2   700  ATP700     -0.5168
      8  O3B      108.3140   79.1920  101.2830 O.3   700  ATP700     -0.2258
      9  PA       106.7580   76.0400   99.5410 P.3   700  ATP700      0.2189
     10  O1A      105.4840   75.8590  100.2940 O.3   700  ATP700     -0.4371
     11  O2A      106.6880   76.3060   98.0610 O.2   700  ATP700     -0.5170
     12  O3A      107.6240   77.1720  100.2970 O.3   700  ATP700     -0.2700
     13  O5'      107.7940   74.8400   99.8090 O.3   700  ATP700     -0.3112
     14  C5'      109.0220   74.7290   99.0850 C.3   700  ATP700      0.1813
     15  C4'      109.9900   73.9590   99.9740 C.3   700  ATP700      0.1821
     16  O4'      109.4430   72.6520  100.1910 O.3   700  ATP700     -0.3135
     17  C3'      111.3420   73.7540   99.3460 C.3   700  ATP700      0.2184
     18  O3'      112.2730   73.6580  100.4270 O.3   700  ATP700     -0.2174
     19  C2'      111.1890   72.3970   98.6900 C.3   700  ATP700      0.2570
     20  O2'      112.4320   71.7430   98.4480 O.3   700  ATP700     -0.2130
     21  C1'      110.3530   71.6660   99.7180 C.3   700  ATP700      0.3186
     22  N9       109.6310   70.5460   99.0860 N.pl3 700  ATP700     -0.1439
     23  C8       108.9650   70.6010   97.9240 C.3   700  ATP700      0.3377
     24  N7       108.4310   69.3910   97.6250 N.2   700  ATP700     -0.2095
     25  C5       108.7680   68.5280   98.6110 C.2   700  ATP700      0.2526
     26  C6       108.5350   67.0910   98.9270 C.2   700  ATP700      0.4393
     27  N6       107.8090   66.3020   98.1130 N.pl3 700  ATP700      0.2180
     28  N1       109.0560   66.5970  100.0730 N.2   700  ATP700      0.0021
     29  C2       109.7840   67.3720  100.8980 C.3   700  ATP700      0.5254
     30  N3       110.0390   68.6790  100.6850 N.2   700  ATP700     -0.0055
     31  C4       109.5670   69.3040   99.5720 C.2   700  ATP700      0.3518
@<TRIPOS>BOND
     1    24    23    1
     2    24    25    2
     3    23    22    1
     4    11     9    2
     5    27    26    1
     6    20    19    1
     7    25    26    1
     8    25    31    1
     9    19    17    1
    10    19    21    1
    11     7     5    2
    12    26    28    2
    13    14    13    1
    14    14    15    1
    15    22    31    1
    16    22    21    1
    17    17    15    1
    18    17    18    1
    19     9    13    1
    20     9    10    1
    21     9    12    1
    22    31    30    2
    23    21    16    1
    24    15    16    1
    25     5     6    1
    26     5    12    1
    27     5     8    1
    28    28    29    1
    29    30    29    1
    30     8     1    1
    31     2     1    2
    32     1     3    1
    33     1     4    1
