@<TRIPOS>MOLECULE
4b9z_ACR_A_1.pdb
 44 47 0 0 0
SMALL
GASTEIGER

@<TRIPOS>ATOM
      1  C1A       29.7750   79.8540   34.7220 C.3   1818  ACR1818     0.1060
      2  C2A       28.2370   79.7440   34.6840 C.3   1818  ACR1818     0.2005
      3  C3A       27.5730   80.2720   35.9640 C.3   1818  ACR1818     0.2136
      4  C4A       27.9980   79.4030   37.1360 C.3   1818  ACR1818     0.1872
      5  C5A       29.4860   79.1140   37.1050 C.3   1818  ACR1818     0.0675
      6  C6A       30.1970   78.7740   38.3930 C.3   1818  ACR1818     0.1847
      7  C7A       30.2180   79.1280   35.9730 C.3   1818  ACR1818     0.0253
      8  O2A       27.6770   80.3170   33.4950 O.3   1818  ACR1818    -0.2188
      9  O3A       26.1290   80.2210   35.8860 O.3   1818  ACR1818    -0.2176
     10  O4A       27.6640   80.0930   38.3450 O.3   1818  ACR1818    -0.2202
     11  O6A       30.1070   77.3610   38.5920 O.3   1818  ACR1818    -0.2203
     12  C1B       34.6270   82.2180   34.6140 C.3   1818  ACR1818     0.2694
     13  C2B       34.1050   81.1390   33.6640 C.3   1818  ACR1818     0.2394
     14  C3B       32.5950   81.2660   33.4360 C.3   1818  ACR1818     0.2054
     15  C4B       31.8780   81.2620   34.7780 C.3   1818  ACR1818     0.1329
     16  C5B       32.4240   82.4660   35.5500 C.3   1818  ACR1818     0.1364
     17  C6B       31.7050   82.6840   36.8840 C.3   1818  ACR1818     0.0337
     18  N4B       30.4100   81.1840   34.6340 N.3   1818  ACR1818    -0.2131
     19  O2B       34.7710   81.2690   32.4030 O.3   1818  ACR1818    -0.2149
     20  O3B       32.1330   80.1780   32.6250 O.3   1818  ACR1818    -0.2186
     21  O5B       33.8310   82.2740   35.8080 O.3   1818  ACR1818    -0.3295
     22  C1C       36.6320   86.7240   33.1410 C.3   1818  ACR1818     0.2695
     23  C2C       37.2720   85.5150   32.4890 C.3   1818  ACR1818     0.2404
     24  C3C       36.1740   84.4580   32.5290 C.3   1818  ACR1818     0.2167
     25  C4C       35.7500   84.2240   33.9800 C.3   1818  ACR1818     0.1804
     26  C5C       35.5650   85.5120   34.7860 C.3   1818  ACR1818     0.1803
     27  C6C       35.5350   85.1860   36.2780 C.3   1818  ACR1818     0.2141
     28  O2C       37.6800   85.7910   31.1480 O.3   1818  ACR1818    -0.2149
     29  O3C       36.6270   83.2080   32.0070 O.3   1818  ACR1818    -0.2175
     30  O4C       34.5300   83.4850   33.9670 O.3   1818  ACR1818    -0.3257
     31  O5C       36.6210   86.4500   34.5350 O.3   1818  ACR1818    -0.3257
     32  O6C       34.8980   86.2420   36.9930 O.3   1818  ACR1818    -0.2176
     33  C1D       35.7440   91.0270   30.6720 C.3   1818  ACR1818     0.3023
     34  C2D       36.5930   90.0870   29.8290 C.3   1818  ACR1818     0.2433
     35  C3D       37.0620   88.8820   30.6390 C.3   1818  ACR1818     0.2168
     36  C4D       36.4180   88.7470   32.0210 C.3   1818  ACR1818     0.1804
     37  C5D       36.1560   90.0660   32.7490 C.3   1818  ACR1818     0.1804
     38  C6D       36.9340   90.1840   34.0570 C.3   1818  ACR1818     0.2141
     39  O1D       35.6130   92.2840   30.0000 O.3   1818  ACR1818    -0.1869
     40  O2D       35.8630   89.6380   28.6800 O.3   1818  ACR1818    -0.2148
     41  O3D       36.7620   87.7040   29.8780 O.3   1818  ACR1818    -0.2175
     42  O4D       37.2710   87.9540   32.8420 O.3   1818  ACR1818    -0.3257
     43  O5D       36.4270   91.1850   31.9100 O.3   1818  ACR1818    -0.3237
     44  O6D       36.1400   89.7050   35.1480 O.3   1818  ACR1818    -0.2176
@<TRIPOS>BOND
     1    40    34    1
     2    34    35    1
     3    34    33    1
     4    41    35    1
     5    39    33    1
     6    35    36    1
     7    33    43    1
     8    28    23    1
     9    43    37    1
    10    29    24    1
    11    36    37    1
    12    36    42    1
    13    19    13    1
    14    23    24    1
    15    23    22    1
    16    24    25    1
    17    20    14    1
    18    37    38    1
    19    42    22    1
    20    22    31    1
    21    14    13    1
    22    14    15    1
    23     8     2    1
    24    13    12    1
    25    30    25    1
    26    30    12    1
    27    25    26    1
    28    38    44    1
    29    31    26    1
    30    12    21    1
    31    18     1    1
    32    18    15    1
    33     2     1    1
    34     2     3    1
    35     1     7    1
    36    15    16    1
    37    26    27    1
    38    16    21    1
    39    16    17    1
    40     9     3    1
    41     3     4    1
    42     7     5    1
    43    27    32    1
    44     5     4    1
    45     5     6    1
    46     4    10    1
    47     6    11    1
