@<TRIPOS>MOLECULE
4ba0_5GF_A_1.pdb
 12 12 0 0 0
SMALL
GASTEIGER

@<TRIPOS>ATOM
      1  O5        29.9170   78.9940   35.7760 O.3   1818  5GF1818    -0.3239
      2  C1        28.9340   78.5470   34.8280 C.3   1818  5GF1818     0.1805
      3  F         29.9150   80.8400   37.0440 F     1818  5GF1818    -0.2039
      4  C2        27.6200   79.3580   34.7650 C.3   1818  5GF1818     0.2143
      5  O2        27.5630   80.1800   33.5910 O.3   1818  5GF1818    -0.2176
      6  C3        27.3670   80.2140   35.9970 C.3   1818  5GF1818     0.2200
      7  O3        25.9540   80.3700   36.1950 O.3   1818  5GF1818    -0.2174
      8  C4        27.9910   79.5160   37.1920 C.3   1818  5GF1818     0.2431
      9  O4        27.5790   80.1610   38.4040 O.3   1818  5GF1818    -0.2146
     10  C6        30.2120   78.8600   38.1830 C.3   1818  5GF1818     0.2458
     11  O6        29.8740   77.4730   38.2000 O.3   1818  5GF1818    -0.2145
     12  C5        29.5110   79.5710   37.0270 C.3   1818  5GF1818     0.2883
@<TRIPOS>BOND
     1     5     4    1
     2     4     2    1
     3     4     6    1
     4     2     1    1
     5     1    12    1
     6     6     7    1
     7     6     8    1
     8    12     3    1
     9    12     8    1
    10    12    10    1
    11     8     9    1
    12    10    11    1
