@<TRIPOS>MOLECULE
4ba0_ARG_A_1.pdb
 12 11 0 0 0
SMALL
GASTEIGER

@<TRIPOS>ATOM
      1  N         37.2730   91.9240   25.3310 N.3   1829  ARG1829    -0.1208
      2  CA        36.6980   90.5920   25.5160 C.3   1829  ARG1829     0.1944
      3  C         37.7780   89.5150   25.6000 C.2   1829  ARG1829     0.3819
      4  O         37.8570   88.7570   26.5710 O.co2 1829  ARG1829    -0.2441
      5  CB        35.7160   90.2630   24.3820 C.3   1829  ARG1829     0.0343
      6  CG        35.1110   88.8660   24.4740 C.3   1829  ARG1829     0.0490
      7  CD        34.0530   88.6180   23.4000 C.3   1829  ARG1829     0.2205
      8  NE        33.5570   87.2430   23.4610 N.pl3 1829  ARG1829    -0.0865
      9  CZ        32.6020   86.7470   22.6770 C.cat 1829  ARG1829     0.5346
     10  NH1       32.0220   87.5150   21.7560 N.pl3 1829  ARG1829     0.1354
     11  NH2       32.2260   85.4750   22.8160 N.pl3 1829  ARG1829     0.1354
     12  OXT       38.6030   89.3790   24.6940 O.co2 1829  ARG1829    -0.2441
@<TRIPOS>BOND
     1    10     9    1
     2     9    11    1
     3     9     8    2
     4     7     8    1
     5     7     6    1
     6     5     6    1
     7     5     2    1
     8    12     3   ar
     9     1     2    1
    10     2     3    1
    11     3     4   ar
