@<TRIPOS>MOLECULE
4bad_HM6_A_1.pdb
 19 20 0 0 0
SMALL
GASTEIGER

@<TRIPOS>ATOM
      1  O2        34.9230   12.6950   29.8010 O.co2 1130  HM61130    -0.2380
      2  C1        35.6830   13.4890   29.1880 C.2   1130  HM61130     0.4130
      3  O1        36.2360   14.4360   29.8070 O.co2 1130  HM61130    -0.2380
      4  C2        35.9300   13.3080   27.7280 C.2   1130  HM61130     0.1941
      5  N1        36.4070   14.3400   27.0230 N.2   1130  HM61130    -0.3924
      6  C3        35.6570   12.0710   27.1510 C.3   1130  HM61130     0.1087
      7  C4        35.9020   11.9430   25.7800 C.2   1130  HM61130     0.0566
      8  C5        36.3980   13.0330   25.0680 C.2   1130  HM61130     0.0511
      9  C6        36.6440   14.2280   25.7160 C.2   1130  HM61130     0.2115
     10  C7        37.1750   15.3940   24.9530 C.2   1130  HM61130     0.4168
     11  O4        37.3300   15.3130   23.7060 O.co2 1130  HM61130    -0.2377
     12  O3        37.4690   16.4600   25.5550 O.co2 1130  HM61130    -0.2377
     13  N2        35.6460   10.7040   25.1150 N.pl3 1130  HM61130    -0.2007
     14  C8        36.0710   10.3750   23.8490 C.3   1130  HM61130     0.1604
     15  C9        35.6460    9.1700   23.5910 C.2   1130  HM61130     0.1121
     16  C10       35.8750    8.4090   22.3290 C.3   1130  HM61130     0.2265
     17  O5        36.6320    7.2630   22.3470 O.3   1130  HM61130    -0.2137
     18  N4        34.9120    8.7040   24.7470 N.2   1130  HM61130    -0.1479
     19  N3        34.9330    9.6480   25.6380 N.pl3 1130  HM61130    -0.0449
@<TRIPOS>BOND
     1    16    17    1
     2    16    15    1
     3    15    14    1
     4    15    18    2
     5    11    10   ar
     6    14    13    1
     7    18    19    1
     8    10    12   ar
     9    10     9    1
    10     8     9    1
    11     8     7    2
    12    13    19    1
    13    13     7    1
    14     9     5    2
    15     7     6    1
    16     5     4    2
    17     6     4    1
    18     4     2    1
    19     2     1   ar
    20     2     3   ar
