@<TRIPOS>MOLECULE
4baf_IKX_A_1.pdb
 20 21 0 0 0
SMALL
GASTEIGER

@<TRIPOS>ATOM
      1  O1        24.4820    2.3710  -10.3230 O.co2 1130  IKX1130    -0.2377
      2  C1        25.5370    2.7870   -9.7790 C.2   1130  IKX1130     0.4168
      3  O2        26.4480    3.3270  -10.4620 O.co2 1130  IKX1130    -0.2377
      4  C2        25.6840    2.6110   -8.3150 C.2   1130  IKX1130     0.2115
      5  N1        24.6240    2.1480   -7.6710 N.2   1130  IKX1130    -0.3924
      6  C3        26.8620    2.8930   -7.6430 C.2   1130  IKX1130     0.0511
      7  C4        26.8960    2.7030   -6.2600 C.2   1130  IKX1130     0.0566
      8  C5        25.7660    2.1930   -5.5990 C.3   1130  IKX1130     0.1087
      9  C6        24.6230    1.9340   -6.3550 C.2   1130  IKX1130     0.1941
     10  C7        23.3500    1.4040   -5.7810 C.2   1130  IKX1130     0.4130
     11  O4        22.3770    1.2100   -6.5780 O.co2 1130  IKX1130    -0.2380
     12  O3        23.2720    1.1880   -4.5650 O.co2 1130  IKX1130    -0.2380
     13  N2        28.1430    2.9900   -5.6210 N.pl3 1130  IKX1130    -0.2005
     14  C8        28.6110    2.5570   -4.3990 C.3   1130  IKX1130     0.1623
     15  C9        29.8290    3.0280   -4.2750 C.2   1130  IKX1130     0.1047
     16  C10       30.7500    2.8610   -3.1220 C.2   1130  IKX1130     0.0635
     17  N4        30.1470    3.7750   -5.4560 N.2   1130  IKX1130    -0.1460
     18  C11       31.8380    1.8480   -3.1640 C.2   1130  IKX1130     0.2356
     19  N3        29.1290    3.7190   -6.2440 N.pl3 1130  IKX1130    -0.0447
     20  O5        31.8530    0.9090   -4.1590 O.2   1130  IKX1130    -0.2831
@<TRIPOS>BOND
     1     3     2   ar
     2     1     2   ar
     3     2     4    1
     4     4     5    2
     5     4     6    1
     6     5     9    2
     7     6     7    2
     8    11    10   ar
     9     9    10    1
    10     9     8    1
    11     7    13    1
    12     7     8    1
    13    19    13    1
    14    19    17    1
    15    10    12   ar
    16    13    14    1
    17    17    15    2
    18    14    15    1
    19    15    16    1
    20    20    18    1
    21    18    16    2
