@<TRIPOS>MOLECULE
4bah_MEL_B_1.pdb
 33 35 0 0 0
SMALL
GASTEIGER

@<TRIPOS>ATOM
      1  C1        18.8170  -14.4230   24.3390 C.3   1291  MEL1291     0.0194
      2  C2        19.0530  -15.7530   25.0720 C.3   1291  MEL1291     0.0015
      3  C3        19.5190  -15.4480   26.5040 C.3   1291  MEL1291     0.0000
      4  C4        20.8090  -14.6100   26.5010 C.3   1291  MEL1291     0.0000
      5  C5        20.6120  -13.2860   25.7470 C.3   1291  MEL1291     0.0000
      6  C6        20.1140  -13.5790   24.3180 C.3   1291  MEL1291     0.0015
      7  N7        17.0340  -15.4950   22.9870 N.3   1291  MEL1291    -0.2046
      8  C8        18.2790  -14.6860   22.9180 C.3   1291  MEL1291     0.1102
      9  C9        17.9420  -13.3730   22.2630 C.2   1291  MEL1291     0.2360
     10  O0        16.8930  -12.8090   22.5600 O.2   1291  MEL1291    -0.2738
     11  N11       18.7350  -12.7990   21.3370 N.am  1291  MEL1291    -0.2771
     12  C12       18.5020  -11.6230   20.4940 C.3   1291  MEL1291     0.1136
     13  C13       17.1070  -11.7900   19.9020 C.2   1291  MEL1291     0.2540
     14  O14       16.7900  -12.8720   19.4230 O.2   1291  MEL1291    -0.2720
     15  N15       16.1760  -10.8150   20.0040 N.am  1291  MEL1291    -0.1995
     16  C16       14.8250  -11.0780   19.4730 C.3   1291  MEL1291     0.1415
     17  C17       13.8440  -11.0140   20.6130 C.ar  1291  MEL1291    -0.0006
     18  C18       13.4640  -12.1670   21.2840 C.ar  1291  MEL1291    -0.0023
     19  C19       12.5810  -12.0810   22.3580 C.ar  1291  MEL1291     0.0077
     20  C20       12.0990  -10.8210   22.7640 C.ar  1291  MEL1291     0.0975
     21  C21       12.4940   -9.6610   22.0740 C.ar  1291  MEL1291     0.0077
     22  C22       13.3900   -9.7690   21.0310 C.ar  1291  MEL1291    -0.0023
     23  C23       11.1190  -10.7320   23.8780 C.2   1291  MEL1291     0.4766
     24  N24       10.8890   -9.5960   24.4700 N.pl3 1291  MEL1291     0.2047
     25  N25       10.3990  -11.8540   24.2650 N.pl3 1291  MEL1291     0.2047
     26  C26       19.6700  -12.0180   19.5700 C.3   1291  MEL1291     0.0446
     27  C27       19.9900  -13.0980   20.6110 C.3   1291  MEL1291     0.0953
     28  C28       16.3970  -15.8260   21.6860 C.3   1291  MEL1291     0.2029
     29  C29       14.9890  -16.3550   21.8810 C.2   1291  MEL1291     0.3823
     30  O30       14.5300  -16.5920   22.9810 O.co2 1291  MEL1291    -0.2440
     31  O31       14.2300  -16.5970   20.8100 O.co2 1291  MEL1291    -0.2440
     32  H81       19.0300  -15.2200   22.3380 H     1291  MEL1291     0.0579
     33  H12       18.6260  -10.6720   21.0050 H     1291  MEL1291     0.0604
@<TRIPOS>BOND
     1    14    13    2
     2    16    15    1
     3    16    17    1
     4    26    12    1
     5    26    27    1
     6    13    15   am
     7    13    12    1
     8    12    33    1
     9    12    11    1
    10    27    11    1
    11    17    22   ar
    12    17    18   ar
    13    31    29   ar
    14    22    21   ar
    15    18    19   ar
    16    11     9   am
    17    28    29    1
    18    28     7    1
    19    29    30   ar
    20    21    20   ar
    21     9    10    2
    22     9     8    1
    23    32     8    1
    24    19    20   ar
    25    20    23    1
    26     8     7    1
    27     8     1    1
    28    23    25    2
    29    23    24    1
    30     6     1    1
    31     6     5    1
    32     1     2    1
    33     2     3    1
    34     5     4    1
    35     4     3    1
