@<TRIPOS>MOLECULE
4bak_M67_B_1.pdb
 36 38 0 0 0
SMALL
GASTEIGER

@<TRIPOS>ATOM
      1  C1        12.2020  -14.9350   19.4280 C.3   1287  M671287     0.0019
      2  C2        12.0870  -15.8450   20.6530 C.3   1287  M671287     0.0234
      3  C3        13.0710  -17.0160   20.5520 C.3   1287  M671287     0.1152
      4  N4        14.4570  -16.5260   20.6160 N.am  1287  M671287    -0.2042
      5  C5        15.0830  -16.2070   21.7670 C.2   1287  M671287     0.2591
      6  O6        14.5200  -16.3220   22.8490 O.2   1287  M671287    -0.2718
      7  C7        16.5080  -15.7250   21.6520 C.3   1287  M671287     0.1754
      8  N8        17.0910  -15.4080   22.9770 N.3   1287  M671287    -0.2065
      9  C9        18.3430  -14.6140   22.9310 C.3   1287  M671287     0.1101
     10  C11       18.8730  -14.3340   24.3520 C.3   1287  M671287     0.0194
     11  C12       19.1140  -15.6620   25.0910 C.3   1287  M671287     0.0015
     12  C13       19.6460  -15.3870   26.5060 C.3   1287  M671287     0.0000
     13  C14       20.9690  -14.6080   26.4450 C.3   1287  M671287     0.0000
     14  C15       20.7810  -13.2760   25.7050 C.3   1287  M671287     0.0000
     15  C16       20.1910  -13.5270   24.3030 C.3   1287  M671287     0.0015
     16  C17       18.0160  -13.3180   22.2410 C.2   1287  M671287     0.2360
     17  O18       16.9410  -12.7670   22.4860 O.2   1287  M671287    -0.2738
     18  N19       18.8320  -12.7660   21.3190 N.am  1287  M671287    -0.2771
     19  C20       20.1090  -13.0610   20.6390 C.3   1287  M671287     0.0953
     20  C21       19.7980  -12.0240   19.5530 C.3   1287  M671287     0.0446
     21  C22       18.6350  -11.5930   20.4600 C.3   1287  M671287     0.1136
     22  C24       17.2470  -11.7400   19.8720 C.2   1287  M671287     0.2540
     23  O25       16.9370  -12.8030   19.3720 O.2   1287  M671287    -0.2720
     24  N26       16.3190  -10.7780   20.0260 N.am  1287  M671287    -0.1995
     25  C27       14.9780  -11.0060   19.4760 C.3   1287  M671287     0.1415
     26  C28       13.9980  -10.9420   20.6110 C.ar  1287  M671287    -0.0006
     27  C29       13.7170  -12.0860   21.3400 C.ar  1287  M671287    -0.0023
     28  C30       12.8140  -12.0210   22.3880 C.ar  1287  M671287     0.0077
     29  C31       12.2070  -10.7950   22.7170 C.ar  1287  M671287     0.0975
     30  C32       12.4930   -9.6410   21.9700 C.ar  1287  M671287     0.0077
     31  C33       13.4110   -9.7240   20.9350 C.ar  1287  M671287    -0.0023
     32  C34       11.2070  -10.7410   23.8140 C.2   1287  M671287     0.4766
     33  N35       10.5160  -11.8100   24.1380 N.pl3 1287  M671287     0.2047
     34  N36       10.9460   -9.5540   24.4550 N.pl3 1287  M671287     0.2047
     35  H9        19.0980  -15.1630   22.3690 H     1287  M671287     0.0579
     36  H22       18.7780  -10.6370   20.9590 H     1287  M671287     0.0604
@<TRIPOS>BOND
     1    23    22    2
     2     1     2    1
     3    25    24    1
     4    25    26    1
     5    20    21    1
     6    20    19    1
     7    22    24   am
     8    22    21    1
     9    21    36    1
    10    21    18    1
    11     3     4    1
    12     3     2    1
    13    26    31   ar
    14    26    27   ar
    15     4     5   am
    16    19    18    1
    17    31    30   ar
    18    18    16   am
    19    27    28   ar
    20     7     5    1
    21     7     8    1
    22     5     6    2
    23    30    29   ar
    24    16    17    2
    25    16     9    1
    26    35     9    1
    27    28    29   ar
    28    29    32    1
    29     9     8    1
    30     9    10    1
    31    32    33    2
    32    32    34    1
    33    15    10    1
    34    15    14    1
    35    10    11    1
    36    11    12    1
    37    14    13    1
    38    13    12    1
