@<TRIPOS>MOLECULE
4bal_HM6_A_1.pdb
 19 20 0 0 0
SMALL
GASTEIGER

@<TRIPOS>ATOM
      1  O2       -28.3450   30.0370    1.5920 O.co2 1209  HM61209    -0.1728
      2  C1       -27.2180   29.7190    2.0430 C.2   1209  HM61209     0.7370
      3  O1       -26.6930   30.4000    2.9610 O.co2 1209  HM61209     0.2890
      4  C2       -26.5170   28.5290    1.4880 C.2   1209  HM61209     0.2868
      5  N1       -27.1920   27.7300    0.6700 N.2   1209  HM61209    -0.3800
      6  C3       -25.1970   28.2950    1.8380 C.2   1209  HM61209     0.0578
      7  C4       -24.6010   27.1550    1.2870 C.2   1209  HM61209     0.0571
      8  C5       -25.3260   26.3260    0.4260 C.3   1209  HM61209     0.1156
      9  C6       -26.6420   26.6500    0.1350 C.2   1209  HM61209     0.2689
     10  C7       -27.4760   25.8140   -0.7710 C.2   1209  HM61209     0.7332
     11  O4       -27.0110   24.7730   -1.3080 O.co2 1209  HM61209    -0.1730
     12  O3       -28.6590   26.1680   -0.9990 O.co2 1209  HM61209     0.2886
     13  N2       -23.2380   26.8640    1.6060 N.pl3 1209  HM61209    -0.2007
     14  C8       -22.5890   25.6670    1.4110 C.3   1209  HM61209     0.1604
     15  C9       -21.3590   25.8060    1.8260 C.2   1209  HM61209     0.1121
     16  C10      -20.2980   24.7550    1.8010 C.3   1209  HM61209     0.2265
     17  O5       -20.5520   23.4880    2.2760 O.3   1209  HM61209    -0.2137
     18  N4       -21.2120   27.1600    2.3120 N.2   1209  HM61209    -0.1479
     19  N3       -22.3540   27.7620    2.1650 N.pl3 1209  HM61209    -0.0449
@<TRIPOS>UNITY_ATOM_ATTR
3 1
charge 1
12 1
charge 1
@<TRIPOS>BOND
     1    11    10   ar
     2    12    10   ar
     3    10     9    1
     4     9     8    1
     5     9     5    2
     6     8     7    1
     7     5     4    2
     8     7    13    1
     9     7     6    2
    10    14    13    1
    11    14    15    1
    12     4     6    1
    13     4     2    1
    14     1     2   ar
    15    13    19    1
    16    16    15    1
    17    16    17    1
    18    15    18    2
    19     2     3   ar
    20    19    18    1
