@<TRIPOS>MOLECULE
4bam_MM9_B_1.pdb
 35 37 0 0 0
SMALL
GASTEIGER

@<TRIPOS>ATOM
      1  C1        18.7580  -14.4100   24.2350 C.3   1287  MM91287     0.0194
      2  C2        18.8850  -15.7670   24.9610 C.3   1287  MM91287     0.0015
      3  C3        19.4730  -15.5880   26.3700 C.3   1287  MM91287     0.0000
      4  C4        20.8280  -14.8600   26.3120 C.3   1287  MM91287     0.0000
      5  C5        20.6840  -13.4900   25.6230 C.3   1287  MM91287     0.0000
      6  C6        20.1280  -13.6970   24.2010 C.3   1287  MM91287     0.0015
      7  N7        16.9340  -15.3900   22.8200 N.3   1287  MM91287    -0.2065
      8  C8        18.2000  -14.6130   22.8030 C.3   1287  MM91287     0.1101
      9  C9        17.9120  -13.2740   22.1670 C.2   1287  MM91287     0.2360
     10  O0        16.8690  -12.6920   22.4490 O.2   1287  MM91287    -0.2738
     11  N11       18.7370  -12.6980   21.2700 N.am  1287  MM91287    -0.2771
     12  C12       18.5550  -11.5070   20.4350 C.3   1287  MM91287     0.1136
     13  C13       17.1810  -11.6540   19.8010 C.2   1287  MM91287     0.2540
     14  O14       16.8790  -12.6960   19.2430 O.2   1287  MM91287    -0.2720
     15  N15       16.2590  -10.6940   19.9950 N.am  1287  MM91287    -0.1995
     16  C16       14.9020  -10.8410   19.4620 C.3   1287  MM91287     0.1415
     17  C17       13.9440  -10.8230   20.6240 C.ar  1287  MM91287    -0.0006
     18  C18       13.3340   -9.6230   20.9720 C.ar  1287  MM91287    -0.0023
     19  C19       12.4450   -9.5740   22.0260 C.ar  1287  MM91287     0.0077
     20  C20       12.2150  -10.7340   22.7870 C.ar  1287  MM91287     0.0975
     21  C21       12.8420  -11.9450   22.4370 C.ar  1287  MM91287     0.0077
     22  C22       13.7010  -11.9780   21.3440 C.ar  1287  MM91287    -0.0023
     23  C23       11.2270  -10.6890   23.8950 C.2   1287  MM91287     0.4766
     24  N24       10.9340   -9.5600   24.4770 N.pl3 1287  MM91287     0.2047
     25  N25       10.5360  -11.8340   24.2760 N.pl3 1287  MM91287     0.2047
     26  C26       19.7440  -11.8950   19.5470 C.3   1287  MM91287     0.0446
     27  C27       19.9830  -13.0310   20.5500 C.3   1287  MM91287     0.0953
     28  C28       16.3400  -15.6770   21.4820 C.3   1287  MM91287     0.1738
     29  C10       14.6100  -15.5200   19.0600 C.3   1287  MM91287     0.1149
     30  C29       14.8200  -15.6910   21.5430 C.2   1287  MM91287     0.2435
     31  O30       14.2730  -15.7660   22.6390 O.2   1287  MM91287    -0.2733
     32  C30       12.5630  -15.5960   20.5270 C.3   1287  MM91287     0.1149
     33  N2        14.0380  -15.6080   20.4160 N.am  1287  MM91287    -0.2749
     34  H22       18.6680  -10.5660   20.9660 H     1287  MM91287     0.0604
     35  H8        18.9340  -15.1630   22.2160 H     1287  MM91287     0.0579
@<TRIPOS>BOND
     1    29    33    1
     2    14    13    2
     3    16    15    1
     4    16    17    1
     5    26    12    1
     6    26    27    1
     7    13    15   am
     8    13    12    1
     9    33    32    1
    10    33    30   am
    11    12    34    1
    12    12    11    1
    13    27    11    1
    14    17    18   ar
    15    17    22   ar
    16    18    19   ar
    17    11     9   am
    18    22    21   ar
    19    28    30    1
    20    28     7    1
    21    30    31    2
    22    19    20   ar
    23     9    10    2
    24     9     8    1
    25    35     8    1
    26    21    20   ar
    27    20    23    1
    28     8     7    1
    29     8     1    1
    30    23    25    2
    31    23    24    1
    32     6     1    1
    33     6     5    1
    34     1     2    1
    35     2     3    1
    36     5     4    1
    37     4     3    1
