@<TRIPOS>MOLECULE
4ban_M6S_B_1.pdb
 34 36 0 0 0
SMALL
GASTEIGER

@<TRIPOS>ATOM
      1  C1        18.7550  -14.5330   24.3130 C.3   1287  M6S1287     0.0194
      2  C2        18.9820  -15.9020   24.9910 C.3   1287  M6S1287     0.0015
      3  C3        19.5380  -15.7040   26.4150 C.3   1287  M6S1287     0.0000
      4  C4        20.8480  -14.8930   26.3990 C.3   1287  M6S1287     0.0000
      5  C5        20.6360  -13.5210   25.7340 C.3   1287  M6S1287     0.0000
      6  C6        20.0780  -13.7220   24.3110 C.3   1287  M6S1287     0.0015
      7  N7        16.9120  -15.4810   22.9110 N.3   1287  M6S1287    -0.2065
      8  C8        18.1870  -14.7150   22.8850 C.3   1287  M6S1287     0.1101
      9  C9        17.8930  -13.3740   22.2670 C.2   1287  M6S1287     0.2360
     10  O0        16.8400  -12.8000   22.5530 O.2   1287  M6S1287    -0.2738
     11  N11       18.7300  -12.7970   21.3670 N.am  1287  M6S1287    -0.2771
     12  C12       18.5620  -11.5920   20.5480 C.3   1287  M6S1287     0.1136
     13  C13       17.1940  -11.7130   19.9190 C.2   1287  M6S1287     0.2540
     14  O14       16.9030  -12.7360   19.3270 O.2   1287  M6S1287    -0.2720
     15  N15       16.2630  -10.7680   20.1290 N.am  1287  M6S1287    -0.1995
     16  C16       14.9340  -10.9720   19.5560 C.3   1287  M6S1287     0.1415
     17  C17       13.9560  -10.9430   20.6920 C.ar  1287  M6S1287    -0.0006
     18  C18       13.4490   -9.7210   21.0990 C.ar  1287  M6S1287    -0.0023
     19  C19       12.5350   -9.6630   22.1360 C.ar  1287  M6S1287     0.0077
     20  C20       12.1730  -10.8340   22.8130 C.ar  1287  M6S1287     0.0975
     21  C21       12.7020  -12.0710   22.3980 C.ar  1287  M6S1287     0.0077
     22  C22       13.5990  -12.1160   21.3380 C.ar  1287  M6S1287    -0.0023
     23  C23       11.1560  -10.7780   23.9000 C.2   1287  M6S1287     0.4766
     24  N24       10.4320  -11.8410   24.1870 N.pl3 1287  M6S1287     0.2047
     25  N25       10.8940   -9.5970   24.5570 N.pl3 1287  M6S1287     0.2047
     26  C26       19.7500  -11.9790   19.6520 C.3   1287  M6S1287     0.0446
     27  C27       19.9870  -13.1160   20.6570 C.3   1287  M6S1287     0.0953
     28  C28       16.3280  -15.8450   21.5910 C.3   1287  M6S1287     0.1754
     29  C29       14.8150  -15.9560   21.6790 C.2   1287  M6S1287     0.2592
     30  O30       14.2850  -16.3140   22.7220 O.2   1287  M6S1287    -0.2718
     31  C10       12.5900  -15.6930   20.5780 C.3   1287  M6S1287     0.1385
     32  N2        14.0640  -15.6410   20.5900 N.am  1287  M6S1287    -0.2023
     33  H8        18.9160  -15.2560   22.2830 H     1287  M6S1287     0.0579
     34  H12       18.6860  -10.6580   21.0880 H     1287  M6S1287     0.0604
@<TRIPOS>BOND
     1    14    13    2
     2    16    15    1
     3    16    17    1
     4    26    12    1
     5    26    27    1
     6    13    15   am
     7    13    12    1
     8    12    34    1
     9    12    11    1
    10    31    32    1
    11    32    29   am
    12    27    11    1
    13    17    18   ar
    14    17    22   ar
    15    18    19   ar
    16    22    21   ar
    17    11     9   am
    18    28    29    1
    19    28     7    1
    20    29    30    2
    21    19    20   ar
    22     9    10    2
    23     9     8    1
    24    33     8    1
    25    21    20   ar
    26    20    23    1
    27     8     7    1
    28     8     1    1
    29    23    24    2
    30    23    25    1
    31     6     1    1
    32     6     5    1
    33     1     2    1
    34     2     3    1
    35     5     4    1
    36     4     3    1
