@<TRIPOS>MOLECULE
4bao_MVF_B_1.pdb
 33 35 0 0 0
SMALL
GASTEIGER

@<TRIPOS>ATOM
      1  C1        18.8260  -14.4920   24.2160 C.3   1287  MVF1287     0.0194
      2  C2        18.9260  -15.7910   25.0380 C.3   1287  MVF1287     0.0015
      3  C3        19.4630  -15.4470   26.4360 C.3   1287  MVF1287     0.0000
      4  C4        20.8600  -14.8050   26.3340 C.3   1287  MVF1287     0.0000
      5  C5        20.7940  -13.4950   25.5410 C.3   1287  MVF1287     0.0000
      6  C6        20.2040  -13.7840   24.1440 C.3   1287  MVF1287     0.0015
      7  N7        16.9740  -15.5260   22.8620 N.3   1287  MVF1287    -0.2064
      8  C8        18.2640  -14.7820   22.8100 C.3   1287  MVF1287     0.1101
      9  C9        17.9860  -13.4590   22.1550 C.2   1287  MVF1287     0.2360
     10  O0        16.9690  -12.8750   22.4850 O.2   1287  MVF1287    -0.2738
     11  N11       18.7990  -12.9000   21.2270 N.am  1287  MVF1287    -0.2771
     12  C12       18.6330  -11.7020   20.3900 C.3   1287  MVF1287     0.1136
     13  C13       17.2430  -11.8200   19.8070 C.2   1287  MVF1287     0.2540
     14  O14       16.9390  -12.8630   19.2540 O.2   1287  MVF1287    -0.2720
     15  N15       16.3140  -10.8710   20.0530 N.am  1287  MVF1287    -0.1995
     16  C16       14.9510  -11.0570   19.5600 C.3   1287  MVF1287     0.1415
     17  C17       13.9780  -11.0110   20.7090 C.ar  1287  MVF1287    -0.0006
     18  C22       13.6590  -12.1700   21.4040 C.ar  1287  MVF1287    -0.0023
     19  C21       12.7390  -12.1230   22.4440 C.ar  1287  MVF1287     0.0077
     20  C20       12.1560  -10.8880   22.8020 C.ar  1287  MVF1287     0.0975
     21  C19       12.5010   -9.7210   22.0970 C.ar  1287  MVF1287     0.0077
     22  C18       13.4130   -9.7910   21.0600 C.ar  1287  MVF1287    -0.0023
     23  C23       11.1650  -10.8050   23.9070 C.2   1287  MVF1287     0.4766
     24  N25       10.4330  -11.9160   24.2990 N.pl3 1287  MVF1287     0.2047
     25  N24       10.9450   -9.6670   24.5050 N.pl3 1287  MVF1287     0.2047
     26  C26       19.7940  -12.1380   19.4720 C.3   1287  MVF1287     0.0446
     27  C27       20.0340  -13.2510   20.4970 C.3   1287  MVF1287     0.0953
     28  C28       16.3960  -15.9280   21.5510 C.3   1287  MVF1287     0.1771
     29  C29       14.9570  -16.3940   21.6930 C.2   1287  MVF1287     0.2785
     30  O30       14.3610  -16.3550   22.7550 O.2   1287  MVF1287    -0.2701
     31  N30       14.3000  -16.8850   20.6250 N.am  1287  MVF1287    -0.0865
     32  H8        18.9930  -15.3600   22.2400 H     1287  MVF1287     0.0579
     33  H12       18.7870  -10.7610   20.9130 H     1287  MVF1287     0.0604
@<TRIPOS>BOND
     1    14    13    2
     2    26    12    1
     3    26    27    1
     4    16    15    1
     5    16    17    1
     6    13    15   am
     7    13    12    1
     8    12    33    1
     9    12    11    1
    10    27    11    1
    11    31    29   am
    12    17    22   ar
    13    17    18   ar
    14    22    21   ar
    15    11     9   am
    16    18    19   ar
    17    28    29    1
    18    28     7    1
    19    29    30    2
    20    21    20   ar
    21     9    10    2
    22     9     8    1
    23    32     8    1
    24    19    20   ar
    25    20    23    1
    26     8     7    1
    27     8     1    1
    28    23    24    2
    29    23    25    1
    30     6     1    1
    31     6     5    1
    32     1     2    1
    33     2     3    1
    34     5     4    1
    35     4     3    1
