@<TRIPOS>MOLECULE
4bap_DCJ_A_1.pdb
 24 25 0 0 0
SMALL
GASTEIGER

@<TRIPOS>ATOM
      1  O4        18.7330   -1.2140   -8.9080 O.co2 1130  DCJ1130    -0.2377
      2  C7        19.5010   -0.2220   -8.9510 C.2   1130  DCJ1130     0.4168
      3  O3        20.7250   -0.3850   -9.1770 O.co2 1130  DCJ1130    -0.2377
      4  C6        18.9780    1.1370   -8.6570 C.2   1130  DCJ1130     0.2115
      5  C5        17.6470    1.3330   -8.4110 C.2   1130  DCJ1130     0.0511
      6  N1        19.8000    2.1300   -8.5970 N.2   1130  DCJ1130    -0.3924
      7  C2        19.4640    3.3600   -8.3360 C.2   1130  DCJ1130     0.1941
      8  C1        20.5510    4.3770   -8.2990 C.2   1130  DCJ1130     0.4130
      9  O2        20.2850    5.5860   -8.0610 O.co2 1130  DCJ1130    -0.2380
     10  O1        21.7410    4.0060   -8.4580 O.co2 1130  DCJ1130    -0.2380
     11  C3        18.1460    3.7300   -8.0550 C.3   1130  DCJ1130     0.1087
     12  C4        17.1980    2.6500   -8.1320 C.2   1130  DCJ1130     0.0566
     13  N2        15.8170    2.8510   -7.8280 N.pl3 1130  DCJ1130    -0.2009
     14  C8        15.0360    3.9950   -7.9570 C.3   1130  DCJ1130     0.1556
     15  N3        15.0340    1.8710   -7.2380 N.pl3 1130  DCJ1130    -0.0451
     16  N4        13.8570    2.3450   -7.0440 N.2   1130  DCJ1130    -0.1526
     17  C9        13.8480    3.6980   -7.5020 C.2   1130  DCJ1130     0.0589
     18  C10       12.6650    4.6000   -7.4470 C.3   1130  DCJ1130    -0.0264
     19  N5        11.5010    4.3060   -8.2240 N.4   1130  DCJ1130     0.3958
     20  C13       11.2160    2.9040   -8.1810 C.3   1130  DCJ1130    -0.0947
     21  C14       11.7210    4.7050   -9.5780 C.3   1130  DCJ1130    -0.0947
     22  C11       10.3980    5.0380   -7.6820 C.3   1130  DCJ1130     0.0013
     23  C12       10.4060    6.5240   -7.7850 C.2   1130  DCJ1130     0.1852
     24  O5        11.3780    7.1560   -7.3940 O.2   1130  DCJ1130    -0.2906
@<TRIPOS>BOND
     1    21    19    1
     2     3     2   ar
     3     2     1   ar
     4     2     4    1
     5     4     6    2
     6     4     5    1
     7     6     7    2
     8    10     8   ar
     9     5    12    2
    10     7     8    1
    11     7    11    1
    12     8     9   ar
    13    19    20    1
    14    19    22    1
    15    19    18    1
    16    12    11    1
    17    12    13    1
    18    14    13    1
    19    14    17    1
    20    13    15    1
    21    23    22    1
    22    23    24    2
    23    17    18    1
    24    17    16    2
    25    15    16    1
