@<TRIPOS>MOLECULE
4baq_M4Z_B_1.pdb
 35 37 0 0 0
SMALL
GASTEIGER

@<TRIPOS>ATOM
      1  C1        18.7700  -14.5310   24.2010 C.3   1287  M4Z1287     0.0194
      2  C2        18.8900  -15.8540   24.9790 C.3   1287  M4Z1287     0.0015
      3  C3        19.4250  -15.5690   26.3880 C.3   1287  M4Z1287     0.0000
      4  C4        20.8250  -14.9400   26.2940 C.3   1287  M4Z1287     0.0000
      5  C5        20.7250  -13.5770   25.5940 C.3   1287  M4Z1287     0.0000
      6  C6        20.1110  -13.7580   24.1860 C.3   1287  M4Z1287     0.0015
      7  N7        17.0040  -15.5640   22.7950 N.3   1287  M4Z1287    -0.2065
      8  C8        18.2700  -14.7950   22.7660 C.3   1287  M4Z1287     0.1101
      9  C9        17.9940  -13.4660   22.1110 C.2   1287  M4Z1287     0.2360
     10  O0        16.9890  -12.8630   22.4510 O.2   1287  M4Z1287    -0.2738
     11  N11       18.8060  -12.9080   21.1800 N.am  1287  M4Z1287    -0.2771
     12  C12       18.6340  -11.7030   20.3590 C.3   1287  M4Z1287     0.1136
     13  C13       17.2390  -11.8210   19.7690 C.2   1287  M4Z1287     0.2540
     14  O14       16.8970  -12.8940   19.2870 O.2   1287  M4Z1287    -0.2720
     15  N15       16.3370  -10.8280   19.9420 N.am  1287  M4Z1287    -0.1995
     16  C16       14.9700  -11.0130   19.4510 C.3   1287  M4Z1287     0.1415
     17  C17       14.0140  -11.0280   20.6150 C.ar  1287  M4Z1287    -0.0006
     18  C22       13.4600   -9.8210   21.0260 C.ar  1287  M4Z1287    -0.0023
     19  C21       12.5830   -9.7860   22.0930 C.ar  1287  M4Z1287     0.0077
     20  C20       12.2690  -10.9790   22.7660 C.ar  1287  M4Z1287     0.0975
     21  C19       12.8180  -12.2040   22.3360 C.ar  1287  M4Z1287     0.0077
     22  C18       13.7050  -12.2160   21.2610 C.ar  1287  M4Z1287    -0.0023
     23  C23       11.2680  -10.9270   23.8550 C.2   1287  M4Z1287     0.4766
     24  N24       10.5420  -11.9780   24.1770 N.pl3 1287  M4Z1287     0.2047
     25  N25       11.0360   -9.7280   24.4760 N.pl3 1287  M4Z1287     0.2047
     26  C26       19.7960  -12.1120   19.4430 C.3   1287  M4Z1287     0.0446
     27  C27       20.0340  -13.2570   20.4360 C.3   1287  M4Z1287     0.0953
     28  C28       16.3660  -15.8900   21.4900 C.3   1287  M4Z1287     0.1754
     29  C10       12.0350  -15.5660   19.4200 C.3   1287  M4Z1287     0.0252
     30  C29       14.8900  -16.2140   21.6700 C.2   1287  M4Z1287     0.2591
     31  O30       14.4460  -16.5720   22.7540 O.2   1287  M4Z1287    -0.2718
     32  C24       12.6200  -16.3420   20.6020 C.3   1287  M4Z1287     0.1152
     33  N3        14.0720  -16.1010   20.5930 N.am  1287  M4Z1287    -0.2042
     34  H8        19.0210  -15.3580   22.2110 H     1287  M4Z1287     0.0579
     35  H12       18.7880  -10.7750   20.9050 H     1287  M4Z1287     0.0604
@<TRIPOS>BOND
     1    14    13    2
     2    29    32    1
     3    26    12    1
     4    26    27    1
     5    16    15    1
     6    16    17    1
     7    13    15   am
     8    13    12    1
     9    12    35    1
    10    12    11    1
    11    27    11    1
    12    33    32    1
    13    33    30   am
    14    17    18   ar
    15    17    22   ar
    16    18    19   ar
    17    11     9   am
    18    22    21   ar
    19    28    30    1
    20    28     7    1
    21    30    31    2
    22    19    20   ar
    23     9    10    2
    24     9     8    1
    25    34     8    1
    26    21    20   ar
    27    20    23    1
    28     8     7    1
    29     8     1    1
    30    23    24    2
    31    23    25    1
    32     6     1    1
    33     6     5    1
    34     1     2    1
    35     2     3    1
    36     5     4    1
    37     4     3    1
