@<TRIPOS>MOLECULE
4bar_IKX_A_1.pdb
 20 21 0 0 0
SMALL
GASTEIGER

@<TRIPOS>ATOM
      1  O1         4.2170    1.8410   36.2590 O.co2 1208  IKX1208    -0.2377
      2  C1         3.1600    1.4320   36.7460 C.2   1208  IKX1208     0.4168
      3  O2         2.7690    0.3480   36.4680 O.co2 1208  IKX1208    -0.2377
      4  C2         2.4070    2.3340   37.6290 C.2   1208  IKX1208     0.2115
      5  N1         1.3620    1.7890   38.1660 N.2   1208  IKX1208    -0.3924
      6  C3         2.8340    3.6020   37.9280 C.2   1208  IKX1208     0.0511
      7  C4         2.0480    4.3310   38.7970 C.2   1208  IKX1208     0.0566
      8  C5         0.9050    3.7360   39.3490 C.3   1208  IKX1208     0.1087
      9  C6         0.5770    2.4400   38.9780 C.2   1208  IKX1208     0.1941
     10  C7        -0.6010    1.6680   39.5180 C.2   1208  IKX1208     0.4130
     11  O4        -1.3750    2.2200   40.3270 O.co2 1208  IKX1208    -0.2380
     12  O3        -0.8870    0.5540   39.2010 O.co2 1208  IKX1208    -0.2380
     13  N2         2.4700    5.6350   39.1070 N.pl3 1208  IKX1208    -0.2005
     14  C8         1.7720    6.7640   39.4450 C.3   1208  IKX1208     0.1623
     15  C9         2.6590    7.6990   39.5840 C.2   1208  IKX1208     0.1047
     16  C10        2.5290    9.1320   39.9170 C.2   1208  IKX1208     0.0635
     17  N4         3.9170    7.1360   39.4040 N.2   1208  IKX1208    -0.1460
     18  C11        2.4160    9.5810   41.3140 C.2   1208  IKX1208     0.2356
     19  N3         3.7900    5.9350   39.1020 N.pl3 1208  IKX1208    -0.0447
     20  O5         2.1680    8.6580   42.2730 O.2   1208  IKX1208    -0.2831
@<TRIPOS>BOND
     1     1     2   ar
     2     3     2   ar
     3     2     4    1
     4     4     6    1
     5     4     5    2
     6     6     7    2
     7     5     9    2
     8     7    13    1
     9     7     8    1
    10     9     8    1
    11     9    10    1
    12    19    13    1
    13    19    17    1
    14    13    14    1
    15    12    10   ar
    16    17    15    2
    17    14    15    1
    18    10    11   ar
    19    15    16    1
    20    16    18    2
    21    18    20    1
