@<TRIPOS>MOLECULE
4bas_GNP_A_1.pdb
 32 34 0 0 0
SMALL
GASTEIGER

@<TRIPOS>ATOM
      1  PG        42.2600   21.8170    8.0330 P.3   1182  GNP1182     0.4884
      2  O1G       40.8380   21.5920    8.4490 O.3   1182  GNP1182    -0.1240
      3  O2G       42.5610   21.1540    6.6100 O.2   1182  GNP1182    -0.2331
      4  O3G       42.5060   23.3790    8.0520 O.3   1182  GNP1182    -0.1240
      5  N3B       43.3350   20.9570    9.0680 N.3   1182  GNP1182    -0.0163
      6  PB        43.2300   21.1990   10.7580 P.3   1182  GNP1182     0.4669
      7  O1B       43.8680   22.4870   11.1510 O.3   1182  GNP1182    -0.1253
      8  O2B       41.6850   21.1840   11.0780 O.2   1182  GNP1182    -0.2351
      9  O3A       44.0210   19.9270   11.3190 O.3   1182  GNP1182    -0.2360
     10  PA        43.3670   18.5640   11.8070 P.3   1182  GNP1182     0.2220
     11  O1A       42.7860   18.7130   13.1750 O.3   1182  GNP1182    -0.4370
     12  O2A       42.5370   17.9310   10.7310 O.2   1182  GNP1182    -0.5170
     13  O5'       44.7200   17.7570   12.0410 O.3   1182  GNP1182    -0.3111
     14  C5'       45.6840   17.5690   11.0210 C.3   1182  GNP1182     0.1813
     15  C4'       46.5390   16.3580   11.3790 C.3   1182  GNP1182     0.1799
     16  O4'       47.4600   16.6800   12.4440 O.3   1182  GNP1182    -0.3326
     17  C3'       45.7540   15.1540   11.8840 C.3   1182  GNP1182     0.2158
     18  O3'       46.4300   13.9520   11.5190 O.3   1182  GNP1182    -0.2175
     19  C2'       45.8280   15.2260   13.3850 C.3   1182  GNP1182     0.2310
     20  O2'       45.7140   13.9610   14.0450 O.3   1182  GNP1182    -0.2158
     21  C1'       47.2260   15.7720   13.5560 C.3   1182  GNP1182     0.2293
     22  N9        47.3990   16.5230   14.8070 N.pl3 1182  GNP1182    -0.2354
     23  C8        46.6230   17.5040   15.2760 C.3   1182  GNP1182     0.2246
     24  N7        47.1550   17.9960   16.4110 N.2   1182  GNP1182    -0.2322
     25  C5        48.2790   17.3220   16.6600 C.2   1182  GNP1182     0.2182
     26  C6        49.3280   17.3220   17.6930 C.1   1182  GNP1182     0.2372
     27  O6        49.2490   18.1290   18.6180 O.2   1182  GNP1182    -0.2069
     28  N1        50.3600   16.4700   17.5700 N.2   1182  GNP1182    -0.2485
     29  C2        50.4410   15.6010   16.5460 C.1   1182  GNP1182     0.2531
     30  N2        51.4760   14.7440   16.4530 N.pl3 1182  GNP1182    -0.0226
     31  N3        49.5130   15.5410   15.5740 N.2   1182  GNP1182    -0.3074
     32  C4        48.4490   16.3710   15.5830 C.2   1182  GNP1182     0.2300
@<TRIPOS>BOND
     1     3     1    2
     2     1     4    1
     3     1     2    1
     4     1     5    1
     5     5     6    1
     6    12    10    2
     7     6     8    2
     8     6     7    1
     9     6     9    1
    10    14    15    1
    11    14    13    1
    12     9    10    1
    13    15    17    1
    14    15    16    1
    15    18    17    1
    16    10    13    1
    17    10    11    1
    18    17    19    1
    19    16    21    1
    20    19    21    1
    21    19    20    1
    22    21    22    1
    23    22    23    1
    24    22    32    1
    25    23    24    1
    26    31    32    2
    27    31    29    2
    28    32    25    1
    29    24    25    2
    30    30    29    1
    31    29    28    2
    32    25    26    1
    33    28    26    2
    34    26    27    2
