@<TRIPOS>MOLECULE
4bb2_STR_B_1.pdb
 23 26 0 0 0
SMALL
GASTEIGER

@<TRIPOS>ATOM
      1  C1       -30.5220   -8.7000    2.1330 C.3   1384  STR1384     0.0118
      2  C2       -30.6380   -7.5620    3.1480 C.3   1384  STR1384     0.0694
      3  C3       -30.3490   -8.0960    4.5340 C.2   1384  STR1384     0.1725
      4  O3       -30.9020   -7.6230    5.5140 O.2   1384  STR1384    -0.2914
      5  C4       -29.3840   -9.2000    4.7130 C.2   1384  STR1384     0.0289
      6  C5       -28.8290   -9.8330    3.6670 C.2   1384  STR1384    -0.0420
      7  C6       -27.7490  -10.8570    3.9560 C.3   1384  STR1384     0.0221
      8  C7       -28.0890  -12.1850    3.2840 C.3   1384  STR1384     0.0044
      9  C8       -28.4180  -12.0050    1.8040 C.3   1384  STR1384     0.0006
     10  C9       -29.5140  -10.9350    1.5620 C.3   1384  STR1384     0.0035
     11  C10      -29.2490   -9.5640    2.2300 C.3   1384  STR1384     0.0157
     12  C11      -29.8880  -10.8250    0.0680 C.3   1384  STR1384     0.0003
     13  C12      -30.2290  -12.1680   -0.5910 C.3   1384  STR1384     0.0004
     14  C13      -29.1680  -13.2350   -0.3160 C.3   1384  STR1384     0.0065
     15  C14      -28.8900  -13.3260    1.1840 C.3   1384  STR1384     0.0004
     16  C15      -28.0950  -14.6140    1.3900 C.3   1384  STR1384     0.0004
     17  C16      -28.7090  -15.5360    0.3290 C.3   1384  STR1384     0.0073
     18  C17      -29.6290  -14.6680   -0.5550 C.3   1384  STR1384     0.0576
     19  C18      -27.9060  -12.9240   -1.1410 C.3   1384  STR1384     0.0004
     20  C19      -28.0960   -8.8020    1.5700 C.3   1384  STR1384     0.0041
     21  C20      -29.6780  -15.0840   -2.0140 C.2   1384  STR1384     0.1507
     22  O20      -28.7980  -15.8070   -2.4700 O.2   1384  STR1384    -0.2961
     23  C21      -30.8250  -14.6120   -2.8740 C.3   1384  STR1384     0.0722
@<TRIPOS>BOND
     1    23    21    1
     2    22    21    2
     3    21    18    1
     4    19    14    1
     5    13    14    1
     6    13    12    1
     7    18    14    1
     8    18    17    1
     9    14    15    1
    10    12    10    1
    11    17    16    1
    12    15    16    1
    13    15     9    1
    14    10     9    1
    15    10    11    1
    16    20    11    1
    17     9     8    1
    18     1    11    1
    19     1     2    1
    20    11     6    1
    21     2     3    1
    22     8     7    1
    23     6     7    1
    24     6     5    2
    25     3     5    1
    26     3     4    2
