@<TRIPOS>MOLECULE
4bb4_32W_A_1.pdb
 30 33 0 0 0
SMALL
GASTEIGER

@<TRIPOS>ATOM
      1  O1        14.1650   14.6920   10.0410 O.2   1889  32W1889    -0.2684
      2  C3        13.3530   14.0190   10.6730 C.2   1889  32W1889     0.2649
      3  N         12.2400   14.5460   11.1980 N.am  1889  32W1889    -0.1990
      4  C2        11.8750   15.9530   11.0590 C.3   1889  32W1889     0.1474
      5  C1        12.3970   16.8110   12.1760 C.3   1889  32W1889     0.1656
      6  O         11.8160   16.3560   13.3820 O.3   1889  32W1889    -0.3492
      7  C         12.2640   17.0930   14.5080 C.3   1889  32W1889     0.1742
      8  C4        13.5850   12.5560   10.9070 C.ar  1889  32W1889     0.0551
      9  C22       14.8840   12.0490   10.9030 C.ar  1889  32W1889     0.0059
     10  C21       15.1150   10.6990   11.1060 C.ar  1889  32W1889     0.0175
     11  C7        14.0470    9.8120   11.1800 C.ar  1889  32W1889     0.0826
     12  C6        12.7570   10.3220   11.2900 C.ar  1889  32W1889     0.0175
     13  C5        12.5240   11.6720   11.0920 C.ar  1889  32W1889     0.0059
     14  N1        14.3250    8.4760   11.5280 N.pl3 1889  32W1889    -0.1358
     15  C8        13.5590    7.3910   11.8030 C.1   1889  32W1889     0.1696
     16  N3        12.1820    7.4260   11.4960 N.2   1889  32W1889    -0.3361
     17  C15       11.4950    6.2700   11.7650 C.ar  1889  32W1889     0.1456
     18  C10       12.1380    5.1120   12.2700 C.ar  1889  32W1889     0.0505
     19  C9        13.5440    5.2200   12.4340 C.2   1889  32W1889     0.1143
     20  N2        14.2370    6.3240   12.2610 N.2   1889  32W1889    -0.1683
     21  C14       10.1060    6.2200   11.4910 C.ar  1889  32W1889     0.0331
     22  C13        9.3800    5.0960   11.7630 C.ar  1889  32W1889     0.0027
     23  C12        9.9810    3.9380   12.2660 C.ar  1889  32W1889     0.0003
     24  C11       11.3490    3.9570   12.5030 C.ar  1889  32W1889     0.0042
     25  C16        9.1720    2.7720   12.6840 C.ar  1889  32W1889     0.0031
     26  C20        8.7130    1.8340   11.7660 C.ar  1889  32W1889     0.0207
     27  C19        7.9660    0.7610   12.2140 C.ar  1889  32W1889     0.0989
     28  N4         7.6680    0.5450   13.5000 N.ar  1889  32W1889    -0.2423
     29  C18        8.1310    1.4350   14.3820 C.ar  1889  32W1889     0.0989
     30  C17        8.8870    2.5390   14.0300 C.ar  1889  32W1889     0.0207
@<TRIPOS>BOND
     1     1     2    2
     2     2     8    1
     3     2     3   am
     4     9     8   ar
     5     9    10   ar
     6     8    13   ar
     7     4     3    1
     8     4     5    1
     9    13    12   ar
    10    10    11   ar
    11    11    12   ar
    12    11    14    1
    13    21    22   ar
    14    21    17   ar
    15    16    17    2
    16    16    15    2
    17    14    15    1
    18    22    23   ar
    19    17    18   ar
    20    26    27   ar
    21    26    25   ar
    22    15    20    2
    23     5     6    1
    24    27    28   ar
    25    20    19    1
    26    23    24   ar
    27    23    25    1
    28    18    19    2
    29    18    24   ar
    30    25    30   ar
    31     6     7    1
    32    28    29   ar
    33    30    29   ar
