@<TRIPOS>MOLECULE
4bb5_NAP_A_1.pdb
 48 52 0 0 0
SMALL
GASTEIGER

@<TRIPOS>ATOM
      1  PA        24.9840  -16.2590  -42.6400 P.3   1290  NAP1290     0.2189
      2  O1A       25.2830  -15.0210  -43.3590 O.2   1290  NAP1290    -0.5170
      3  O2A       26.0180  -17.3280  -42.4910 O.3   1290  NAP1290    -0.4371
      4  O5B       23.7070  -16.8440  -43.1930 O.3   1290  NAP1290    -0.3112
      5  C5B       22.5010  -15.9830  -43.4020 C.3   1290  NAP1290     0.1813
      6  C4B       21.5060  -17.2560  -43.8370 C.3   1290  NAP1290     0.1820
      7  O4B       20.3100  -16.2830  -44.2730 O.3   1290  NAP1290    -0.3136
      8  C3B       21.9200  -17.9280  -45.3550 C.3   1290  NAP1290     0.2157
      9  O3B       21.2700  -19.1970  -45.2440 O.3   1290  NAP1290    -0.2175
     10  C2B       21.1460  -16.9050  -46.2320 C.3   1290  NAP1290     0.2314
     11  O2B       20.8780  -17.6930  -47.3800 O.3   1290  NAP1290    -0.2630
     12  C1B       19.7550  -16.6740  -45.4000 C.3   1290  NAP1290     0.3158
     13  N9A       19.2150  -15.4380  -46.0380 N.pl3 1290  NAP1290    -0.1439
     14  C8A       19.8330  -14.1880  -46.3620 C.3   1290  NAP1290     0.3377
     15  N7A       18.9600  -13.3920  -46.9270 N.2   1290  NAP1290    -0.2095
     16  C5A       17.8240  -14.0250  -46.9950 C.2   1290  NAP1290     0.2526
     17  C6A       16.4930  -13.7080  -47.5160 C.2   1290  NAP1290     0.4393
     18  N6A       16.1070  -12.5790  -48.1090 N.pl3 1290  NAP1290     0.2180
     19  N1A       15.5260  -14.8220  -47.3290 N.2   1290  NAP1290     0.0021
     20  C2A       15.7960  -16.0110  -46.8000 C.3   1290  NAP1290     0.5254
     21  N3A       17.0150  -16.2680  -46.3250 N.2   1290  NAP1290    -0.0055
     22  C4A       17.9700  -15.3230  -46.4350 C.2   1290  NAP1290     0.3518
     23  O3        24.6870  -15.6150  -41.1150 O.3   1290  NAP1290    -0.2703
     24  PN        25.1910  -16.1100  -39.6750 P.3   1290  NAP1290     0.2189
     25  O1N       25.1790  -17.6190  -39.5720 O.2   1290  NAP1290    -0.5170
     26  O2N       26.3350  -15.2460  -39.2590 O.3   1290  NAP1290    -0.4371
     27  O5D       23.9400  -15.3730  -38.9790 O.3   1290  NAP1290    -0.3112
     28  C5D       22.8070  -16.2290  -38.4660 C.3   1290  NAP1290     0.1813
     29  C4D       22.0770  -15.5940  -37.3830 C.3   1290  NAP1290     0.1799
     30  O4D       23.0720  -15.3470  -36.2900 O.3   1290  NAP1290    -0.3327
     31  C3D       21.5780  -14.0350  -37.7580 C.3   1290  NAP1290     0.2158
     32  O3D       20.2400  -13.9810  -37.0930 O.3   1290  NAP1290    -0.2175
     33  C2D       22.5240  -13.2700  -37.0620 C.3   1290  NAP1290     0.2309
     34  O2D       21.9280  -11.9600  -36.7040 O.3   1290  NAP1290    -0.2158
     35  C1D       22.8460  -14.0990  -35.8150 C.3   1290  NAP1290     0.2263
     36  N1N       24.2240  -13.6170  -35.3500 N.pl3 1290  NAP1290    -0.2787
     37  C2N       25.4390  -13.8910  -36.0170 C.3   1290  NAP1290     0.1244
     38  C3N       26.6750  -13.3820  -35.4710 C.2   1290  NAP1290     0.0544
     39  C7N       27.9650  -13.6990  -36.1560 C.2   1290  NAP1290     0.2818
     40  O7N       28.9000  -13.2730  -35.6800 O.2   1290  NAP1290    -0.2670
     41  N7N       27.9210  -14.4620  -37.2810 N.am  1290  NAP1290    -0.0839
     42  C4N       26.5840  -12.5430  -34.1980 C.2   1290  NAP1290     0.0033
     43  C5N       25.3710  -12.2870  -33.5810 C.2   1290  NAP1290     0.0157
     44  C6N       24.2320  -12.8720  -34.2050 C.2   1290  NAP1290     0.0633
     45  P2B       20.9140  -17.2680  -48.9120 P.3   1290  NAP1290     0.5328
     46  O1X       19.4610  -16.7590  -49.0070 O.3   1290  NAP1290    -0.1145
     47  O2X       21.5090  -15.8880  -49.1150 O.3   1290  NAP1290    -0.1145
     48  O3X       20.8070  -18.5060  -49.8760 O.2   1290  NAP1290    -0.2224
@<TRIPOS>BOND
     1    48    45    2
     2    47    45    1
     3    46    45    1
     4    45    11    1
     5    18    17    1
     6    17    19    2
     7    17    16    1
     8    11    10    1
     9    19    20    1
    10    16    15    2
    11    16    22    1
    12    15    14    1
    13    20    21    1
    14    22    21    2
    15    22    13    1
    16    14    13    1
    17    10    12    1
    18    10     8    1
    19    13    12    1
    20    12     7    1
    21     8     9    1
    22     8     6    1
    23     7     6    1
    24     6     5    1
    25     5     4    1
    26     2     1    2
    27     4     1    1
    28     1     3    1
    29     1    23    1
    30    23    24    1
    31    24    25    2
    32    24    26    1
    33    24    27    1
    34    27    28    1
    35    28    29    1
    36    31    29    1
    37    31    32    1
    38    31    33    1
    39    29    30    1
    40    41    39   am
    41    33    34    1
    42    33    35    1
    43    30    35    1
    44    39    40    2
    45    39    38    1
    46    37    38    1
    47    37    36    1
    48    35    36    1
    49    38    42    2
    50    36    44    1
    51    44    43    2
    52    42    43    1
