@<TRIPOS>MOLECULE
4bb5_HD2_A_1.pdb
 31 36 0 0 0
SMALL
GASTEIGER

@<TRIPOS>ATOM
      1  C1        27.7990   -9.5180  -32.3120 C.2   1291  HD21291     0.1185
      2  C2        27.7230   -8.6540  -33.3820 C.2   1291  HD21291     0.1012
      3  C3        28.4880   -7.5010  -33.3310 C.2   1291  HD21291     0.1278
      4  N4        29.2370   -7.2510  -32.2480 N.2   1291  HD21291    -0.3407
      5  C5        29.2640   -8.1480  -31.2540 C.1   1291  HD21291     0.1653
      6  N6        28.5550   -9.2900  -31.2300 N.2   1291  HD21291    -0.1685
      7  N7        30.0570   -7.8190  -30.1480 N.pl3 1291  HD21291    -0.1554
      8  C8        28.5220   -6.4280  -34.3980 C.3   1291  HD21291     0.0622
      9  C9        29.8630   -6.4050  -35.1130 C.3   1291  HD21291     0.0331
     10  C10       30.4230   -5.0040  -35.0320 C.2   1291  HD21291    -0.0303
     11  C11       29.4310   -4.1570  -34.2600 C.2   1291  HD21291    -0.0303
     12  C12       28.3300   -5.0680  -33.7590 C.3   1291  HD21291     0.0331
     13  C13       26.8830   -9.0610  -34.5190 C.2   1291  HD21291     0.2685
     14  O14       25.7100   -9.3700  -34.3830 O.2   1291  HD21291    -0.2682
     15  N15       27.6000   -9.1410  -35.6780 N.am  1291  HD21291    -0.2033
     16  C16       27.0200   -9.5600  -36.9280 C.3   1291  HD21291     0.0957
     17  C17       28.0830  -10.2750  -37.7690 C.3   1291  HD21291     0.0225
     18  C18       29.1330   -9.2550  -38.2670 C.3   1291  HD21291     0.0019
     19  C19       28.4850   -8.1270  -39.0850 C.3   1291  HD21291     0.0026
     20  C20       27.4570   -7.3880  -38.2130 C.3   1291  HD21291     0.0019
     21  C21       26.3890   -8.3990  -37.7220 C.3   1291  HD21291     0.0225
     22  C22       25.6740   -8.9950  -38.9370 C.3   1291  HD21291     0.0321
     23  C23       26.7080   -9.7450  -39.7890 C.3   1291  HD21291     0.1267
     24  C24       27.7540   -8.7370  -40.2890 C.3   1291  HD21291     0.0304
     25  C25       27.3710  -10.8700  -38.9920 C.3   1291  HD21291     0.0321
     26  O26       26.0350  -10.3640  -40.8720 O.3   1291  HD21291    -0.2257
     27  C27       31.4990   -7.9070  -30.3560 C.3   1291  HD21291     0.1732
     28  C28       32.0250   -7.1060  -31.5090 C.2   1291  HD21291     0.0397
     29  C29       33.1190   -6.2500  -30.9650 C.2   1291  HD21291     0.1696
     30  O30       33.1340   -6.3710  -29.5550 O.2   1291  HD21291    -0.4704
     31  C31       32.1240   -7.2820  -29.1410 C.3   1291  HD21291     0.2323
@<TRIPOS>BOND
     1    26    23    1
     2    24    23    1
     3    24    19    1
     4    23    25    1
     5    23    22    1
     6    19    18    1
     7    19    20    1
     8    25    17    1
     9    22    21    1
    10    18    17    1
    11    20    21    1
    12    17    16    1
    13    21    16    1
    14    16    15    1
    15    15    13   am
    16     9    10    1
    17     9     8    1
    18    10    11    2
    19    13    14    2
    20    13     2    1
    21     8    12    1
    22     8     3    1
    23    11    12    1
    24     2     3    1
    25     2     1    2
    26     3     4    2
    27     1     6    1
    28     4     5    2
    29    28    29    2
    30    28    27    1
    31     5     6    2
    32     5     7    1
    33    29    30    1
    34    27     7    1
    35    27    31    1
    36    30    31    1
