@<TRIPOS>MOLECULE
4bb6_HD1_A_1.pdb
 31 35 0 0 0
SMALL
GASTEIGER

@<TRIPOS>ATOM
      1  O1        -7.5790   58.9610   16.7240 O.2   1293  HD11293    -0.2683
      2  C14       -7.2280   58.5810   15.5970 C.2   1293  HD11293     0.2674
      3  N4        -6.2350   59.1810   14.9240 N.am  1293  HD11293    -0.2034
      4  C15       -5.5010   60.3220   15.4630 C.3   1293  HD11293     0.0957
      5  C20       -4.2490   59.9540   16.2510 C.3   1293  HD11293     0.0225
      6  C19       -3.1470   59.3810   15.3320 C.3   1293  HD11293     0.0019
      7  C21       -3.7360   61.2480   16.8740 C.3   1293  HD11293     0.0321
      8  C22       -3.4120   62.2680   15.7530 C.3   1293  HD11293     0.1267
      9  C23       -2.3240   61.6910   14.8550 C.3   1293  HD11293     0.0304
     10  C18       -2.8010   60.3830   14.2220 C.3   1293  HD11293     0.0026
     11  C17       -4.0650   60.6650   13.4230 C.3   1293  HD11293     0.0019
     12  O2        -2.9730   63.4870   16.3330 O.3   1293  HD11293    -0.2257
     13  C24       -4.6480   62.5460   14.9220 C.3   1293  HD11293     0.0321
     14  C16       -5.1490   61.2700   14.3320 C.3   1293  HD11293     0.0225
     15  C5        -7.9340   57.4070   14.9130 C.2   1293  HD11293     0.0868
     16  C6        -9.2540   57.5750   14.5100 C.2   1293  HD11293    -0.0096
     17  C7        -9.8690   56.5910   13.7380 C.3   1293  HD11293     0.1010
     18  C8        -9.1390   55.4620   13.3160 C.2   1293  HD11293     0.1651
     19  N2        -9.7520   54.4570   12.5460 N.pl3 1293  HD11293    -0.2839
     20  C12       -8.7610   53.8170   11.6810 C.3   1293  HD11293     0.1102
     21  C11       -9.3910   52.5840   11.0120 C.3   1293  HD11293     0.0939
     22  N3       -10.6700   52.9370   10.3200 N.3   1293  HD11293    -0.2686
     23  C13      -11.3970   51.6820    9.9680 C.3   1293  HD11293     0.0897
     24  C10      -11.5420   53.7840   11.1940 C.3   1293  HD11293     0.0939
     25  C9       -10.7830   55.0280   11.6820 C.3   1293  HD11293     0.1102
     26  N1        -7.8550   55.3220   13.6880 N.2   1293  HD11293    -0.3848
     27  C4        -7.2350   56.2710   14.4130 C.2   1293  HD11293     0.1622
     28  S1        -5.5400   56.0310   14.8200 S.3   1293  HD11293    -0.0822
     29  C3        -4.9070   55.3940   13.2870 C.3   1293  HD11293     0.0647
     30  C2        -4.7690   53.8850   13.3550 C.3   1293  HD11293     0.0121
     31  C1        -4.1210   53.2920   12.1160 C.3   1293  HD11293     0.0009
@<TRIPOS>BOND
     1    23    22    1
     2    22    21    1
     3    22    24    1
     4    21    20    1
     5    24    25    1
     6    20    19    1
     7    25    19    1
     8    31    30    1
     9    19    18    1
    10    29    30    1
    11    29    28    1
    12    18    26    2
    13    18    17    1
    14    11    10    1
    15    11    14    1
    16    26    27    2
    17    17    16    1
    18    10     9    1
    19    10     6    1
    20    14    13    1
    21    14     4    1
    22    27    28    1
    23    27    15    1
    24    16    15    2
    25     9     8    1
    26    15     2    1
    27    13     8    1
    28     3     4    1
    29     3     2   am
    30     6     5    1
    31     4     5    1
    32     2     1    2
    33     8    12    1
    34     8     7    1
    35     5     7    1
