@<TRIPOS>MOLECULE
4bb6_NAP_A_1.pdb
 48 52 0 0 0
SMALL
GASTEIGER

@<TRIPOS>ATOM
      1  O1X        0.3090   73.9390   21.8580 O.3   1292  NAP1292    -0.1145
      2  P2B        0.0740   74.1240   20.3810 P.3   1292  NAP1292     0.5328
      3  O2X        1.1240   73.2420   19.7800 O.2   1292  NAP1292    -0.2224
      4  O3X        0.3130   75.5860   20.0070 O.3   1292  NAP1292    -0.1145
      5  O2B       -1.4390   73.7470   19.9940 O.3   1292  NAP1292    -0.2630
      6  C2B       -1.9490   72.4290   20.0120 C.3   1292  NAP1292     0.2314
      7  C3B       -3.2650   72.3930   19.2740 C.3   1292  NAP1292     0.2157
      8  O3B       -4.0080   73.5510   19.5900 O.3   1292  NAP1292    -0.2175
      9  C1B       -2.4250   71.9100   21.3720 C.3   1292  NAP1292     0.3158
     10  N9A       -1.3050   71.3250   22.1150 N.pl3 1292  NAP1292    -0.1439
     11  C8A       -0.3170   70.4960   21.6660 C.3   1292  NAP1292     0.3377
     12  N7A        0.5210   70.2180   22.7000 N.2   1292  NAP1292    -0.2095
     13  C5A        0.0840   70.8820   23.7910 C.2   1292  NAP1292     0.2526
     14  C4A       -1.0640   71.5750   23.4380 C.2   1292  NAP1292     0.3518
     15  N3A       -1.7240   72.3300   24.3410 N.2   1292  NAP1292    -0.0055
     16  C2A       -1.2520   72.4530   25.6350 C.3   1292  NAP1292     0.5254
     17  N1A       -0.1140   71.7690   25.9920 N.2   1292  NAP1292     0.0021
     18  C6A        0.5570   70.9910   25.0810 C.2   1292  NAP1292     0.4393
     19  N6A        1.6530   70.3540   25.4470 N.pl3 1292  NAP1292     0.2180
     20  O4B       -3.5080   71.0080   21.1560 O.3   1292  NAP1292    -0.3136
     21  C4B       -3.9960   71.1880   19.8350 C.3   1292  NAP1292     0.1820
     22  C5B       -3.7780   69.9940   18.9300 C.3   1292  NAP1292     0.1813
     23  O5B       -4.5050   70.3140   17.7650 O.3   1292  NAP1292    -0.3112
     24  PA        -4.5210   69.3830   16.4380 P.3   1292  NAP1292     0.2189
     25  O1A       -3.1850   68.7940   16.1300 O.3   1292  NAP1292    -0.4371
     26  O2A       -5.1390   70.0620   15.2830 O.2   1292  NAP1292    -0.5170
     27  O3        -5.5080   68.2550   16.9770 O.3   1292  NAP1292    -0.2703
     28  PN        -6.9170   67.8650   16.4000 P.3   1292  NAP1292     0.2189
     29  O1N       -6.6930   67.1240   15.1560 O.2   1292  NAP1292    -0.5170
     30  O2N       -7.8020   69.0490   16.3820 O.3   1292  NAP1292    -0.4371
     31  O5D       -7.4080   66.9230   17.5980 O.3   1292  NAP1292    -0.3112
     32  C5D       -8.0260   67.4740   18.7400 C.3   1292  NAP1292     0.1813
     33  C4D       -8.6300   66.3680   19.5870 C.3   1292  NAP1292     0.1799
     34  O4D       -9.4750   65.5160   18.8200 O.3   1292  NAP1292    -0.3327
     35  C1D       -9.0780   64.1680   19.0490 C.3   1292  NAP1292     0.2263
     36  C2D       -7.6240   64.1970   19.4810 C.3   1292  NAP1292     0.2309
     37  O2D       -7.2330   63.0780   20.2510 O.3   1292  NAP1292    -0.2158
     38  C3D       -7.5750   65.4910   20.2520 C.3   1292  NAP1292     0.2158
     39  O3D       -7.9410   65.2780   21.6070 O.3   1292  NAP1292    -0.2175
     40  N1N       -9.2150   63.3250   17.8530 N.pl3 1292  NAP1292    -0.2787
     41  C2N       -8.7880   63.7760   16.6610 C.3   1292  NAP1292     0.1244
     42  C3N       -8.9100   62.9460   15.5600 C.2   1292  NAP1292     0.0544
     43  C7N       -8.5010   63.4170   14.2160 C.2   1292  NAP1292     0.2818
     44  N7N       -7.9890   64.6370   14.0370 N.am  1292  NAP1292    -0.0839
     45  O7N       -8.6680   62.5210   13.1780 O.2   1292  NAP1292    -0.2670
     46  C4N       -9.4540   61.6690   15.6810 C.2   1292  NAP1292     0.0033
     47  C5N       -9.8760   61.2330   16.9070 C.2   1292  NAP1292     0.0157
     48  C6N       -9.7380   62.0810   17.9920 C.2   1292  NAP1292     0.0633
@<TRIPOS>BOND
     1    45    43    2
     2    44    43   am
     3    43    42    1
     4    29    28    2
     5    26    24    2
     6    42    46    2
     7    42    41    1
     8    46    47    1
     9    25    24    1
    10    30    28    1
    11    28    27    1
    12    28    31    1
    13    24    27    1
    14    24    23    1
    15    41    40    1
    16    47    48    2
    17    31    32    1
    18    23    22    1
    19    40    48    1
    20    40    35    1
    21    32    33    1
    22    34    35    1
    23    34    33    1
    24    22    21    1
    25    35    36    1
    26     7     8    1
    27     7    21    1
    28     7     6    1
    29    36    37    1
    30    36    38    1
    31    33    38    1
    32     3     2    2
    33    21    20    1
    34     5     6    1
    35     5     2    1
    36     4     2    1
    37     6     9    1
    38    38    39    1
    39     2     1    1
    40    20     9    1
    41     9    10    1
    42    11    10    1
    43    11    12    1
    44    10    14    1
    45    12    13    2
    46    14    13    1
    47    14    15    2
    48    13    18    1
    49    15    16    1
    50    18    19    1
    51    18    17    2
    52    16    17    1
