@<TRIPOS>MOLECULE
4bbe_3O4_A_1.pdb
 29 32 0 0 0
SMALL
GASTEIGER

@<TRIPOS>ATOM
      1  O23        2.6020   -6.9730   -6.0520 O.2   2229  3O42229    -0.2730
      2  C22        1.6770   -7.7360   -5.7750 C.2   2229  3O42229     0.2461
      3  N24        1.6930   -8.6600   -4.8080 N.am  2229  3O42229    -0.1792
      4  C25        2.7050   -8.9160   -3.9660 C.ar  2229  3O42229     0.0734
      5  C26        3.9640   -8.3180   -4.0850 C.ar  2229  3O42229     0.0167
      6  C19        0.3690   -7.6770   -6.5640 C.3   2229  3O42229     0.0968
      7  C17        3.4870  -10.1240   -2.0230 C.ar  2229  3O42229     0.0039
      8  C16        4.7450   -9.5300   -2.1420 C.ar  2229  3O42229     0.0307
      9  C12        5.7420   -9.8450   -1.2160 C.2   2229  3O42229     0.1457
     10  C11        6.9870   -9.2220   -1.2470 C.2   2229  3O42229     0.0545
     11  C10        7.9290   -9.5790   -0.2880 C.2   2229  3O42229     0.1144
     12  N15        7.6340  -10.4910    0.6270 N.2   2229  3O42229    -0.1683
     13  C14        6.4270  -11.0880    0.6560 C.1   2229  3O42229     0.1696
     14  N13        5.4970  -10.7610   -0.2620 N.2   2229  3O42229    -0.3361
     15  N7         6.1890  -12.0030    1.6080 N.pl3 2229  3O42229    -0.1358
     16  C1         5.0140  -12.5920    1.8910 C.ar  2229  3O42229     0.0827
     17  C2         5.0250  -13.6820    2.7600 C.ar  2229  3O42229     0.0186
     18  C3         3.8440  -14.3390    3.0970 C.ar  2229  3O42229     0.0159
     19  C4         2.6230  -13.9130    2.5700 C.ar  2229  3O42229     0.0481
     20  C5         2.6060  -12.8170    1.7010 C.ar  2229  3O42229     0.0159
     21  C6         3.7910  -12.1610    1.3670 C.ar  2229  3O42229     0.0186
     22  C90        2.4740   -9.8200   -2.9300 C.ar  2229  3O42229     0.0167
     23  N8         1.4280  -14.5830    2.9250 N.pl3 2229  3O42229    -0.3028
     24  C13        4.9780   -8.6210   -3.1770 C.ar  2229  3O42229     0.0039
     25  C9         1.3720  -15.3760    4.1890 C.3   2229  3O42229     0.1231
     26  C31        0.5050  -16.6310    4.0280 C.3   2229  3O42229     0.1636
     27  O30       -0.7680  -16.2520    3.4610 O.3   2229  3O42229    -0.3501
     28  C29       -0.6210  -15.7790    2.1030 C.3   2229  3O42229     0.1636
     29  C28        0.2190  -14.4920    2.0540 C.3   2229  3O42229     0.1231
@<TRIPOS>BOND
     1     6     2    1
     2     1     2    2
     3     2     3   am
     4     3     4    1
     5     5     4   ar
     6     5    24   ar
     7     4    22   ar
     8    24     8   ar
     9    22     7   ar
    10     8     7   ar
    11     8     9    1
    12    10     9    1
    13    10    11    2
    14     9    14    2
    15    11    12    1
    16    14    13    2
    17    12    13    2
    18    13    15    1
    19    21    20   ar
    20    21    16   ar
    21    15    16    1
    22    20    19   ar
    23    16    17   ar
    24    29    28    1
    25    29    23    1
    26    28    27    1
    27    19    23    1
    28    19    18   ar
    29    17    18   ar
    30    23    25    1
    31    27    26    1
    32    26    25    1
