@<TRIPOS>MOLECULE
4bbf_O19_A_1.pdb
 33 37 0 0 0
SMALL
GASTEIGER

@<TRIPOS>ATOM
      1  O10       -1.3500  -26.8590  -32.1030 O.2   2229  O192229    -0.2715
      2  C9        -1.8570  -25.8660  -31.5760 C.2   2229  O192229     0.2614
      3  C11       -1.1160  -25.1280  -30.5140 C.3   2229  O192229     0.1508
      4  C15       -1.6610  -25.6520  -29.1790 C.3   2229  O192229     0.0282
      5  C14       -0.8600  -26.9320  -28.9120 C.3   2229  O192229     0.0208
      6  C13        0.4980  -26.6410  -29.5170 C.3   2229  O192229     0.0893
      7  N12        0.2640  -25.5430  -30.4660 N.3   2229  O192229    -0.2102
      8  N8        -3.1000  -25.4040  -31.7760 N.am  2229  O192229    -0.1780
      9  C6        -4.0890  -25.8690  -32.6570 C.ar  2229  O192229     0.0734
     10  C1        -3.9360  -27.0530  -33.3960 C.ar  2229  O192229     0.0167
     11  C5        -5.2650  -25.1050  -32.7280 C.ar  2229  O192229     0.0167
     12  C4        -6.3400  -25.5260  -33.5280 C.ar  2229  O192229     0.0039
     13  C3        -6.1710  -26.7120  -34.2750 C.ar  2229  O192229     0.0307
     14  C2        -5.0000  -27.4500  -34.2170 C.ar  2229  O192229     0.0039
     15  C7        -7.2250  -27.1730  -35.2020 C.2   2229  O192229     0.1457
     16  N20       -6.8070  -28.0420  -36.1570 N.2   2229  O192229    -0.3361
     17  C19       -7.6990  -28.5560  -37.0220 C.1   2229  O192229     0.1696
     18  N18       -8.9470  -28.1300  -36.9750 N.2   2229  O192229    -0.1683
     19  C17       -9.4340  -27.2370  -36.0740 C.2   2229  O192229     0.1144
     20  C16       -8.5740  -26.7360  -35.1040 C.2   2229  O192229     0.0545
     21  N21       -7.4000  -29.3640  -38.0600 N.pl3 2229  O192229    -0.1358
     22  C22       -6.2160  -30.0380  -38.3500 C.ar  2229  O192229     0.0827
     23  C27       -4.9810  -29.7400  -37.7480 C.ar  2229  O192229     0.0186
     24  C26       -3.8460  -30.4820  -38.0600 C.ar  2229  O192229     0.0159
     25  C25       -3.9660  -31.5420  -38.9540 C.ar  2229  O192229     0.0481
     26  C24       -5.1840  -31.8540  -39.5390 C.ar  2229  O192229     0.0159
     27  C23       -6.3060  -31.1060  -39.2330 C.ar  2229  O192229     0.0186
     28  N28       -2.8620  -32.3230  -39.2560 N.pl3 2229  O192229    -0.3028
     29  C33       -1.8720  -32.6030  -38.1750 C.3   2229  O192229     0.1231
     30  C32       -0.7540  -33.5720  -38.5840 C.3   2229  O192229     0.1636
     31  O31       -0.7980  -33.9930  -39.9560 O.3   2229  O192229    -0.3501
     32  C30       -2.1180  -34.2200  -40.4710 C.3   2229  O192229     0.1636
     33  C29       -2.7840  -32.8670  -40.6180 C.3   2229  O192229     0.1231
@<TRIPOS>BOND
     1    33    32    1
     2    33    28    1
     3    32    31    1
     4    31    30    1
     5    26    27   ar
     6    26    25   ar
     7    28    25    1
     8    28    29    1
     9    27    22   ar
    10    25    24   ar
    11    30    29    1
    12    22    21    1
    13    22    23   ar
    14    24    23   ar
    15    21    17    1
    16    17    18    2
    17    17    16    2
    18    18    19    1
    19    16    15    2
    20    19    20    2
    21    15    20    1
    22    15    13    1
    23    13    14   ar
    24    13    12   ar
    25    14    10   ar
    26    12    11   ar
    27    10     9   ar
    28    11     9   ar
    29     9     8    1
    30     1     2    2
    31     8     2   am
    32     2     3    1
    33     3     7    1
    34     3     4    1
    35     7     6    1
    36     6     5    1
    37     4     5    1
