@<TRIPOS>MOLECULE
4bbh_YBN_A_1.pdb
 28 31 0 0 0
SMALL
GASTEIGER

@<TRIPOS>ATOM
      1  C         24.8180   49.9600   64.2900 C.3   1001  YBN1001     0.2525
      2  N         27.4310   41.0870   68.0210 N.3   1001  YBN1001    -0.2178
      3  O         25.1070   49.1830   63.1240 O.3   1001  YBN1001    -0.4714
      4  S         22.4330   41.8270   63.0790 S.2   1001  YBN1001    -0.0775
      5  C1        24.2120   48.2680   62.5730 C.ar  1001  YBN1001     0.1385
      6  O1        24.8340   43.8320   62.8490 O.3   1001  YBN1001    -0.4400
      7  C2        23.1270   48.7210   61.7960 C.ar  1001  YBN1001     0.0369
      8  O2        26.2070   42.0820   63.5580 O.2   1001  YBN1001    -0.2442
      9  C3        22.2120   47.8150   61.2490 C.ar  1001  YBN1001     0.0029
     10  O3        24.9680   40.3950   65.5620 O.3   1001  YBN1001    -0.4783
     11  C4        22.3890   46.4420   61.4870 C.ar  1001  YBN1001    -0.0005
     12  C5        23.4690   45.9250   62.2270 C.ar  1001  YBN1001     0.0243
     13  C6        23.5730   44.3960   62.4110 C.3   1001  YBN1001     0.2355
     14  C7        25.0790   42.4940   63.3910 C.2   1001  YBN1001     0.3506
     15  C8        23.9600   41.6420   63.8310 C.ar  1001  YBN1001     0.1390
     16  C9        21.6810   40.6300   64.0340 C.ar  1001  YBN1001     0.0327
     17  C10       20.3230   40.2240   63.9960 C.ar  1001  YBN1001     0.0066
     18  C11       19.8460   39.2470   64.9260 C.ar  1001  YBN1001     0.0005
     19  C12       20.7390   38.6940   65.8340 C.ar  1001  YBN1001     0.0001
     20  C13       22.0770   39.0870   65.8940 C.ar  1001  YBN1001     0.0035
     21  C14       22.5590   40.0680   64.9900 C.ar  1001  YBN1001     0.0407
     22  C15       23.8590   40.6740   64.8260 C.ar  1001  YBN1001     0.1509
     23  C16       24.8370   40.5390   66.9870 C.3   1001  YBN1001     0.1688
     24  C17       25.6540   39.4510   67.6990 C.3   1001  YBN1001     0.0623
     25  C18       27.1150   39.7770   67.4110 C.3   1001  YBN1001     0.0924
     26  C19       26.6450   42.2520   67.7150 C.3   1001  YBN1001     0.0924
     27  C20       25.1820   41.9800   67.4510 C.3   1001  YBN1001     0.0623
     28  C21       24.3820   46.8690   62.7700 C.ar  1001  YBN1001     0.0362
@<TRIPOS>BOND
     1     9    11   ar
     2     9     7   ar
     3    11    12   ar
     4     7     5   ar
     5    12    13    1
     6    12    28   ar
     7    13     6    1
     8     5    28   ar
     9     5     3    1
    10     6    14    1
    11     4    15   ar
    12     4    16   ar
    13     3     1    1
    14    14     8    2
    15    14    15    1
    16    15    22   ar
    17    17    16   ar
    18    17    18   ar
    19    16    21   ar
    20    22    21   ar
    21    22    10    1
    22    18    19   ar
    23    21    20   ar
    24    10    23    1
    25    19    20   ar
    26    23    27    1
    27    23    24    1
    28    25    24    1
    29    25     2    1
    30    27    26    1
    31    26     2    1
