@<TRIPOS>MOLECULE
4bbm_TC0_A_1.pdb
 31 35 0 0 0
SMALL
GASTEIGER

@<TRIPOS>ATOM
      1  C1        -1.0970    6.9440  -40.3480 C.3   500  TC0500      0.0188
      2  C2         0.2570    6.8210  -40.4830 C.3   500  TC0500      0.0188
      3  C3        -0.5420    5.5200  -40.5490 C.3   500  TC0500      0.0733
      4  N1        -0.6300    4.9200  -41.9050 N.3   500  TC0500     -0.2147
      5  C4        -1.6080    3.8220  -42.0450 C.3   500  TC0500      0.1149
      6  C5        -2.9220    4.2520  -42.3540 C.ar  500  TC0500     -0.0046
      7  C6        -3.5460    5.2680  -41.6430 C.ar  500  TC0500      0.0008
      8  C7        -4.8480    5.6580  -41.9580 C.ar  500  TC0500      0.0441
      9  C10       -3.6520    3.6290  -43.3670 C.ar  500  TC0500      0.0008
     10  C9        -4.9610    4.0140  -43.6790 C.ar  500  TC0500      0.0441
     11  C8        -5.5870    5.0450  -42.9770 C.ar  500  TC0500      0.1831
     12  N2        -6.8440    5.5310  -43.1540 N.pl3 500  TC0500     -0.0075
     13  C11       -7.7640    5.1810  -44.0850 C.2   500  TC0500      0.3750
     14  C12       -7.8950    4.1600  -44.9500 C.3   500  TC0500      0.1734
     15  N4        -8.8320    5.9530  -44.2220 N.2   500  TC0500      0.0796
     16  N3        -9.5850    5.4970  -45.0960 N.2   500  TC0500     -0.0383
     17  C13       -9.0460    4.3920  -45.6070 C.2   500  TC0500      0.1177
     18  C14       -9.6410    3.6100  -46.5360 C.ar  500  TC0500      0.0179
     19  C19       -8.9920    2.5370  -47.1610 C.ar  500  TC0500      0.0013
     20  C18       -9.6480    1.7080  -48.0770 C.ar  500  TC0500      0.0001
     21  C15      -10.9960    3.8000  -46.8450 C.ar  500  TC0500      0.0013
     22  C16      -11.6520    2.9690  -47.7580 C.ar  500  TC0500      0.0001
     23  C17      -10.9960    1.9040  -48.3880 C.ar  500  TC0500      0.0031
     24  C20      -11.6660    1.0910  -49.3240 C.ar  500  TC0500      0.0392
     25  C21      -11.0050    0.6980  -50.4920 C.ar  500  TC0500      0.0065
     26  C22      -11.6450   -0.0930  -51.4470 C.ar  500  TC0500      0.0422
     27  C23      -12.9630   -0.5090  -51.2650 C.ar  500  TC0500      0.1989
     28  O2       -13.5790   -1.2860  -52.2090 O.3   500  TC0500     -0.2865
     29  C24      -13.6460   -0.1270  -50.1100 C.ar  500  TC0500      0.0840
     30  C25      -12.9970    0.6680  -49.1600 C.ar  500  TC0500      0.1988
     31  O1       -13.6540    1.0550  -48.0280 O.3   500  TC0500     -0.2865
@<TRIPOS>BOND
     1    28    27    1
     2    26    27   ar
     3    26    25   ar
     4    27    29   ar
     5    25    24   ar
     6    29    30   ar
     7    24    30   ar
     8    24    23    1
     9    30    31    1
    10    23    20   ar
    11    23    22   ar
    12    20    19   ar
    13    22    21   ar
    14    19    18   ar
    15    21    18   ar
    16    18    17    1
    17    17    16    2
    18    17    14    1
    19    16    15    1
    20    14    13    1
    21    15    13    2
    22    13    12    1
    23    10     9   ar
    24    10    11   ar
    25     9     6   ar
    26    12    11    1
    27    11     8   ar
    28     6     5    1
    29     6     7   ar
    30     5     4    1
    31     8     7   ar
    32     4     3    1
    33     3     2    1
    34     3     1    1
    35     2     1    1
