@<TRIPOS>MOLECULE
4bbt_HC4_A_1.pdb
 11 11 0 0 0
SMALL
GASTEIGER

@<TRIPOS>ATOM
      1  C1         3.7250  -11.8970    6.2920 C.2   169  HC4169      0.2339
      2  O1         4.2530  -12.2550    5.2380 O.2   169  HC4169     -0.2832
      3  C2         4.3920  -11.9430    7.5170 C.2   169  HC4169      0.0415
      4  C3         5.7370  -12.2980    7.7780 C.2   169  HC4169     -0.0143
      5  C1'        6.8000  -12.8400    7.0180 C.3   169  HC4169      0.0661
      6  C2'        7.9980  -13.1320    7.6900 C.2   169  HC4169     -0.0144
      7  C3'        9.0800  -13.7720    7.0720 C.2   169  HC4169      0.0381
      8  C4'        8.9700  -14.1680    5.7460 C.2   169  HC4169      0.1951
      9  C5'        7.7780  -13.9000    5.0710 C.2   169  HC4169      0.0381
     10  C6'        6.6960  -13.2510    5.6880 C.2   169  HC4169     -0.0144
     11  O4'        9.9150  -14.7570    5.1830 O.2   169  HC4169     -0.2866
@<TRIPOS>BOND
     1     9    10    2
     2     9     8    1
     3    11     8    2
     4     2     1    2
     5    10     5    1
     6     8     7    1
     7     1     3    1
     8     5     6    1
     9     5     4    1
    10     7     6    2
    11     3     4    2
