@<TRIPOS>MOLECULE
4bbu_HC4_A_1.pdb
 11 11 0 0 0
SMALL
GASTEIGER

@<TRIPOS>ATOM
      1  C1         4.2170  -11.8140    7.2070 C.2   169  HC4169      0.2343
      2  O1         4.2200  -12.6390    6.2900 O.2   169  HC4169     -0.2831
      3  C2         5.3110  -11.5020    8.0150 C.2   169  HC4169      0.0454
      4  C3         6.6530  -11.9140    8.0230 C.2   169  HC4169      0.0031
      5  C1'        7.4070  -12.7510    7.2080 C.2   169  HC4169     -0.0036
      6  C2'        8.6410  -13.1330    7.7460 C.2   169  HC4169      0.0026
      7  C3'        9.5510  -13.9020    7.0400 C.2   169  HC4169      0.0378
      8  C4'        9.2050  -14.2770    5.7410 C.2   169  HC4169      0.1775
      9  C5'        7.9760  -13.8960    5.1820 C.3   169  HC4169      0.0951
     10  C6'        7.0600  -13.1390    5.9170 C.2   169  HC4169     -0.0180
     11  O4'       10.0450  -14.8810    5.0520 O.2   169  HC4169     -0.2910
@<TRIPOS>BOND
     1    11     8    2
     2     9     8    1
     3     9    10    1
     4     8     7    1
     5    10     5    2
     6     2     1    2
     7     7     6    2
     8     1     3    1
     9     5     6    1
    10     5     4    1
    11     3     4    2
