@<TRIPOS>MOLECULE
4bbv_HC4_A_1.pdb
 11 11 0 0 0
SMALL
GASTEIGER

@<TRIPOS>ATOM
      1  C1         3.3840  -11.9980    6.6030 C.2   169  HC4169      0.2343
      2  O1         3.5870  -12.2860    7.7860 O.2   169  HC4169     -0.2831
      3  C2         4.3110  -12.2770    5.6040 C.2   169  HC4169      0.0454
      4  C3         5.7160  -12.4020    5.7150 C.2   169  HC4169      0.0031
      5  C1'        6.5740  -12.2320    6.8130 C.2   169  HC4169     -0.0036
      6  C2'        6.3050  -11.3340    7.8310 C.2   169  HC4169     -0.0180
      7  C3'        7.2540  -11.1550    8.8480 C.3   169  HC4169      0.0951
      8  C4'        8.4540  -11.8610    8.8450 C.2   169  HC4169      0.1775
      9  C5'        8.7050  -12.7690    7.8170 C.2   169  HC4169      0.0378
     10  C6'        7.7650  -12.9430    6.8080 C.2   169  HC4169      0.0026
     11  O4'        9.2730  -11.7610    9.7670 O.2   169  HC4169     -0.2910
@<TRIPOS>BOND
     1     3     4    2
     2     3     1    1
     3     4     5    1
     4     1     2    2
     5    10     5    1
     6    10     9    2
     7     5     6    2
     8     9     8    1
     9     6     7    1
    10     8     7    1
    11     8    11    2
