@<TRIPOS>MOLECULE
4bbz_FUL_A_1.pdb
 10 10 0 0 0
SMALL
GASTEIGER

@<TRIPOS>ATOM
      1  C1        -0.6180  -55.5660  -28.4960 C.3   562  FUL562      0.1776
      2  C2        -1.5150  -56.0570  -27.3310 C.3   562  FUL562      0.2141
      3  O2        -1.2560  -55.3650  -26.1160 O.3   562  FUL562     -0.2176
      4  C3        -3.0090  -55.9620  -27.7170 C.3   562  FUL562      0.2172
      5  O3        -3.8390  -56.5710  -26.7180 O.3   562  FUL562     -0.2175
      6  C4        -3.2440  -56.6980  -29.0310 C.3   562  FUL562      0.2116
      7  O4        -2.9310  -58.0670  -28.8560 O.3   562  FUL562     -0.2177
      8  C5        -2.3350  -56.1110  -30.1110 C.3   562  FUL562      0.1483
      9  C6        -2.4180  -56.8620  -31.4210 C.3   562  FUL562      0.0349
     10  O5        -0.9540  -56.1750  -29.7220 O.3   562  FUL562     -0.3508
@<TRIPOS>BOND
     1     9     8    1
     2     8    10    1
     3     8     6    1
     4    10     1    1
     5     6     7    1
     6     6     4    1
     7     1     2    1
     8     4     2    1
     9     4     5    1
    10     2     3    1
