@<TRIPOS>MOLECULE
4bbz_4OJ_A_1.pdb
 11 11 0 0 0
SMALL
GASTEIGER

@<TRIPOS>ATOM
      1  C1       -13.5450  -40.3430  -22.4310 C.ar  1530  4OJ1530    -0.0013
      2  C2       -13.8320  -41.5720  -23.0250 C.ar  1530  4OJ1530    -0.0001
      3  C3       -15.1400  -41.9190  -23.3630 C.ar  1530  4OJ1530     0.0031
      4  C4       -16.1700  -41.0270  -23.0990 C.ar  1530  4OJ1530     0.0370
      5  C5       -15.8860  -39.7980  -22.5060 C.ar  1530  4OJ1530     0.1423
      6  C6       -14.5820  -39.4540  -22.1740 C.ar  1530  4OJ1530     0.0125
      7  O12      -16.8710  -38.8790  -22.2110 O.3   1530  4OJ1530    -0.4226
      8  P13      -17.4770  -37.7510  -23.1370 P.3   1530  4OJ1530     0.4584
      9  O1P      -18.9560  -37.8510  -23.0380 O.3   1530  4OJ1530    -0.1317
     10  O2P      -17.0180  -37.8670  -24.5270 O.3   1530  4OJ1530    -0.1317
     11  C7       -14.3270  -38.1030  -21.5260 C.3   1530  4OJ1530     0.0342
@<TRIPOS>BOND
     1    10     8    1
     2     3     4   ar
     3     3     2   ar
     4     8     9    1
     5     8     7    1
     6     4     5   ar
     7     2     1   ar
     8     5     7    1
     9     5     6   ar
    10     1     6   ar
    11     6    11    1
