@<TRIPOS>MOLECULE
4bc0_4OJ_A_1.pdb
 11 11 0 0 0
SMALL
GASTEIGER

@<TRIPOS>ATOM
      1  C1        -7.3690  -25.1760   19.4970 C.ar  600  4OJ600     -0.0013
      2  C2        -8.6370  -24.6010   19.3450 C.ar  600  4OJ600     -0.0001
      3  C3        -9.3290  -24.1160   20.4530 C.ar  600  4OJ600      0.0031
      4  C4        -8.7300  -24.2180   21.7110 C.ar  600  4OJ600      0.0370
      5  C5        -7.4630  -24.7940   21.8700 C.ar  600  4OJ600      0.1423
      6  C6        -6.7760  -25.2660   20.7540 C.ar  600  4OJ600      0.0125
      7  O12       -6.8960  -24.8720   23.1270 O.3   600  4OJ600     -0.4226
      8  P13       -7.5420  -24.4030   24.5280 P.3   600  4OJ600      0.4584
      9  O1P       -8.3840  -25.4310   25.0860 O.3   600  4OJ600     -0.1317
     10  O2P       -8.2600  -23.1080   24.5050 O.3   600  4OJ600     -0.1317
     11  C7        -5.4010  -25.8920   20.9040 C.3   600  4OJ600      0.0342
@<TRIPOS>BOND
     1     2     1   ar
     2     2     3   ar
     3     1     6   ar
     4     3     4   ar
     5     6    11    1
     6     6     5   ar
     7     4     5   ar
     8     5     7    1
     9     7     8    1
    10    10     8    1
    11     8     9    1
