@<TRIPOS>MOLECULE
4bc1_TQV_A_1.pdb
 19 20 0 0 0
SMALL
GASTEIGER

@<TRIPOS>ATOM
      1  P          8.5830  -24.6230   88.3600 P.3   600  TQV600      0.4299
      2  C1         7.7620  -24.7170   91.0360 C.ar  600  TQV600      0.1422
      3  C2         7.9530  -23.3860   91.3760 C.ar  600  TQV600      0.0370
      4  O1P        9.2420  -23.2830   88.8090 O.3   600  TQV600     -0.2821
      5  C3         7.6130  -22.9240   92.6410 C.ar  600  TQV600      0.0031
      6  O2P        8.1360  -25.2330   89.7800 O.3   600  TQV600     -0.4240
      7  C4         7.1210  -23.8040   93.5970 C.ar  600  TQV600     -0.0001
      8  O3P        9.5410  -25.4420   87.6490 O.3   600  TQV600     -0.1333
      9  C5         6.9690  -25.1460   93.2830 C.ar  600  TQV600     -0.0013
     10  C6         7.3250  -25.6070   92.0270 C.ar  600  TQV600      0.0125
     11  C7         7.0990  -27.0710   91.7480 C.3   600  TQV600      0.0342
     12  C8        10.5950  -23.1520   89.2250 C.3   600  TQV600      0.1815
     13  C9        11.3690  -22.5850   88.2200 C.ar  600  TQV600      0.0467
     14  C10       10.9540  -22.6550   86.8920 C.ar  600  TQV600      0.0013
     15  C11       11.7430  -22.0920   85.8970 C.ar  600  TQV600     -0.0000
     16  C12       12.9440  -21.4610   86.2300 C.ar  600  TQV600      0.0033
     17  C13       13.3600  -21.3850   87.5580 C.ar  600  TQV600      0.0418
     18  C14       12.5660  -21.9480   88.5560 C.ar  600  TQV600      0.1941
     19  O15       12.9050  -21.9130   89.8790 O.3   600  TQV600     -0.2868
@<TRIPOS>BOND
     1    15    16   ar
     2    15    14   ar
     3    16    17   ar
     4    14    13   ar
     5    17    18   ar
     6     8     1    1
     7    13    18   ar
     8    13    12    1
     9     1     4    1
    10     1     6    1
    11    18    19    1
    12     4    12    1
    13     6     2    1
    14     2     3   ar
    15     2    10   ar
    16     3     5   ar
    17    11    10    1
    18    10     9   ar
    19     5     7   ar
    20     9     7   ar
