@<TRIPOS>MOLECULE
4bc2_ADP_A_1.pdb
 31 33 0 0 0
SMALL
GASTEIGER

@<TRIPOS>ATOM
      1  O5'        9.8820   10.6840    5.8030 O.3   1533  ADP1533    -0.2320
      2  C5'       11.2770   10.3120    5.8300 C.3   1533  ADP1533     0.1116
      3  C4'       11.4580    9.2380    6.8750 C.3   1533  ADP1533     0.1156
      4  C3'       12.1600    9.6800    8.1650 C.3   1533  ADP1533     0.1134
      5  O3'       11.5160    9.1560    9.3260 O.3   1533  ADP1533    -0.3864
      6  C2'       13.5770    9.1340    7.9870 C.3   1533  ADP1533     0.1266
      7  O2'       14.1870    8.8120    9.2310 O.3   1533  ADP1533    -0.3849
      8  C1'       13.3000    7.8490    7.2100 C.3   1533  ADP1533     0.1617
      9  O4'       12.2490    8.1600    6.3230 O.3   1533  ADP1533    -0.3473
     10  N9        14.4310    7.3470    6.4390 N.pl3 1533  ADP1533    -0.2234
     11  C4        14.8540    6.0440    6.3390 C.2   1533  ADP1533     0.2354
     12  C5        16.0700    6.0920    5.6740 C.2   1533  ADP1533     0.2211
     13  N7        16.3860    7.3960    5.3240 N.2   1533  ADP1533    -0.3871
     14  C8        15.3820    8.0960    5.7930 C.2   1533  ADP1533     0.1451
     15  N3        14.2420    4.9470    6.8130 N.2   1533  ADP1533    -0.3287
     16  C2        14.9830    3.8550    6.6040 C.1   1533  ADP1533     0.0930
     17  N1        16.1790    3.7520    6.0110 N.2   1533  ADP1533    -0.3296
     18  C6        16.7610    4.8720    5.5170 C.2   1533  ADP1533     0.2227
     19  N6        17.9770    4.7730    4.9600 N.pl3 1533  ADP1533    -0.3300
     20 HO3'       12.1980    8.9100   10.0050 H     1533  ADP1533     0.2100
     21 HO2'       14.7970    9.5620    9.4630 H     1533  ADP1533     0.2101
     22 HN61       18.4390    3.8760    4.8490 H     1533  ADP1533     0.1448
     23 HN62       18.4640    5.6020    4.6340 H     1533  ADP1533     0.1448
     24 H5'2       11.5000    9.9770    4.8190 H     1533  ADP1533     0.0618
     25 H5'1       11.9110   11.1840    5.9910 H     1533  ADP1533     0.0618
     26  H8        15.3130    9.1740    5.6550 H     1533  ADP1533     0.1149
     27  H4'       10.5020    8.7540    7.0730 H     1533  ADP1533     0.0648
     28  H3'       12.1760   10.7640    8.2700 H     1533  ADP1533     0.0647
     29  H2'       14.1700    9.8760    7.4550 H     1533  ADP1533     0.0663
     30  H2        14.5300    2.9370    6.9760 H     1533  ADP1533     0.1751
     31  H1'       12.9810    7.0440    7.8680 H     1533  ADP1533     0.0841
@<TRIPOS>BOND
     1    23    19    1
     2    24     2    1
     3    22    19    1
     4    19    18    1
     5    13    12    2
     6    13    14    2
     7    18    12    1
     8    18    17    2
     9    26    14    1
    10    12    11    1
    11    14    10    1
    12     1     2    1
    13     2    25    1
    14     2     3    1
    15    17    16    2
    16     9     3    1
    17     9     8    1
    18    11    10    1
    19    11    15    2
    20    10     8    1
    21    16    15    2
    22    16    30    1
    23     3    27    1
    24     3     4    1
    25     8    31    1
    26     8     6    1
    27    29     6    1
    28     6     4    1
    29     6     7    1
    30     4    28    1
    31     4     5    1
    32     7    21    1
    33     5    20    1
