@<TRIPOS>MOLECULE
4bc2_XUL_A_1.pdb
 20 19 0 0 0
SMALL
GASTEIGER

@<TRIPOS>ATOM
      1  C2        -6.6820   11.2180    0.7960 C.2   1534  XUL1534     0.1892
      2  C1        -6.7670    9.8890    0.0810 C.3   1534  XUL1534     0.1049
      3  C5        -4.2990   14.1840   -0.1540 C.3   1534  XUL1534     0.0730
      4  C4        -5.5690   13.3240   -0.1440 C.3   1534  XUL1534     0.1109
      5  C3        -5.3700   12.0380    0.6720 C.3   1534  XUL1534     0.1431
      6  O2        -7.5960   11.6360    1.4630 O.2   1534  XUL1534    -0.2921
      7  O1        -7.9640    9.1960    0.4280 O.3   1534  XUL1534    -0.3874
      8  O5        -4.5090   15.4510   -0.7830 O.3   1534  XUL1534    -0.3924
      9  O4        -5.9310   12.9770   -1.4760 O.3   1534  XUL1534    -0.3865
     10  O3        -4.3130   11.2940    0.1140 O.3   1534  XUL1534    -0.3815
     11  HO5       -3.8190   15.5560   -1.4890 H     1534  XUL1534     0.2095
     12  HO4       -5.1900   12.4540   -1.8780 H     1534  XUL1534     0.2100
     13  HO3       -3.4530   11.5390    0.5460 H     1534  XUL1534     0.2105
     14  HO1       -8.7250    9.7360    0.0880 H     1534  XUL1534     0.2100
     15  H52       -3.9960   14.3710    0.8760 H     1534  XUL1534     0.0584
     16  H51       -3.4740   13.6410   -0.6120 H     1534  XUL1534     0.0584
     17  H4        -6.4320   13.8970    0.1910 H     1534  XUL1534     0.0646
     18  H3        -5.0020   12.2820    1.6670 H     1534  XUL1534     0.0701
     19  H12       -6.6650   10.1120   -0.9790 H     1534  XUL1534     0.0637
     20  H11       -5.9530    9.2120    0.3310 H     1534  XUL1534     0.0637
@<TRIPOS>BOND
     1    12     9    1
     2    11     8    1
     3     9     4    1
     4    19     2    1
     5     8     3    1
     6    16     3    1
     7     3     4    1
     8     3    15    1
     9     4    17    1
    10     4     5    1
    11     2    20    1
    12     2     7    1
    13     2     1    1
    14    14     7    1
    15    10    13    1
    16    10     5    1
    17     5     1    1
    18     5    18    1
    19     1     6    2
