@<TRIPOS>MOLECULE
4bc4_XUL_A_1.pdb
 20 19 0 0 0
SMALL
GASTEIGER

@<TRIPOS>ATOM
      1  C1       -59.9730  -22.3680   12.3220 C.3   1532  XUL1532     0.1049
      2  C2       -60.2130  -21.0590   13.0610 C.2   1532  XUL1532     0.1892
      3  C3       -59.1150  -20.0220   12.9250 C.3   1532  XUL1532     0.1431
      4  C4       -59.6300  -18.8120   12.1790 C.3   1532  XUL1532     0.1109
      5  C5       -58.6030  -17.6650   12.2710 C.3   1532  XUL1532     0.0730
      6  O1       -60.9580  -23.3520   12.6020 O.3   1532  XUL1532    -0.3874
      7  O2       -61.1880  -20.8010   13.7320 O.2   1532  XUL1532    -0.2921
      8  O4       -59.9270  -19.1440   10.8140 O.3   1532  XUL1532    -0.3865
      9  O5       -59.0230  -16.5230   11.5370 O.3   1532  XUL1532    -0.3924
     10  O3       -57.9280  -20.4800   12.3170 O.3   1532  XUL1532    -0.3815
     11  HO5      -58.2770  -16.2890   10.9250 H     1532  XUL1532     0.2095
     12  HO4      -59.0820  -19.2430   10.3040 H     1532  XUL1532     0.2100
     13  HO3      -57.4550  -21.0980   12.9350 H     1532  XUL1532     0.2105
     14  HO1      -61.8160  -23.0160   12.2330 H     1532  XUL1532     0.2100
     15  H52      -58.5370  -17.3680   13.3160 H     1532  XUL1532     0.0584
     16  H51      -57.5980  -17.9750   11.9900 H     1532  XUL1532     0.0584
     17  H4       -60.5950  -18.4910   12.5690 H     1532  XUL1532     0.0646
     18  H3       -58.7800  -19.7360   13.9200 H     1532  XUL1532     0.0701
     19  H12      -59.8850  -22.1080   11.2700 H     1532  XUL1532     0.0637
     20  H11      -59.0340  -22.8380   12.6080 H     1532  XUL1532     0.0637
@<TRIPOS>BOND
     1    12     8    1
     2     8     4    1
     3    11     9    1
     4    19     1    1
     5     9     5    1
     6    16     5    1
     7     4     5    1
     8     4    17    1
     9     4     3    1
    10    14     6    1
    11     5    15    1
    12    10     3    1
    13    10    13    1
    14     1     6    1
    15     1    20    1
    16     1     2    1
    17     3     2    1
    18     3    18    1
    19     2     7    2
