@<TRIPOS>MOLECULE
4bc5_5FX_A_1.pdb
 19 18 0 0 0
SMALL
GASTEIGER

@<TRIPOS>ATOM
      1  C1        13.7970   -0.4910   29.2660 C.3   1531  5FX1531     0.1049
      2  O1        13.9580    0.8860   29.5850 O.3   1531  5FX1531    -0.3874
      3  C2        14.9010   -1.3640   29.9260 C.2   1531  5FX1531     0.1892
      4  O2        15.7190   -0.9170   30.6970 O.2   1531  5FX1531    -0.2921
      5  C3        14.9750   -2.8260   29.5940 C.3   1531  5FX1531     0.1434
      6  O3        13.7970   -3.3060   28.9740 O.3   1531  5FX1531    -0.3815
      7  C4        16.2730   -3.1700   28.7870 C.3   1531  5FX1531     0.1160
      8  O4        16.1590   -2.7380   27.4240 O.3   1531  5FX1531    -0.3862
      9  C5        16.3790   -4.7090   28.7750 C.3   1531  5FX1531     0.1188
     10  F         17.6090   -5.0480   28.1400 F     1531  5FX1531    -0.2463
     11 H12C       12.8090   -0.7690   29.6310 H     1531  5FX1531     0.0637
     12 H11C       13.7970   -0.6870   28.1960 H     1531  5FX1531     0.0637
     13  H1        13.2810    1.3680   29.0390 H     1531  5FX1531     0.2100
     14  H3        14.9990   -3.3520   30.5460 H     1531  5FX1531     0.0701
     15  HA        13.5300   -4.1700   29.3830 H     1531  5FX1531     0.2105
     16  H4        17.1400   -2.7200   29.2690 H     1531  5FX1531     0.0649
     17  HB        15.2940   -3.0760   27.0710 H     1531  5FX1531     0.2100
     18 H51C       16.3600   -5.1460   29.7720 H     1531  5FX1531     0.0642
     19 H52C       15.5570   -5.1380   28.2040 H     1531  5FX1531     0.0642
@<TRIPOS>BOND
     1    17     8    1
     2     8     7    1
     3    10     9    1
     4    12     1    1
     5    19     9    1
     6     9     7    1
     7     9    18    1
     8     7    16    1
     9     7     5    1
    10     6    15    1
    11     6     5    1
    12    13     2    1
    13     1     2    1
    14     1    11    1
    15     1     3    1
    16     5     3    1
    17     5    14    1
    18     3     4    2
