@<TRIPOS>MOLECULE
4bc6_XZN_A_1.pdb
 36 39 0 0 0
SMALL
GASTEIGER

@<TRIPOS>ATOM
      1  CAA       -3.0790  -19.9580   19.5290 C.3   1317  XZN1317     0.2526
      2  O02      -12.3670  -15.9750   16.4460 O.3   1317  XZN1317    -0.4697
      3  CAC       -0.4280  -20.3570   24.3600 C.3   1317  XZN1317     0.0760
      4  NAD      -11.7590  -19.1580   20.7040 N.1   1317  XZN1317    -0.1907
      5 CL1       -11.6130  -18.6300   15.2990 Cl    1317  XZN1317    -0.0790
      6 CL2       -11.5580  -14.4340   18.7770 Cl    1317  XZN1317    -0.0790
      7  CAG      -10.6870  -19.0220   21.1140 C.1   1317  XZN1317     0.1033
      8  CAH       -9.2590  -19.0350   22.9180 C.ar  1317  XZN1317     0.1104
      9  CAK       -5.6580  -18.9990   23.1880 C.ar  1317  XZN1317     0.0592
     10  CAL       -5.9550  -18.7480   20.3740 C.ar  1317  XZN1317     0.0429
     11  CAM       -1.6060  -20.6090   23.4260 C.3   1317  XZN1317     0.0646
     12  CAN       -2.8350  -19.8860   23.9420 C.3   1317  XZN1317     0.2070
     13  CAO        4.6330  -21.8280   24.1180 C.3   1317  XZN1317     0.0897
     14  CAQ        0.8860  -22.5030   24.1350 C.3   1317  XZN1317     0.0897
     15  CAP        1.6540  -20.3250   22.9720 C.3   1317  XZN1317     0.0897
     16  CAS        2.3250  -22.7310   24.6120 C.3   1317  XZN1317     0.0897
     17  CAR        2.7660  -21.2810   22.5400 C.3   1317  XZN1317     0.0897
     18  NAT       -8.0100  -19.0480   23.4180 N.ar  1317  XZN1317    -0.2429
     19  NAU       -8.4810  -18.6610   19.3030 N.pl3 1317  XZN1317    -0.2116
     20  OAV       -3.5780  -18.7360   20.0780 O.3   1317  XZN1317    -0.4684
     21  OAW       -3.2540  -18.9270   22.9720 O.3   1317  XZN1317    -0.4723
     22  CAX      -11.4280  -16.6380   17.1910 C.ar  1317  XZN1317     0.1597
     23  CAY      -10.9460  -17.8690   16.7730 C.ar  1317  XZN1317     0.0937
     24  CAZ       -9.8610  -16.6540   19.0300 C.ar  1317  XZN1317     0.0310
     25  CBA       -9.4760  -18.9170   21.5380 C.ar  1317  XZN1317     0.1027
     26  CBB       -9.4040  -17.9270   18.6280 C.ar  1317  XZN1317     0.0724
     27  CBC       -4.6670  -18.7810   20.9130 C.ar  1317  XZN1317     0.1725
     28  CBD       -4.5050  -18.9440   22.3940 C.ar  1317  XZN1317     0.1737
     29  CBE       -8.3740  -18.8060   20.6580 C.ar  1317  XZN1317     0.0831
     30  CBF       -6.9250  -18.9780   22.6050 C.ar  1317  XZN1317     0.0858
     31  CBG       -7.0790  -18.8530   21.2060 C.ar  1317  XZN1317     0.0368
     32  NBH        0.7150  -21.0760   23.8150 N.3   1317  XZN1317    -0.2702
     33  CAJ       -9.9630  -18.5320   17.5040 C.ar  1317  XZN1317     0.0310
     34  NBI        3.2270  -21.9500   23.7560 N.3   1317  XZN1317    -0.2691
     35  C01      -13.7640  -16.2590   16.5310 C.3   1317  XZN1317     0.2525
     36  CAI      -10.8960  -16.0330   18.3160 C.ar  1317  XZN1317     0.0937
@<TRIPOS>BOND
     1     5    23    1
     2     2    35    1
     3     2    22    1
     4    23    22   ar
     5    23    33   ar
     6    22    36   ar
     7    33    26   ar
     8    36     6    1
     9    36    24   ar
    10    26    24   ar
    11    26    19    1
    12    19    29    1
    13     1    20    1
    14    20    27    1
    15    10    27   ar
    16    10    31   ar
    17    29    31   ar
    18    29    25   ar
    19     4     7    3
    20    27    28   ar
    21     7    25    1
    22    31    30   ar
    23    25     8   ar
    24    28    21    1
    25    28     9   ar
    26    17    15    1
    27    17    34    1
    28    30     9   ar
    29    30    18   ar
    30     8    18   ar
    31    15    32    1
    32    21    12    1
    33    11    12    1
    34    11     3    1
    35    34    13    1
    36    34    16    1
    37    32    14    1
    38    32     3    1
    39    14    16    1
