@<TRIPOS>MOLECULE
4bc7_1DO_B_1.pdb
 13 12 0 0 0
SMALL
GASTEIGER

@<TRIPOS>ATOM
      1  O2S       40.7190   35.4040   71.8420 O.3   888  1DO888     -0.2204
      2  C1        41.9570   34.9210   72.4680 C.3   888  1DO888      0.1821
      3  C2        41.7710   34.3640   73.9220 C.3   888  1DO888      0.0355
      4  C3        42.3280   32.9390   74.1220 C.3   888  1DO888      0.0027
      5  C4        41.3630   32.0860   74.9800 C.3   888  1DO888      0.0001
      6  C5        40.9310   30.7520   74.3110 C.3   888  1DO888      0.0000
      7  C6        41.2330   29.5430   75.2280 C.3   888  1DO888      0.0000
      8  C7        40.3950   28.2600   74.9510 C.3   888  1DO888      0.0000
      9  C8        40.7790   27.0940   75.8870 C.3   888  1DO888      0.0000
     10  C9        39.5410   26.3650   76.4580 C.3   888  1DO888      0.0000
     11  C10       39.6920   25.8930   77.9370 C.3   888  1DO888      0.0000
     12  C11       38.3970   25.1970   78.4490 C.3   888  1DO888      0.0000
     13  C12       38.1470   25.2370   79.9750 C.3   888  1DO888      0.0000
@<TRIPOS>BOND
     1     1     2    1
     2     2     3    1
     3     3     4    1
     4     4     5    1
     5     6     5    1
     6     6     7    1
     7     8     7    1
     8     8     9    1
     9     9    10    1
    10    10    11    1
    11    11    12    1
    12    12    13    1
