@<TRIPOS>MOLECULE
4bcf_T6Q_A_1.pdb
 33 36 0 0 0
SMALL
GASTEIGER

@<TRIPOS>ATOM
      1  C01       49.0660  -19.3240  -10.4380 C.3   1327  T6Q1327     0.1387
      2  N02       50.1740  -19.3740  -11.3640 N.pl3 1327  T6Q1327    -0.2025
      3  C03       50.7870  -18.2040  -11.8460 C.2   1327  T6Q1327     0.2264
      4  N04       50.3660  -17.3680  -12.7950 N.2   1327  T6Q1327    -0.3868
      5  C05       51.1630  -16.3110  -13.0980 C.2   1327  T6Q1327     0.1062
      6  C06       50.7040  -15.3590  -14.1970 C.3   1327  T6Q1327     0.0629
      7  C07       52.3450  -16.1790  -12.3410 C.3   1327  T6Q1327     0.1569
      8  C08       53.4380  -15.2830  -12.3350 C.2   1327  T6Q1327     0.1492
      9  N09       54.7170  -15.8110  -12.2700 N.2   1327  T6Q1327    -0.3386
     10  C10       55.8300  -14.9830  -12.2790 C.1   1327  T6Q1327     0.1694
     11  N11       57.1780  -15.5320  -12.2220 N.pl3 1327  T6Q1327    -0.1357
     12  C12       57.4890  -16.9070  -11.8550 C.ar  1327  T6Q1327     0.0838
     13  C13       58.8440  -17.1350  -11.5460 C.ar  1327  T6Q1327     0.0174
     14  C14       59.2550  -18.4120  -11.1910 C.ar  1327  T6Q1327     0.0026
     15  C15       58.2940  -19.4680  -11.1510 C.ar  1327  T6Q1327     0.0146
     16  C16       56.9490  -19.2590  -11.4450 C.ar  1327  T6Q1327     0.0492
     17  N17       56.0180  -20.4020  -11.3660 N.pl3 1327  T6Q1327    -0.3057
     18  C18       56.8300  -21.5310  -11.7140 C.3   1327  T6Q1327     0.0926
     19  C19       57.1170  -22.4160  -10.5550 C.3   1327  T6Q1327     0.0429
     20  C20       56.0040  -22.4210   -9.5580 C.3   1327  T6Q1327     0.0952
     21  N21       54.6740  -22.6090  -10.0820 N.am  1327  T6Q1327    -0.2777
     22  C22       53.9190  -23.7130   -9.4310 C.2   1327  T6Q1327     0.2262
     23  C23       52.4940  -24.1030   -9.7940 C.3   1327  T6Q1327     0.0948
     24  O24       54.4420  -24.3750   -8.5320 O.2   1327  T6Q1327    -0.2749
     25  C25       53.9960  -21.8580  -11.1380 C.3   1327  T6Q1327     0.1148
     26  C26       54.6240  -20.5910  -11.6860 C.3   1327  T6Q1327     0.1123
     27  C27       56.5280  -17.9720  -11.8160 C.ar  1327  T6Q1327     0.0319
     28  N28       55.7070  -13.6290  -12.3370 N.2   1327  T6Q1327    -0.1676
     29  C29       54.4320  -13.0720  -12.3910 C.2   1327  T6Q1327     0.1243
     30  C30       53.2770  -13.8870  -12.3950 C.2   1327  T6Q1327     0.1158
     31  C31       51.9350  -13.2770  -12.4050 C.1   1327  T6Q1327     0.1043
     32  N32       50.8740  -12.7960  -12.4410 N.1   1327  T6Q1327    -0.1907
     33  S33       52.2960  -17.5530  -11.3700 S.3   1327  T6Q1327    -0.0524
@<TRIPOS>BOND
     1     6     5    1
     2     5     4    2
     3     5     7    1
     4     4     3    2
     5    32    31    3
     6    31    30    1
     7    30    29    2
     8    30     8    1
     9    29    28    1
    10     7     8    1
    11     7    33    1
    12    28    10    2
    13     8     9    2
    14    10     9    2
    15    10    11    1
    16    11    12    1
    17    12    27   ar
    18    12    13   ar
    19     3    33    1
    20     3     2    1
    21    27    16   ar
    22    18    17    1
    23    18    19    1
    24    26    17    1
    25    26    25    1
    26    13    14   ar
    27    16    17    1
    28    16    15   ar
    29     2     1    1
    30    14    15   ar
    31    25    21    1
    32    19    20    1
    33    21    20    1
    34    21    22   am
    35    23    22    1
    36    22    24    2
