@<TRIPOS>MOLECULE
4bch_T7Z_A_1.pdb
 33 36 0 0 0
SMALL
GASTEIGER

@<TRIPOS>ATOM
      1  C01       49.3510  -19.2010  -11.3300 C.3   1328  T7Z1328     0.1387
      2  N02       50.6190  -19.2770  -11.9540 N.pl3 1328  T7Z1328    -0.2025
      3  C03       51.3050  -18.0770  -12.3950 C.2   1328  T7Z1328     0.2264
      4  N04       50.8380  -17.1700  -13.3770 N.2   1328  T7Z1328    -0.3868
      5  C05       51.8330  -16.0720  -13.5630 C.2   1328  T7Z1328     0.1062
      6  C06       51.6050  -14.9380  -14.5190 C.3   1328  T7Z1328     0.0629
      7  C07       52.9730  -16.2580  -12.6990 C.3   1328  T7Z1328     0.1569
      8  C08       54.1850  -15.3490  -12.6580 C.2   1328  T7Z1328     0.1492
      9  N09       55.4360  -15.8870  -12.6920 N.2   1328  T7Z1328    -0.3386
     10  C10       56.5300  -15.0800  -12.6620 C.1   1328  T7Z1328     0.1694
     11  N11       57.8580  -15.6510  -12.6560 N.pl3 1328  T7Z1328    -0.1357
     12  C12       58.1750  -17.0420  -12.3190 C.ar  1328  T7Z1328     0.0839
     13  C13       57.1690  -17.9960  -12.3130 C.ar  1328  T7Z1328     0.0369
     14  C14       57.4720  -19.3500  -12.0230 C.ar  1328  T7Z1328     0.1195
     15  S15       56.1260  -20.5550  -12.0120 S.O2  1328  T7Z1328     0.0632
     16  N16       56.5960  -21.7600  -11.0070 N.3   1328  T7Z1328    -0.1504
     17  C17       55.8360  -21.7720   -9.8850 C.3   1328  T7Z1328     0.1279
     18  C18       54.9250  -22.9760   -9.8670 C.3   1328  T7Z1328     0.1613
     19  O19       55.6360  -24.2210  -10.1620 O.3   1328  T7Z1328    -0.3507
     20  C20       56.4710  -24.0820  -11.3720 C.3   1328  T7Z1328     0.1613
     21  C21       57.2980  -22.8320  -11.4500 C.3   1328  T7Z1328     0.1279
     22  O22       54.9430  -19.9590  -11.4790 O.2   1328  T7Z1328    -0.1528
     23  O23       55.8210  -21.0580  -13.3300 O.2   1328  T7Z1328    -0.1528
     24  C24       58.7960  -19.7370  -11.7320 C.ar  1328  T7Z1328    -0.0032
     25  C25       59.1410  -21.1500  -11.4210 C.3   1328  T7Z1328     0.0324
     26  C26       59.8160  -18.7990  -11.7550 C.ar  1328  T7Z1328    -0.0016
     27  C27       59.4990  -17.4470  -12.0550 C.ar  1328  T7Z1328     0.0171
     28  N28       56.3980  -13.7400  -12.6440 N.2   1328  T7Z1328    -0.1676
     29  C29       55.1630  -13.1700  -12.6170 C.2   1328  T7Z1328     0.1243
     30  C30       53.9930  -13.9820  -12.6270 C.2   1328  T7Z1328     0.1158
     31  C31       52.6190  -13.4260  -12.5600 C.1   1328  T7Z1328     0.1043
     32  N32       51.5350  -12.9940  -12.5140 N.1   1328  T7Z1328    -0.1907
     33  S33       52.7730  -17.5950  -11.8280 S.3   1328  T7Z1328    -0.0524
@<TRIPOS>BOND
     1     6     5    1
     2     5     4    2
     3     5     7    1
     4     4     3    2
     5    23    15    2
     6     7     8    1
     7     7    33    1
     8     9    10    2
     9     9     8    2
    10    10    11    1
    11    10    28    2
    12     8    30    1
    13    11    12    1
    14    28    29    1
    15    30    29    2
    16    30    31    1
    17    31    32    3
    18     3     2    1
    19     3    33    1
    20    12    13   ar
    21    12    27   ar
    22    13    14   ar
    23    27    26   ar
    24    14    15    1
    25    14    24   ar
    26    15    22    2
    27    15    16    1
    28     2     1    1
    29    26    24   ar
    30    24    25    1
    31    21    20    1
    32    21    16    1
    33    20    19    1
    34    16    17    1
    35    19    18    1
    36    17    18    1
