@<TRIPOS>MOLECULE
4bci_T3E_A_1.pdb
 27 29 0 0 0
SMALL
GASTEIGER

@<TRIPOS>ATOM
      1  C7A       51.1150  -20.7230  -12.7410 C.3   1327  T3E1327     0.1387
      2  N6A       50.8460  -19.4970  -11.9990 N.pl3 1327  T3E1327    -0.2025
      3  C3A       51.4090  -18.2480  -12.4450 C.2   1327  T3E1327     0.2264
      4  N2A       50.7660  -17.3590  -13.2820 N.2   1327  T3E1327    -0.3868
      5  C1A       51.6240  -16.1910  -13.5510 C.2   1327  T3E1327     0.1062
      6  C8A       51.1460  -15.1550  -14.4660 C.3   1327  T3E1327     0.0629
      7  C5A       52.8670  -16.2710  -12.8720 C.3   1327  T3E1327     0.1569
      8  C4        54.0180  -15.3420  -12.8380 C.2   1327  T3E1327     0.1492
      9  N3        55.2880  -15.8380  -12.7550 N.2   1327  T3E1327    -0.3386
     10  C2        56.3650  -14.9440  -12.6880 C.1   1327  T3E1327     0.1694
     11  N7        57.7230  -15.3990  -12.6060 N.pl3 1327  T3E1327    -0.1357
     12  C1B       58.0390  -16.8030  -12.4070 C.ar  1327  T3E1327     0.0839
     13  C2B       59.3620  -17.1120  -12.6570 C.ar  1327  T3E1327     0.0373
     14  C3B       59.7860  -18.4400  -12.5060 C.ar  1327  T3E1327     0.1264
     15  S7B       61.4780  -18.7640  -12.8910 S.O2  1327  T3E1327     0.0935
     16  O8B       61.7010  -20.1820  -12.6590 O.2   1327  T3E1327    -0.1503
     17  N9B       62.4180  -17.8850  -11.8720 N.3   1327  T3E1327     0.0392
     18  O1B       61.6810  -18.3490  -14.2730 O.2   1327  T3E1327    -0.1503
     19  C4B       58.9200  -19.4690  -12.0940 C.ar  1327  T3E1327     0.0201
     20  C5B       57.5800  -19.1640  -11.8280 C.ar  1327  T3E1327     0.0027
     21  C6B       57.1440  -17.8220  -11.9980 C.ar  1327  T3E1327     0.0174
     22  N1        56.1970  -13.5870  -12.7100 N.2   1327  T3E1327    -0.1676
     23  C6        54.9060  -13.1260  -12.7780 C.2   1327  T3E1327     0.1243
     24  C5        53.8250  -13.9920  -12.8290 C.2   1327  T3E1327     0.1158
     25  C8        52.4580  -13.4200  -12.8070 C.1   1327  T3E1327     0.1043
     26  N9        51.4010  -12.9700  -12.8550 N.1   1327  T3E1327    -0.1907
     27  S4A       52.8860  -17.6360  -12.1050 S.3   1327  T3E1327    -0.0524
@<TRIPOS>BOND
     1     6     5    1
     2    18    15    2
     3     5     4    2
     4     5     7    1
     5     4     3    2
     6    15    16    2
     7    15    14    1
     8    15    17    1
     9     7     8    1
    10     7    27    1
    11    26    25    3
    12     8    24    1
    13     8     9    2
    14    24    25    1
    15    24    23    2
    16    23    22    1
    17     9    10    2
    18     1     2    1
    19    22    10    2
    20    10    11    1
    21    13    14   ar
    22    13    12   ar
    23    11    12    1
    24    14    19   ar
    25     3    27    1
    26     3     2    1
    27    12    21   ar
    28    19    20   ar
    29    21    20   ar
