@<TRIPOS>MOLECULE
4bcj_T9N_A_1.pdb
 24 26 0 0 0
SMALL
GASTEIGER

@<TRIPOS>ATOM
      1  C01       51.1980  -20.2920  -12.3620 C.3   1327  T9N1327     0.1387
      2  N02       50.6860  -19.0090  -11.9580 N.pl3 1327  T9N1327    -0.2025
      3  C03       51.3500  -17.8500  -12.3830 C.2   1327  T9N1327     0.2264
      4  N04       50.8800  -16.8010  -13.1360 N.2   1327  T9N1327    -0.3868
      5  C05       51.8280  -15.8170  -13.3530 C.2   1327  T9N1327     0.1062
      6  C06       51.5010  -14.5890  -14.1700 C.3   1327  T9N1327     0.0629
      7  C07       53.0980  -16.0330  -12.7680 C.3   1327  T9N1327     0.1569
      8  C08       54.3060  -15.1360  -12.7720 C.2   1327  T9N1327     0.1492
      9  N09       55.5460  -15.6460  -12.7490 N.2   1327  T9N1327    -0.3386
     10  C10       56.5960  -14.7810  -12.7300 C.1   1327  T9N1327     0.1694
     11  N11       57.9330  -15.3480  -12.7610 N.pl3 1327  T9N1327    -0.1357
     12  C12       58.2140  -16.7020  -12.2620 C.ar  1327  T9N1327     0.0858
     13  C13       59.4880  -16.9570  -11.7360 C.ar  1327  T9N1327     0.0594
     14  C14       59.7850  -18.2270  -11.2420 C.ar  1327  T9N1327     0.1971
     15  O15       61.0530  -18.4410  -10.7010 O.3   1327  T9N1327    -0.2865
     16  C16       58.8130  -19.2900  -11.2860 C.ar  1327  T9N1327     0.0421
     17  C17       57.5630  -19.0390  -11.8170 C.ar  1327  T9N1327     0.0046
     18  C18       57.2560  -17.7320  -12.3120 C.ar  1327  T9N1327     0.0176
     19  N19       56.4650  -13.4060  -12.7140 N.2   1327  T9N1327    -0.1676
     20  C20       55.2240  -12.8530  -12.7010 C.2   1327  T9N1327     0.1243
     21  C21       54.1050  -13.6990  -12.7130 C.2   1327  T9N1327     0.1158
     22  C22       52.6880  -13.1470  -12.6190 C.1   1327  T9N1327     0.1043
     23  N23       51.6210  -12.7320  -12.6060 N.1   1327  T9N1327    -0.1907
     24  S24       52.9500  -17.5170  -12.0330 S.3   1327  T9N1327    -0.0524
@<TRIPOS>BOND
     1     6     5    1
     2     5     4    2
     3     5     7    1
     4     4     3    2
     5     8     7    1
     6     8     9    2
     7     8    21    1
     8     7    24    1
     9    11    10    1
    10    11    12    1
    11     9    10    2
    12    10    19    2
    13    19    20    1
    14    21    20    2
    15    21    22    1
    16    22    23    3
    17     3    24    1
    18     3     2    1
    19     1     2    1
    20    18    12   ar
    21    18    17   ar
    22    12    13   ar
    23    17    16   ar
    24    13    14   ar
    25    16    14   ar
    26    14    15    1
