@<TRIPOS>MOLECULE
4bck_T3E_A_1.pdb
 42 44 0 0 0
SMALL
GASTEIGER

@<TRIPOS>ATOM
      1  C7A        3.5300   18.8590   21.3710 C.3   1298  T3E1298     0.0003
      2  N6A        3.7440   20.1870   21.9020 N.pl3 1298  T3E1298    -0.3170
      3  C3A        5.0090   20.5260   22.5060 C.2   1298  T3E1298     0.2064
      4  N2A        6.0760   19.6490   22.7100 N.2   1298  T3E1298    -0.3894
      5  C1A        7.2260   20.3260   23.3580 C.2   1298  T3E1298     0.0937
      6  C8A        8.4940   19.6310   23.6920 C.3   1298  T3E1298    -0.0131
      7  C5A        6.9200   21.7070   23.5890 C.3   1298  T3E1298     0.1525
      8  C4         7.7740   22.7830   24.2370 C.2   1298  T3E1298     0.1366
      9  N3         7.1820   23.5280   25.2100 N.2   1298  T3E1298    -0.3342
     10  C2         7.8510   24.5430   25.8450 C.1   1298  T3E1298     0.2019
     11  N7         7.1760   25.3050   26.8850 N.pl3 1298  T3E1298    -0.2390
     12  C1B        5.9730   26.0640   26.5690 C.ar  1298  T3E1298     0.0436
     13  C2B        4.9750   25.5080   25.7630 C.ar  1298  T3E1298    -0.0135
     14  C3B        3.8120   26.2380   25.4680 C.ar  1298  T3E1298     0.1068
     15  S7B        2.5510   25.5310   24.4340 S.O2  1298  T3E1298     0.0560
     16  O8B        2.6310   24.0890   24.4590 O.2   1298  T3E1298    -0.1533
     17  N9B        2.8390   26.0810   22.9140 N.3   1298  T3E1298    -0.2035
     18  O1B        1.2500   25.9460   24.8840 O.2   1298  T3E1298    -0.1533
     19  C4B        3.6440   27.5110   25.9880 C.ar  1298  T3E1298    -0.0352
     20  C5B        4.6320   28.0650   26.8020 C.ar  1298  T3E1298    -0.0581
     21  C6B        5.7950   27.3390   27.0910 C.ar  1298  T3E1298    -0.0398
     22  N1         9.1470   24.8010   25.5150 N.2   1298  T3E1298    -0.3395
     23  C6         9.7550   24.0660   24.5480 C.2   1298  T3E1298     0.0987
     24  C5         9.0800   23.0580   23.8960 C.3   1298  T3E1298     0.1858
     25  C8         9.8070   22.2870   22.8370 C.1   1298  T3E1298     0.0856
     26  N9        10.3780   21.7080   22.0310 N.1   1298  T3E1298    -0.1951
     27  S4A        5.4280   21.9970   23.0680 S.3   1298  T3E1298    -0.0544
     28 H011        3.1160   18.2940   22.0590 H     1298  T3E1298     0.0426
     29 H012        4.3860   18.4730   21.1060 H     1298  T3E1298     0.0426
     30 H013        2.9420   18.9100   20.5950 H     1298  T3E1298     0.0426
     31  H6A        3.0800   20.8100   21.8550 H     1298  T3E1298     0.1486
     32 H061        9.2410   20.1460   23.3580 H     1298  T3E1298     0.0300
     33 H062        8.5680   19.5380   24.6550 H     1298  T3E1298     0.0300
     34 H063        8.4980   18.7520   23.2810 H     1298  T3E1298     0.0300
     35  H7         7.2480   24.9950   27.7340 H     1298  T3E1298     0.1656
     36  H2B        5.0920   24.6130   25.3950 H     1298  T3E1298     0.0656
     37  H6B        6.4750   27.7260   27.6540 H     1298  T3E1298     0.0636
     38  H4B        2.8400   28.0160   25.7860 H     1298  T3E1298     0.0637
     39 H171        2.1120   26.5390   22.6140 H     1298  T3E1298     0.1442
     40 H172        3.0030   25.3760   22.3620 H     1298  T3E1298     0.1442
     41  H5B        4.5160   28.9610   27.1650 H     1298  T3E1298     0.0619
     42  H6        10.6730   24.2570   24.3100 H     1298  T3E1298     0.0953
@<TRIPOS>BOND
     1    30     1    1
     2    29     1    1
     3     1     2    1
     4     1    28    1
     5    31     2    1
     6     2     3    1
     7    26    25    3
     8    40    17    1
     9     3     4    2
    10     3    27    1
    11    39    17    1
    12     4     5    2
    13    25    24    1
    14    17    15    1
    15    27     7    1
    16    34     6    1
    17    32     6    1
    18     5     7    1
    19     5     6    1
    20     7     8    1
    21     6    33    1
    22    24     8    1
    23    24    23    1
    24     8     9    2
    25    42    23    1
    26    15    16    2
    27    15    18    2
    28    15    14    1
    29    23    22    2
    30     9    10    2
    31    36    13    1
    32    14    13   ar
    33    14    19   ar
    34    22    10    2
    35    13    12   ar
    36    38    19    1
    37    10    11    1
    38    19    20   ar
    39    12    11    1
    40    12    21   ar
    41    20    21   ar
    42    20    41    1
    43    11    35    1
    44    21    37    1
