@<TRIPOS>MOLECULE
4bcm_T7Z_A_1.pdb
 33 36 0 0 0
SMALL
GASTEIGER

@<TRIPOS>ATOM
      1  C01        2.8030   18.7210   20.4100 C.3   1297  T7Z1297     0.1387
      2  N02        3.1950   20.0360   20.8210 N.pl3 1297  T7Z1297    -0.2025
      3  C03        4.5130   20.2430   21.4290 C.2   1297  T7Z1297     0.2264
      4  N04        5.5160   19.2440   21.4770 N.2   1297  T7Z1297    -0.3868
      5  C05        6.7600   19.7590   22.1680 C.2   1297  T7Z1297     0.1062
      6  C06        8.0070   18.8960   22.3770 C.3   1297  T7Z1297     0.0629
      7  C07        6.5660   21.1400   22.5730 C.3   1297  T7Z1297     0.1569
      8  C08        7.5570   22.0460   23.3250 C.2   1297  T7Z1297     0.1492
      9  N09        7.0660   22.8340   24.3160 N.2   1297  T7Z1297    -0.3386
     10  C10        7.8730   23.6660   25.0160 C.1   1297  T7Z1297     0.1694
     11  N11        7.3450   24.4980   26.0680 N.pl3 1297  T7Z1297    -0.1357
     12  C12        6.0280   25.1430   26.0800 C.ar  1297  T7Z1297     0.0839
     13  C13        5.1970   25.2430   24.9540 C.ar  1297  T7Z1297     0.0369
     14  C14        3.9300   25.8910   25.0660 C.ar  1297  T7Z1297     0.1195
     15  S15        2.8520   26.0340   23.6120 S.O2  1297  T7Z1297     0.0632
     16  N16        1.7130   24.8620   23.7510 N.3   1297  T7Z1297    -0.1504
     17  C17        0.5610   25.2910   23.1870 C.3   1297  T7Z1297     0.1279
     18  C18       -0.5640   24.3590   23.5010 C.3   1297  T7Z1297     0.1613
     19  O19       -0.2020   22.9860   23.1880 O.3   1297  T7Z1297    -0.3507
     20  C20        0.9400   22.6350   24.0220 C.3   1297  T7Z1297     0.1613
     21  C21        2.0920   23.5640   23.8350 C.3   1297  T7Z1297     0.1279
     22  O22        2.2740   27.3500   23.5580 O.2   1297  T7Z1297    -0.1528
     23  O23        3.5790   25.7920   22.3950 O.2   1297  T7Z1297    -0.1528
     24  C24        3.5140   26.4150   26.3160 C.ar  1297  T7Z1297    -0.0032
     25  C25        2.1980   27.0970   26.4970 C.3   1297  T7Z1297     0.0324
     26  C26        4.3390   26.3080   27.4250 C.ar  1297  T7Z1297    -0.0016
     27  C27        5.5980   25.6710   27.3070 C.ar  1297  T7Z1297     0.0171
     28  N28        9.1850   23.7230   24.7750 N.2   1297  T7Z1297    -0.1676
     29  C29        9.7460   22.9630   23.8160 C.2   1297  T7Z1297     0.1243
     30  C30        8.9270   22.0870   23.0470 C.2   1297  T7Z1297     0.1158
     31  C31        9.5570   21.2580   21.9740 C.1   1297  T7Z1297     0.1043
     32  N32       10.0680   20.6250   21.1520 N.1   1297  T7Z1297    -0.1907
     33  S33        5.0650   21.6300   22.1470 S.3   1297  T7Z1297    -0.0524
@<TRIPOS>BOND
     1     1     2    1
     2     2     3    1
     3    32    31    3
     4     3     4    2
     5     3    33    1
     6     4     5    2
     7    31    30    1
     8    33     7    1
     9     5     6    1
    10     5     7    1
    11    23    15    2
    12     7     8    1
    13    30     8    1
    14    30    29    2
    15    17    18    1
    16    17    16    1
    17    19    18    1
    18    19    20    1
    19     8     9    2
    20    22    15    2
    21    15    16    1
    22    15    14    1
    23    16    21    1
    24    29    28    1
    25    21    20    1
    26     9    10    2
    27    28    10    2
    28    13    14   ar
    29    13    12   ar
    30    10    11    1
    31    14    24   ar
    32    11    12    1
    33    12    27   ar
    34    24    25    1
    35    24    26   ar
    36    27    26   ar
