@<TRIPOS>MOLECULE
4bcn_T9N_A_1.pdb
 24 26 0 0 0
SMALL
GASTEIGER

@<TRIPOS>ATOM
      1  C01        4.3890   21.8710   18.8380 C.3   1299  T9N1299     0.1387
      2  N02        4.2010   20.5840   19.4460 N.pl3 1299  T9N1299    -0.2025
      3  C03        4.9920   20.4840   20.6460 C.2   1299  T9N1299     0.2264
      4  N04        6.0130   19.6360   20.8270 N.2   1299  T9N1299    -0.3868
      5  C05        6.9310   19.9390   21.8340 C.2   1299  T9N1299     0.1062
      6  C06        7.9580   18.9660   22.3250 C.3   1299  T9N1299     0.0629
      7  C07        6.8810   21.3610   22.1470 C.3   1299  T9N1299     0.1569
      8  C08        7.7970   22.2180   22.9770 C.2   1299  T9N1299     0.1492
      9  N09        7.2680   23.0940   23.8910 N.2   1299  T9N1299    -0.3386
     10  C10        7.9310   23.9570   24.7160 C.1   1299  T9N1299     0.1694
     11  N11        7.2860   24.8700   25.6120 N.pl3 1299  T9N1299    -0.1357
     12  C12        6.0260   25.5000   25.3010 C.ar  1299  T9N1299     0.0858
     13  C13        5.3380   25.2210   24.1640 C.ar  1299  T9N1299     0.0594
     14  C14        4.0140   25.9160   23.8970 C.ar  1299  T9N1299     0.1971
     15  O15        3.2970   25.6610   22.7480 O.3   1299  T9N1299    -0.2865
     16  C16        3.5230   26.8160   24.7950 C.ar  1299  T9N1299     0.0421
     17  C17        4.2720   27.1180   26.0330 C.ar  1299  T9N1299     0.0046
     18  C18        5.4700   26.4910   26.2810 C.ar  1299  T9N1299     0.0176
     19  N19        9.2410   23.8860   24.5640 N.2   1299  T9N1299    -0.1676
     20  C20        9.8740   23.0660   23.6970 C.2   1299  T9N1299     0.1243
     21  C21        9.1950   22.1770   22.8340 C.2   1299  T9N1299     0.1158
     22  C22        9.8800   21.2920   21.8530 C.1   1299  T9N1299     0.1043
     23  N23       10.3840   20.6160   21.0910 N.1   1299  T9N1299    -0.1907
     24  S24        5.2030   21.7650   21.7900 S.3   1299  T9N1299    -0.0524
@<TRIPOS>BOND
     1     1     2    1
     2     2     3    1
     3     3     4    2
     4     3    24    1
     5     4     5    2
     6    23    22    3
     7    24     7    1
     8     5     7    1
     9     5     6    1
    10    22    21    1
    11     7     8    1
    12    15    14    1
    13    21     8    1
    14    21    20    2
    15     8     9    2
    16    20    19    1
    17     9    10    2
    18    14    13   ar
    19    14    16   ar
    20    13    12   ar
    21    19    10    2
    22    10    11    1
    23    16    17   ar
    24    12    11    1
    25    12    18   ar
    26    17    18   ar
