@<TRIPOS>MOLECULE
4bco_T6Q_A_1.pdb
 33 36 0 0 0
SMALL
GASTEIGER

@<TRIPOS>ATOM
      1  C01       -3.8260   21.3860  -18.5080 C.3   1299  T6Q1299     0.1387
      2  N02       -4.4790   20.1420  -18.8970 N.pl3 1299  T6Q1299    -0.2025
      3  C03       -5.5200   20.1830  -19.8550 C.2   1299  T6Q1299     0.2264
      4  N04       -6.3580   19.1690  -20.1870 N.2   1299  T6Q1299    -0.3868
      5  C05       -7.2840   19.4350  -21.1270 C.2   1299  T6Q1299     0.1062
      6  C06       -8.2440   18.3370  -21.5560 C.3   1299  T6Q1299     0.0629
      7  C07       -7.2570   20.7510  -21.6580 C.3   1299  T6Q1299     0.1569
      8  C08       -8.0720   21.4290  -22.6080 C.2   1299  T6Q1299     0.1492
      9  N09       -7.5060   22.2710  -23.5060 N.2   1299  T6Q1299    -0.3386
     10  C10       -8.2690   22.9720  -24.3970 C.1   1299  T6Q1299     0.1694
     11  N11       -7.6260   23.8510  -25.3730 N.pl3 1299  T6Q1299    -0.1357
     12  C12       -6.3710   24.5370  -25.0890 C.ar  1299  T6Q1299     0.0838
     13  C13       -5.7780   24.4750  -23.8180 C.ar  1299  T6Q1299     0.0174
     14  C14       -4.5750   25.1400  -23.5760 C.ar  1299  T6Q1299     0.0026
     15  C15       -3.9460   25.8860  -24.6180 C.ar  1299  T6Q1299     0.0146
     16  C16       -4.5370   25.9400  -25.8810 C.ar  1299  T6Q1299     0.0492
     17  N17       -3.8930   26.7090  -26.9640 N.pl3 1299  T6Q1299    -0.3057
     18  C18       -2.6130   26.0890  -27.2040 C.3   1299  T6Q1299     0.0926
     19  C19       -2.3590   25.6900  -28.6120 C.3   1299  T6Q1299     0.0429
     20  C20       -3.4360   24.8510  -29.2120 C.3   1299  T6Q1299     0.0952
     21  N21       -4.5330   25.6200  -29.6940 N.am  1299  T6Q1299    -0.2777
     22  C22       -4.9130   25.4170  -31.0840 C.2   1299  T6Q1299     0.2262
     23  C23       -6.0630   26.1990  -31.6780 C.3   1299  T6Q1299     0.0948
     24  O24       -4.2980   24.6120  -31.7800 O.2   1299  T6Q1299    -0.2749
     25  C25       -5.3080   26.5860  -28.9710 C.3   1299  T6Q1299     0.1148
     26  C26       -4.4410   27.4320  -28.0790 C.3   1299  T6Q1299     0.1123
     27  C27       -5.7440   25.2760  -26.1190 C.ar  1299  T6Q1299     0.0319
     28  N28       -9.6070   22.8660  -24.4000 N.2   1299  T6Q1299    -0.1676
     29  C29      -10.2380   22.0530  -23.4970 C.2   1299  T6Q1299     0.1243
     30  C30       -9.4720   21.3340  -22.5780 C.2   1299  T6Q1299     0.1158
     31  C31      -10.1540   20.4780  -21.6020 C.1   1299  T6Q1299     0.1043
     32  N32      -10.6910   19.8120  -20.8480 N.1   1299  T6Q1299    -0.1907
     33  S33       -5.9660   21.5400  -20.8360 S.3   1299  T6Q1299    -0.0524
@<TRIPOS>BOND
     1    24    22    2
     2    23    22    1
     3    22    21   am
     4    21    20    1
     5    21    25    1
     6    20    19    1
     7    25    26    1
     8    19    18    1
     9    26    17    1
    10    18    17    1
    11    17    16    1
    12    27    16   ar
    13    27    12   ar
    14    16    15   ar
    15    11    12    1
    16    11    10    1
    17    12    13   ar
    18    15    14   ar
    19    28    10    2
    20    28    29    1
    21    10     9    2
    22    13    14   ar
    23     9     8    2
    24    29    30    2
    25     8    30    1
    26     8     7    1
    27    30    31    1
    28     7     5    1
    29     7    33    1
    30    31    32    3
    31     6     5    1
    32     5     4    2
    33    33     3    1
    34     4     3    2
    35     3     2    1
    36     2     1    1
