@<TRIPOS>MOLECULE
4bcq_TJF_A_1.pdb
 31 34 0 0 0
SMALL
GASTEIGER

@<TRIPOS>ATOM
      1  C01        3.4180   22.7320   19.8490 C.3   1296  TJF1296     0.1387
      2  N02        3.9010   21.5230   20.4570 N.pl3 1296  TJF1296    -0.2025
      3  C03        4.9060   21.5490   21.4770 C.2   1296  TJF1296     0.2264
      4  N04        5.5630   20.4110   21.9930 N.2   1296  TJF1296    -0.3868
      5  C05        6.5480   20.7880   23.0380 C.2   1296  TJF1296     0.1062
      6  C06        7.4000   19.8010   23.7710 C.3   1296  TJF1296     0.0629
      7  C07        6.5420   22.2110   23.2230 C.3   1296  TJF1296     0.1569
      8  C08        7.3750   23.0200   24.1630 C.2   1296  TJF1296     0.1492
      9  N09        6.7660   23.7580   25.1020 N.2   1296  TJF1296    -0.3386
     10  C10        7.4580   24.5200   25.9530 C.1   1296  TJF1296     0.1694
     11  C11        3.3680   26.2340   25.8130 C.ar  1296  TJF1296     0.0549
     12  N11        6.8040   25.2890   26.9660 N.pl3 1296  TJF1296    -0.1358
     13  C12        5.4830   25.8390   26.9130 C.ar  1296  TJF1296     0.0827
     14  C13        5.0210   26.5380   28.0170 C.ar  1296  TJF1296     0.0174
     15  C14        3.7480   27.0850   28.0250 C.ar  1296  TJF1296     0.0015
     16  C15        2.9200   26.9370   26.9240 C.ar  1296  TJF1296     0.0046
     17  C19        1.2080   22.7470   24.8930 C.3   1296  TJF1296     0.1637
     18  O19        1.5650   22.7070   23.4980 O.3   1296  TJF1296    -0.3501
     19  C20        1.4450   24.1050   25.4780 C.3   1296  TJF1296     0.1258
     20  N21        1.5500   25.0280   24.4880 N.am  1296  TJF1296    -0.2709
     21  C22        2.4920   26.0830   24.6230 C.2   1296  TJF1296     0.2492
     22  O24        2.5810   26.9000   23.7230 O.2   1296  TJF1296    -0.2699
     23  C25        0.8160   25.0140   23.3420 C.3   1296  TJF1296     0.1258
     24  C26        0.7090   23.6270   22.7930 C.3   1296  TJF1296     0.1637
     25  C27        4.6440   25.6960   25.8090 C.ar  1296  TJF1296     0.0219
     26  N28        8.7970   24.5510   25.8990 N.2   1296  TJF1296    -0.1676
     27  C29        9.4760   23.8430   24.9850 C.2   1296  TJF1296     0.1243
     28  C30        8.7730   23.0520   24.0770 C.2   1296  TJF1296     0.1158
     29  C31        9.5070   22.2610   23.0500 C.1   1296  TJF1296     0.1043
     30  N32       10.0640   21.6520   22.2660 N.1   1296  TJF1296    -0.1907
     31  S33        5.4650   22.8750   22.2170 S.3   1296  TJF1296    -0.0524
@<TRIPOS>BOND
     1     1     2    1
     2     2     3    1
     3     3     4    2
     4     3    31    1
     5     4     5    2
     6    31     7    1
     7    30    29    3
     8    24    23    1
     9    24    18    1
    10     5     7    1
    11     5     6    1
    12    29    28    1
    13     7     8    1
    14    23    20    1
    15    18    17    1
    16    22    21    2
    17    28     8    1
    18    28    27    2
    19     8     9    2
    20    20    21   am
    21    20    19    1
    22    21    11    1
    23    17    19    1
    24    27    26    1
    25     9    10    2
    26    25    11   ar
    27    25    13   ar
    28    11    16   ar
    29    26    10    2
    30    10    12    1
    31    13    12    1
    32    13    14   ar
    33    16    15   ar
    34    14    15   ar
