@<TRIPOS>MOLECULE
4bcw_TU0_A_1.pdb
 14 14 0 0 0
SMALL
GASTEIGER

@<TRIPOS>ATOM
      1 BR         -7.4380    7.1050   12.1310 Br    302  TU0302     -0.0490
      2  C4        -5.9200    6.2530   12.8710 C.ar  302  TU0302      0.0348
      3  C3        -4.6620    6.6880   12.4580 C.ar  302  TU0302      0.0100
      4  C2        -3.5150    6.0950   12.9780 C.ar  302  TU0302      0.0425
      5  C5        -6.0960    5.2280   13.8060 C.ar  302  TU0302      0.0099
      6  C6        -4.9850    4.6090   14.3670 C.ar  302  TU0302      0.0406
      7  C1        -3.6500    5.0750   13.9210 C.ar  302  TU0302      0.1957
      8  O13       -2.5330    4.5170   14.4180 O.3   302  TU0302     -0.2866
      9  C7        -5.0810    3.4810   15.3470 C.2   302  TU0302      0.0192
     10  C8        -6.0920    3.2360   16.1850 C.2   302  TU0302      0.0781
     11  S9        -6.0840    1.9800   17.1730 S.3   302  TU0302     -0.1757
     12  O10       -7.0460    0.9840   16.6210 O.3   302  TU0302     -0.3032
     13  O11       -6.5400    2.4350   18.5050 O.3   302  TU0302     -0.3032
     14  O12       -4.7010    1.4410   17.2720 O.3   302  TU0302     -0.3032
@<TRIPOS>BOND
     1     1     2    1
     2     3     2   ar
     3     3     4   ar
     4     2     5   ar
     5     4     7   ar
     6     5     6   ar
     7     7     6   ar
     8     7     8    1
     9     6     9    1
    10     9    10    2
    11    10    11    1
    12    12    11    1
    13    11    14    1
    14    11    13    1
