@<TRIPOS>MOLECULE
4bd0_BZB_A_1.pdb
 12 13 0 0 0
SMALL
GASTEIGER

@<TRIPOS>ATOM
      1  B         39.0010  -16.9710    9.3560 B     300  BZB300      0.0000
      2  O1        38.0980  -17.6210   10.3120 O.3   300  BZB300      0.0000
      3  O2        38.5410  -15.6600    8.9060 O.3   300  BZB300      0.0000
      4  C1        40.4300  -16.8310    9.9780 C.ar  300  BZB300      0.0000
      5  C2        41.4790  -15.9790    9.7370 C.ar  300  BZB300      0.0000
      6  C8        42.4810  -16.8520   11.5750 C.ar  300  BZB300      0.0000
      7  C3        42.5690  -15.9370   10.5260 C.ar  300  BZB300      0.0000
      8  C7        43.4770  -16.9970   12.5130 C.ar  300  BZB300      0.0000
      9  S         40.9650  -17.6710   11.3750 S.2   300  BZB300      0.0000
     10  C4        43.7190  -15.1440   10.4500 C.ar  300  BZB300      0.0000
     11  C6        44.5910  -16.2070   12.4190 C.ar  300  BZB300      0.0000
     12  C5        44.6930  -15.3000   11.4090 C.ar  300  BZB300      0.0000
@<TRIPOS>BOND
     1     3     1    1
     2     1     4    1
     3     1     2    1
     4     5     4   ar
     5     5     7   ar
     6     4     9   ar
     7    10     7   ar
     8    10    12   ar
     9     7     6   ar
    10     9     6   ar
    11    12    11   ar
    12     6     8   ar
    13    11     8   ar
