@<TRIPOS>MOLECULE
4bdy_CIJ_A_1.pdb
 22 24 0 0 0
SMALL
GASTEIGER

@<TRIPOS>ATOM
      1 CL        -40.0150   37.8460  -19.3250 Cl    1382  CIJ1382    -0.0799
      2  OAA      -36.9460   32.6870  -22.9510 O.2   1382  CIJ1382    -0.2695
      3  OAB      -35.8870   34.1060  -18.8300 O.2   1382  CIJ1382    -0.2694
      4  OAC      -36.2860   28.9400  -17.7310 O.3   1382  CIJ1382    -0.2831
      5  OAD      -35.9350   31.5860  -17.3420 O.3   1382  CIJ1382    -0.2830
      6  FAE      -41.0360   38.1040  -21.9720 F     1382  CIJ1382    -0.2033
      7  CAG      -36.7470   29.2940  -20.1020 C.ar  1382  CIJ1382     0.0455
      8  CAH      -39.3040   36.8660  -23.0570 C.ar  1382  CIJ1382     0.0302
      9  CAI      -38.1220   36.1340  -22.9370 C.ar  1382  CIJ1382    -0.0002
     10  CAJ      -36.8670   30.1820  -21.1760 C.ar  1382  CIJ1382     0.0082
     11  CAK      -38.1140   36.4780  -20.5580 C.ar  1382  CIJ1382     0.0111
     12  CAL      -36.2830   35.1720  -21.5460 C.3   1382  CIJ1382     0.1281
     13  CAM      -36.4400   29.7670  -18.8060 C.ar  1382  CIJ1382     0.2344
     14  CAN      -39.8850   37.4020  -21.9230 C.ar  1382  CIJ1382     0.1506
     15  CAO      -36.2380   31.1270  -18.5990 C.ar  1382  CIJ1382     0.2387
     16  CAP      -39.2720   37.2060  -20.7000 C.ar  1382  CIJ1382     0.0848
     17  CAQ      -37.5460   35.9200  -21.6930 C.ar  1382  CIJ1382    -0.0009
     18  CAR      -36.6800   32.6940  -21.7600 C.2   1382  CIJ1382     0.2555
     19  CAS      -36.1710   33.3900  -19.7890 C.2   1382  CIJ1382     0.2586
     20  CAT      -36.6650   31.5530  -20.9560 C.ar  1382  CIJ1382     0.0617
     21  CAU      -36.3300   32.0140  -19.6840 C.ar  1382  CIJ1382     0.1005
     22  NAV      -36.4150   33.7910  -21.0420 N.am  1382  CIJ1382    -0.2184
@<TRIPOS>BOND
     1     8     9   ar
     2     8    14   ar
     3     2    18    2
     4     9    17   ar
     5     6    14    1
     6    14    16   ar
     7    18    22   am
     8    18    20    1
     9    17    12    1
    10    17    11   ar
    11    12    22    1
    12    10    20   ar
    13    10     7   ar
    14    22    19   am
    15    20    21   ar
    16    16    11   ar
    17    16     1    1
    18     7    13   ar
    19    19    21    1
    20    19     3    2
    21    21    15   ar
    22    13    15   ar
    23    13     4    1
    24    15     5    1
