@<TRIPOS>MOLECULE
4bdz_19C_A_1.pdb
 21 23 0 0 0
SMALL
GASTEIGER

@<TRIPOS>ATOM
      1  OAA      -35.8920   34.2470  -18.8650 O.2   1382  19C1382    -0.2698
      2  OAB      -36.9500   29.0140  -18.0360 O.3   1382  19C1382    -0.2831
      3  OAC      -36.1890   31.5630  -17.5020 O.3   1382  19C1382    -0.2830
      4  FAD      -41.2710   38.3740  -22.0310 F     1382  19C1382    -0.2033
      5 CLA       -40.3310   38.1600  -19.3170 Cl    1382  19C1382    -0.0799
      6  CAF      -37.3940   29.5820  -20.3520 C.ar  1382  19C1382     0.0451
      7  CAG      -39.4160   37.1010  -22.9400 C.ar  1382  19C1382     0.0302
      8  CAH      -38.2400   36.3990  -22.7100 C.ar  1382  19C1382    -0.0003
      9  CAI      -37.4160   30.5290  -21.3710 C.ar  1382  19C1382     0.0010
     10  CAJ      -38.3410   36.7900  -20.3920 C.ar  1382  19C1382     0.0111
     11  CAK      -36.3380   35.5030  -21.2620 C.3   1382  19C1382     0.1208
     12  CAL      -36.9370   33.1060  -21.9660 C.3   1382  19C1382     0.1210
     13  CAM      -36.2620   33.5780  -19.8260 C.2   1382  19C1382     0.2525
     14  CAN      -36.9790   29.9350  -19.0560 C.ar  1382  19C1382     0.2344
     15  CAO      -40.0910   37.6670  -21.8820 C.ar  1382  19C1382     0.1506
     16  CAP      -36.5820   31.2480  -18.7810 C.ar  1382  19C1382     0.2383
     17  CAQ      -39.5120   37.4870  -20.6390 C.ar  1382  19C1382     0.0848
     18  CAR      -37.6860   36.2200  -21.4540 C.ar  1382  19C1382    -0.0013
     19  CAS      -37.0130   31.8410  -21.0940 C.ar  1382  19C1382     0.0054
     20  CAT      -36.5770   32.2100  -19.8070 C.ar  1382  19C1382     0.0933
     21  NAU      -36.5110   34.1150  -20.9960 N.am  1382  19C1382    -0.2678
@<TRIPOS>BOND
     1     7     8   ar
     2     7    15   ar
     3     8    18   ar
     4     4    15    1
     5    12    19    1
     6    12    21    1
     7    15    17   ar
     8    18    11    1
     9    18    10   ar
    10     9    19   ar
    11     9     6   ar
    12    11    21    1
    13    19    20   ar
    14    21    13   am
    15    17    10   ar
    16    17     5    1
    17     6    14   ar
    18    13    20    1
    19    13     1    2
    20    20    16   ar
    21    14    16   ar
    22    14     2    1
    23    16     3    1
