@<TRIPOS>MOLECULE
4be0_BF3_A_1.pdb
 22 24 0 0 0
SMALL
GASTEIGER

@<TRIPOS>ATOM
      1  OAA      -37.2980   33.1170  -22.8640 O.2   1382  BF31382    -0.2695
      2  OAB      -35.9530   34.3870  -18.7670 O.2   1382  BF31382    -0.2694
      3  OAC      -36.5940   29.1130  -17.8290 O.3   1382  BF31382    -0.2831
      4  OAD      -36.0540   31.7810  -17.3490 O.3   1382  BF31382    -0.2830
      5  FAE      -38.0600   36.7360  -19.4960 F     1382  BF31382    -0.2036
      6 CLA       -40.4140   38.2260  -19.7510 Cl    1382  BF31382    -0.0799
      7  CAG      -39.2350   37.0050  -23.3740 C.ar  1382  BF31382     0.0007
      8  CAH      -40.0020   37.6320  -22.3820 C.ar  1382  BF31382     0.0136
      9  CAI      -37.1200   29.6270  -20.1380 C.ar  1382  BF31382     0.0455
     10  CAJ      -38.1010   36.2640  -23.0660 C.ar  1382  BF31382    -0.0003
     11  CAK      -37.2490   30.5540  -21.1620 C.ar  1382  BF31382     0.0082
     12  CAL      -36.4570   35.4500  -21.4140 C.3   1382  BF31382     0.1303
     13  CAM      -36.7160   30.0240  -18.8520 C.ar  1382  BF31382     0.2344
     14  CAN      -36.4410   31.3710  -18.5970 C.ar  1382  BF31382     0.2387
     15  CAO      -39.5800   37.5130  -21.0680 C.ar  1382  BF31382     0.0848
     16  CAP      -38.4410   36.8110  -20.7670 C.ar  1382  BF31382     0.1482
     17  CAQ      -37.7140   36.1580  -21.7400 C.ar  1382  BF31382     0.0264
     18  CAR      -36.9800   33.0540  -21.6770 C.2   1382  BF31382     0.2555
     19  CAS      -36.3280   33.6770  -19.6980 C.2   1382  BF31382     0.2586
     20  CAT      -36.9670   31.8920  -20.9000 C.ar  1382  BF31382     0.0617
     21  CAU      -36.5480   32.3020  -19.6280 C.ar  1382  BF31382     0.1005
     22  NAV      -36.6270   34.0980  -20.9270 N.am  1382  BF31382    -0.2184
@<TRIPOS>BOND
     1     7    10   ar
     2     7     8   ar
     3    10    17   ar
     4     1    18    2
     5     8    15   ar
     6    17    12    1
     7    17    16   ar
     8    18    22   am
     9    18    20    1
    10    12    22    1
    11    11    20   ar
    12    11     9   ar
    13    15    16   ar
    14    15     6    1
    15    22    19   am
    16    20    21   ar
    17    16     5    1
    18     9    13   ar
    19    19    21    1
    20    19     2    2
    21    21    14   ar
    22    13    14   ar
    23    13     3    1
    24    14     4    1
