@<TRIPOS>MOLECULE
4be1_CI4_A_1.pdb
 21 23 0 0 0
SMALL
GASTEIGER

@<TRIPOS>ATOM
      1 CL        -40.6050   38.4680  -19.7830 Cl    1383  CI41383    -0.0799
      2  CA0      -36.5440   35.6650  -21.3370 C.3   1383  CI41383     0.1230
      3  OAB      -36.0790   34.5640  -18.8400 O.2   1383  CI41383    -0.2698
      4  OAC      -36.6000   29.2290  -17.7710 O.3   1383  CI41383    -0.2831
      5  OAD      -36.1620   31.9230  -17.3210 O.3   1383  CI41383    -0.2830
      6  FAE      -38.1940   37.0070  -19.4690 F     1383  CI41383    -0.2036
      7  CAG      -37.1340   29.7190  -20.1090 C.ar  1383  CI41383     0.0451
      8  CAH      -37.8440   36.3750  -21.6860 C.ar  1383  CI41383     0.0260
      9  CAI      -38.2710   36.4470  -23.0100 C.ar  1383  CI41383    -0.0003
     10  CAJ      -37.2740   30.6190  -21.1630 C.ar  1383  CI41383     0.0010
     11  CAK      -40.1950   37.8050  -22.3680 C.ar  1383  CI41383     0.0136
     12  CAM      -36.7520   30.1410  -18.8160 C.ar  1383  CI41383     0.2344
     13  CAN      -38.5920   37.0440  -20.7430 C.ar  1383  CI41383     0.1482
     14  CAO      -36.5200   31.5150  -18.5890 C.ar  1383  CI41383     0.2383
     15  CAP      -39.7480   37.7270  -21.0660 C.ar  1383  CI41383     0.0848
     16  CAQ      -39.4210   37.1520  -23.3380 C.ar  1383  CI41383     0.0007
     17  CAR      -37.1330   33.1900  -21.8650 C.3   1383  CI41383     0.1210
     18  CAS      -36.4790   33.8290  -19.7430 C.2   1383  CI41383     0.2525
     19  CAT      -37.0430   31.9740  -20.9370 C.ar  1383  CI41383     0.0054
     20  CAU      -36.6570   32.4380  -19.6560 C.ar  1383  CI41383     0.0933
     21  NAV      -36.7290   34.2810  -20.9660 N.am  1383  CI41383    -0.2677
@<TRIPOS>BOND
     1    16     9   ar
     2    16    11   ar
     3     9     8   ar
     4    11    15   ar
     5    17    21    1
     6    17    19    1
     7     8     2    1
     8     8    13   ar
     9     2    21    1
    10    10    19   ar
    11    10     7   ar
    12    15    13   ar
    13    15     1    1
    14    21    18   am
    15    19    20   ar
    16    13     6    1
    17     7    12   ar
    18    18    20    1
    19    18     3    2
    20    20    14   ar
    21    12    14   ar
    22    12     4    1
    23    14     5    1
