@<TRIPOS>MOLECULE
4be2_XZ2_D_1.pdb
 27 29 0 0 0
SMALL
GASTEIGER

@<TRIPOS>ATOM
      1 CL        -40.1120   37.8830  -19.2130 Cl    1018  XZ21018    -0.0799
      2  CAA      -36.0400   28.0440  -22.9740 C.3   1018  XZ21018     0.1150
      3  CAB      -35.9610   30.4090  -23.9620 C.3   1018  XZ21018     0.1150
      4  OAC      -35.8610   34.3900  -18.9830 O.2   1018  XZ21018    -0.2698
      5  OAD      -38.8170   30.6070  -23.0650 O.2   1018  XZ21018    -0.1528
      6  OAE      -38.6250   28.3900  -22.2580 O.2   1018  XZ21018    -0.1528
      7  OAF      -36.3540   29.3700  -17.4320 O.3   1018  XZ21018    -0.2831
      8  OAG      -35.8930   32.1090  -17.3040 O.3   1018  XZ21018    -0.2830
      9  FAH      -41.1480   38.2060  -21.9040 F     1018  XZ21018    -0.2033
     10  CAJ      -39.4110   37.0400  -23.0290 C.ar  1018  XZ21018     0.0302
     11  CAK      -38.2340   36.3060  -22.9680 C.ar  1018  XZ21018    -0.0003
     12  CAL      -37.0270   29.5770  -19.7290 C.ar  1018  XZ21018     0.0650
     13  CAM      -38.1890   36.5750  -20.5650 C.ar  1018  XZ21018     0.0111
     14  CAN      -36.3730   35.3180  -21.6860 C.3   1018  XZ21018     0.1208
     15  CAO      -37.0810   32.8240  -21.8590 C.3   1018  XZ21018     0.1223
     16  CAP      -36.3250   33.6520  -19.8460 C.2   1018  XZ21018     0.2525
     17  CAQ      -36.5800   30.1480  -18.5320 C.ar  1018  XZ21018     0.2357
     18  CAR      -39.9850   37.5160  -21.8610 C.ar  1018  XZ21018     0.1506
     19  CAS      -36.3340   31.5220  -18.4650 C.ar  1018  XZ21018     0.2384
     20  CAT      -37.6460   36.0730  -21.7380 C.ar  1018  XZ21018    -0.0013
     21  CAU      -39.3610   37.2880  -20.6390 C.ar  1018  XZ21018     0.0848
     22  CAV      -36.9650   31.7260  -20.7980 C.ar  1018  XZ21018     0.0240
     23  CAW      -37.2360   30.3630  -20.8740 C.ar  1018  XZ21018     0.1234
     24  CAX      -36.5220   32.3020  -19.6130 C.ar  1018  XZ21018     0.0946
     25  NAY      -36.6200   29.3510  -23.2230 N.3   1018  XZ21018    -0.1526
     26  NAZ      -36.5730   33.9850  -21.1200 N.am  1018  XZ21018    -0.2677
     27  SBA      -37.8460   29.6540  -22.4460 S.O2  1018  XZ21018     0.0632
@<TRIPOS>BOND
     1     3    25    1
     2    25     2    1
     3    25    27    1
     4     5    27    2
     5    10    11   ar
     6    10    18   ar
     7    11    20   ar
     8    27     6    2
     9    27    23    1
    10     9    18    1
    11    18    21   ar
    12    15    26    1
    13    15    22    1
    14    20    14    1
    15    20    13   ar
    16    14    26    1
    17    26    16   am
    18    23    22   ar
    19    23    12   ar
    20    22    24   ar
    21    21    13   ar
    22    21     1    1
    23    16    24    1
    24    16     4    2
    25    12    17   ar
    26    24    19   ar
    27    17    19   ar
    28    17     7    1
    29    19     8    1
