@<TRIPOS>MOLECULE
4blc_HEM_A_1.pdb
 43 50 0 0 0
SMALL
GASTEIGER

@<TRIPOS>ATOM
      1  CHA        8.9930   38.9270   86.3170 C.2   507  HEM507      0.0000
      2  CHB       10.3380   42.4920   83.2950 C.2   507  HEM507      0.0000
      3  CHC        7.5780   45.5490   85.8300 C.2   507  HEM507      0.0000
      4  CHD        5.5760   41.8090   88.1770 C.2   507  HEM507      0.0000
      5  C1A        9.6420   39.6480   85.3110 C.ar  507  HEM507      0.0000
      6  C2A       10.6000   39.0710   84.4160 C.ar  507  HEM507      0.0000
      7  C3A       10.9860   40.0590   83.5700 C.ar  507  HEM507      0.0000
      8  C4A       10.2650   41.2660   83.9600 C.ar  507  HEM507      0.0000
      9  CMA       11.9490   39.9120   82.4040 C.3   507  HEM507      0.0000
     10  CAA       11.0250   37.6140   84.4440 C.3   507  HEM507      0.0000
     11  CBA       10.0830   36.8300   83.5450 C.3   507  HEM507      0.0000
     12  CGA       10.3990   35.3510   83.5180 C.2   507  HEM507      0.0000
     13  O1A       11.5890   34.9920   83.4260 O.co2 507  HEM507      0.0000
     14  O2A        9.4520   34.5480   83.5830 O.co2 507  HEM507      0.0000
     15  C1B        9.5880   43.6040   83.6510 C.2   507  HEM507      0.0000
     16  C2B        9.6560   44.8820   82.9780 C.2   507  HEM507      0.0000
     17  C3B        8.9370   45.7430   83.7230 C.2   507  HEM507      0.0000
     18  C4B        8.3520   44.9920   84.8220 C.2   507  HEM507      0.0000
     19  CMB       10.3670   45.2420   81.6860 C.3   507  HEM507      0.0000
     20  CAB        8.9650   47.1190   83.5790 C.3   507  HEM507      0.0000
     21  CBB        7.9690   47.8500   82.8760 C.3   507  HEM507      0.0000
     22  C1C        6.9460   44.8240   86.8220 C.ar  507  HEM507      0.0000
     23  C2C        5.7790   45.3540   87.5190 C.ar  507  HEM507      0.0000
     24  C3C        5.1300   44.2950   88.0900 C.ar  507  HEM507      0.0000
     25  C4C        5.9130   43.1070   87.7640 C.ar  507  HEM507      0.0000
     26  CMC        5.3680   46.8100   87.6370 C.3   507  HEM507      0.0000
     27  CAC        3.9940   44.3180   88.8880 C.3   507  HEM507      0.0000
     28  CBC        2.6870   44.6310   88.3440 C.3   507  HEM507      0.0000
     29  C1D        6.3450   40.6900   87.8710 C.2   507  HEM507      0.0000
     30  C2D        6.1540   39.3740   88.4490 C.2   507  HEM507      0.0000
     31  C3D        7.1660   38.5850   88.0130 C.2   507  HEM507      0.0000
     32  C4D        7.9530   39.4310   87.1300 C.2   507  HEM507      0.0000
     33  CMD        4.9900   38.9220   89.3080 C.3   507  HEM507      0.0000
     34  CAD        7.3880   37.0720   88.2500 C.3   507  HEM507      0.0000
     35  CBD        6.6170   36.1960   87.2490 C.3   507  HEM507      0.0000
     36  CGD        6.6580   34.7190   87.6010 C.2   507  HEM507      0.0000
     37  O1D        6.5160   34.3860   88.7960 O.co2 507  HEM507      0.0000
     38  O2D        6.8330   33.8890   86.6800 O.co2 507  HEM507      0.0000
     39  NA         9.4260   40.9970   85.0400 N.ar  507  HEM507      0.0000
     40  NB         8.7350   43.6590   84.7610 N.2   507  HEM507      0.0000
     41  NC         7.0150   43.4370   86.9560 N.ar  507  HEM507      0.0000
     42  ND         7.4520   40.7150   87.0650 N.2   507  HEM507      0.0000
     43 FE          8.1760   42.1770   86.0000 Fe    507  HEM507      0.0000
@<TRIPOS>BOND
     1    19    16    1
     2     9     7    1
     3    21    20    1
     4    16    15    1
     5    16    17    2
     6     2    15    1
     7     2     8    2
     8    13    12   ar
     9    12    11    1
    10    12    14   ar
    11    11    10    1
    12     7     8   ar
    13     7     6   ar
    14    20    17    1
    15    15    40    2
    16    17    18    1
    17     8    39   ar
    18     6    10    1
    19     6     5   ar
    20    40    18    1
    21    40    43    1
    22    18     3    2
    23    39     5   ar
    24    39    43    1
    25     5     1    2
    26     3    22    1
    27    43    41    1
    28    43    42    1
    29     1    32    1
    30    38    36   ar
    31    22    41   ar
    32    22    23   ar
    33    41    25   ar
    34    42    32    2
    35    42    29    1
    36    32    31    1
    37    35    36    1
    38    35    34    1
    39    23    26    1
    40    23    24   ar
    41    36    37   ar
    42    25    24   ar
    43    25     4    1
    44    29     4    2
    45    29    30    1
    46    31    34    1
    47    31    30    2
    48    24    27    1
    49    28    27    1
    50    30    33    1
