@<TRIPOS>MOLECULE
4blc_NDP_A_1.pdb
 48 52 0 0 0
SMALL
GASTEIGER

@<TRIPOS>ATOM
      1  PA        -8.0280   54.8190  101.8050 P.3   1102  NDP1102     0.2189
      2  O1A       -7.9270   55.0350  103.2730 O.3   1102  NDP1102    -0.4371
      3  O2A       -9.3780   54.8430  101.1740 O.2   1102  NDP1102    -0.5170
      4  O5B       -7.3000   53.4370  101.3690 O.3   1102  NDP1102    -0.3112
      5  C5B       -5.9630   53.1350  101.7930 C.3   1102  NDP1102     0.1813
      6  C4B       -5.6590   51.6690  101.5690 C.3   1102  NDP1102     0.1820
      7  O4B       -4.2830   51.5170  101.9780 O.3   1102  NDP1102    -0.3136
      8  C3B       -6.5090   50.7700  102.4390 C.3   1102  NDP1102     0.2157
      9  O3B       -7.6860   50.2470  101.8020 O.3   1102  NDP1102    -0.2175
     10  C2B       -5.4910   49.6910  102.7640 C.3   1102  NDP1102     0.2314
     11  O2B       -5.4940   48.6020  101.8520 O.3   1102  NDP1102    -0.2630
     12  C1B       -4.0940   50.2340  102.6030 C.3   1102  NDP1102     0.3158
     13  N9A       -3.1510   50.1390  103.7690 N.pl3 1102  NDP1102    -0.1439
     14  C8A       -3.4170   50.1710  105.1030 C.3   1102  NDP1102     0.3377
     15  N7A       -2.3100   50.0560  105.8540 N.2   1102  NDP1102    -0.2095
     16  C5A       -1.3400   49.9510  104.9500 C.2   1102  NDP1102     0.2526
     17  C6A        0.0540   49.9740  105.2080 C.2   1102  NDP1102     0.4393
     18  N6A        0.5760   49.8960  106.4340 N.pl3 1102  NDP1102     0.2180
     19  N1A        0.8860   50.0490  104.1280 N.2   1102  NDP1102     0.0021
     20  C2A        0.4050   50.0870  102.8690 C.3   1102  NDP1102     0.5254
     21  N3A       -0.9220   50.0570  102.6090 N.2   1102  NDP1102    -0.0055
     22  C4A       -1.8240   50.0070  103.6350 C.2   1102  NDP1102     0.3518
     23  O3        -7.0780   55.9050  101.0580 O.3   1102  NDP1102    -0.2703
     24  PN        -6.8830   56.3730   99.5300 P.3   1102  NDP1102     0.2189
     25  O1N       -8.1530   57.0480   99.1630 O.3   1102  NDP1102    -0.4371
     26  O2N       -6.4620   55.1850   98.7430 O.2   1102  NDP1102    -0.5170
     27  O5D       -5.7000   57.4710   99.7090 O.3   1102  NDP1102    -0.3112
     28  C5D       -4.4310   57.4620   99.0160 C.3   1102  NDP1102     0.1813
     29  C4D       -3.3060   57.1180   99.9910 C.3   1102  NDP1102     0.1799
     30  O4D       -3.4540   55.7150  100.3520 O.3   1102  NDP1102    -0.3327
     31  C3D       -1.9360   57.2760   99.3420 C.3   1102  NDP1102     0.2158
     32  O3D       -1.1580   58.2700  100.0150 O.3   1102  NDP1102    -0.2175
     33  C2D       -1.3020   55.8840   99.3620 C.3   1102  NDP1102     0.2309
     34  O2D       -0.0150   55.8310   99.9750 O.3   1102  NDP1102    -0.2158
     35  C1D       -2.2340   54.9540  100.1170 C.3   1102  NDP1102     0.2263
     36  N1N       -2.4090   53.6290   99.4360 N.pl3 1102  NDP1102    -0.2787
     37  C2N       -3.5010   53.4470   98.5190 C.3   1102  NDP1102     0.1244
     38  C3N       -3.8920   52.1960   98.0250 C.2   1102  NDP1102     0.0544
     39  C7N       -5.1150   52.1250   97.0650 C.2   1102  NDP1102     0.2818
     40  O7N       -5.6900   51.0640   96.8380 O.2   1102  NDP1102    -0.2670
     41  N7N       -5.5660   53.2730   96.5460 N.am  1102  NDP1102    -0.0839
     42  C4N       -3.0840   51.0930   98.4560 C.2   1102  NDP1102     0.0033
     43  C5N       -1.9390   51.2310   99.3090 C.2   1102  NDP1102     0.0157
     44  C6N       -1.6030   52.5060   99.8160 C.2   1102  NDP1102     0.0633
     45  P2B       -6.0240   47.1980  102.4050 P.3   1102  NDP1102     0.5328
     46  O1X       -5.1690   46.9060  103.7520 O.3   1102  NDP1102    -0.1145
     47  O2X       -5.6690   46.2170  101.3580 O.2   1102  NDP1102    -0.2224
     48  O3X       -7.4480   47.3760  102.7820 O.3   1102  NDP1102    -0.1145
@<TRIPOS>BOND
     1    41    39   am
     2    40    39    2
     3    39    38    1
     4    38    42    2
     5    38    37    1
     6    42    43    1
     7    37    36    1
     8    26    24    2
     9    28    27    1
    10    28    29    1
    11    25    24    1
    12    43    44    2
    13    31    33    1
    14    31    29    1
    15    31    32    1
    16    33    34    1
    17    33    35    1
    18    36    44    1
    19    36    35    1
    20    24    27    1
    21    24    23    1
    22    29    30    1
    23    35    30    1
    24    23     1    1
    25     3     1    2
    26    47    45    2
    27     4     5    1
    28     4     1    1
    29     6     5    1
    30     6     7    1
    31     6     8    1
    32     9     8    1
    33     1     2    1
    34    11    45    1
    35    11    10    1
    36     7    12    1
    37    45    48    1
    38    45    46    1
    39     8    10    1
    40    12    10    1
    41    12    13    1
    42    21    20    1
    43    21    22    2
    44    20    19    1
    45    22    13    1
    46    22    16    1
    47    13    14    1
    48    19    17    2
    49    16    17    1
    50    16    15    2
    51    14    15    1
    52    17    18    1
