@<TRIPOS>MOLECULE
4bu4_2GP_A_1.pdb
 24 26 0 0 0
SMALL
GASTEIGER

@<TRIPOS>ATOM
      1  P          1.0880    3.4910   11.1750 P.3   106  2GP106      0.5327
      2  O1P        2.2300    2.6530   10.7130 O.2   106  2GP106     -0.2224
      3  O2P        0.5430    3.0650   12.5100 O.3   106  2GP106     -0.1145
      4  O3P        1.2830    4.9320   11.0390 O.3   106  2GP106     -0.1145
      5  O5'       -4.0160    5.4880    9.9350 O.3   106  2GP106     -0.2176
      6  C5'       -4.3630    4.3830    9.0890 C.3   106  2GP106      0.2142
      7  C4'       -3.2020    3.5980    8.3230 C.3   106  2GP106      0.1827
      8  O4'       -2.3150    4.4030    7.4780 O.3   106  2GP106     -0.3326
      9  C3'       -2.2360    2.9590    9.2800 C.3   106  2GP106      0.2132
     10  O3'       -1.8810    1.7760    8.5080 O.3   106  2GP106     -0.2176
     11  C2'       -1.0970    4.0180    9.5070 C.3   106  2GP106      0.2054
     12  O2'        0.1220    3.3220    9.9480 O.3   106  2GP106     -0.2657
     13  C1'       -0.9920    4.5040    8.0490 C.3   106  2GP106      0.2266
     14  N9        -0.7050    5.9320    7.7660 N.pl3 106  2GP106     -0.2354
     15  C8         0.0000    6.4180    6.6860 C.3   106  2GP106      0.2246
     16  N7        -0.0160    7.7010    6.6060 N.2   106  2GP106     -0.2322
     17  C5        -0.7740    8.0820    7.6950 C.2   106  2GP106      0.2182
     18  C6        -1.1460    9.3560    8.0850 C.1   106  2GP106      0.2372
     19  O6        -0.8000   10.3540    7.4810 O.2   106  2GP106     -0.2069
     20  N1        -1.9590    9.3790    9.2350 N.2   106  2GP106     -0.2485
     21  C2        -2.3560    8.2600    9.9260 C.1   106  2GP106      0.2531
     22  N2        -3.1650    8.4230   10.9610 N.pl3 106  2GP106     -0.0226
     23  N3        -1.9890    7.0440    9.5570 N.2   106  2GP106     -0.3074
     24  C4        -1.2070    7.0310    8.4320 C.2   106  2GP106      0.2300
@<TRIPOS>BOND
     1    16    15    1
     2    16    17    2
     3    15    14    1
     4     8    13    1
     5     8     7    1
     6    19    18    2
     7    17    18    1
     8    17    24    1
     9    14    13    1
    10    14    24    1
    11    13    11    1
    12    18    20    2
    13     7     6    1
    14     7     9    1
    15    24    23    2
    16    10     9    1
    17     6     5    1
    18    20    21    2
    19     9    11    1
    20    11    12    1
    21    23    21    2
    22    21    22    1
    23    12     1    1
    24     2     1    2
    25     4     1    1
    26     1     3    1
