@<TRIPOS>MOLECULE
4ccp_HEM_A_1.pdb
 43 50 0 0 0
SMALL
GASTEIGER

@<TRIPOS>ATOM
      1  CHA       -5.3600   53.8010   22.3420 C.2   296  HEM296      0.0000
      2  CHB       -7.5130   57.9380   23.7140 C.2   296  HEM296      0.0000
      3  CHC       -5.8710   60.0580   19.6790 C.2   296  HEM296      0.0000
      4  CHD       -3.3870   56.0730   18.5910 C.2   296  HEM296      0.0000
      5  C1A       -6.0370   54.7490   23.0650 C.2   296  HEM296      0.0000
      6  C2A       -6.6410   54.5200   24.3700 C.2   296  HEM296      0.0000
      7  C3A       -7.2330   55.6630   24.7440 C.2   296  HEM296      0.0000
      8  C4A       -7.0210   56.6330   23.6860 C.2   296  HEM296      0.0000
      9  CMA       -8.0580   55.9790   26.0260 C.3   296  HEM296      0.0000
     10  CAA       -6.5570   53.1610   25.1040 C.3   296  HEM296      0.0000
     11  CBA       -5.2860   52.9280   25.9610 C.3   296  HEM296      0.0000
     12  CGA       -5.2730   51.5620   26.6350 C.2   296  HEM296      0.0000
     13  O1A       -6.1810   51.2650   27.4790 O.co2 296  HEM296      0.0000
     14  O2A       -4.3350   50.7780   26.2650 O.co2 296  HEM296      0.0000
     15  C1B       -7.3050   58.8380   22.7000 C.ar  296  HEM296      0.0000
     16  C2B       -7.8830   60.1880   22.6350 C.ar  296  HEM296      0.0000
     17  C3B       -7.4170   60.7670   21.5220 C.ar  296  HEM296      0.0000
     18  C4B       -6.5190   59.8170   20.8600 C.ar  296  HEM296      0.0000
     19  CMB       -8.8100   60.7710   23.7140 C.3   296  HEM296      0.0000
     20  CAB       -7.6770   62.1840   20.9890 C.2   296  HEM296      0.0000
     21  CBB       -8.8460   62.7620   21.2920 C.2   296  HEM296      0.0000
     22  C1C       -4.9980   59.1970   19.0500 C.2   296  HEM296      0.0000
     23  C2C       -4.1360   59.5140   17.9280 C.2   296  HEM296      0.0000
     24  C3C       -3.4440   58.4170   17.6530 C.2   296  HEM296      0.0000
     25  C4C       -3.8590   57.3740   18.5880 C.2   296  HEM296      0.0000
     26  CMC       -4.0580   60.8920   17.2240 C.3   296  HEM296      0.0000
     27  CAC       -2.3550   58.1590   16.5720 C.2   296  HEM296      0.0000
     28  CBC       -2.4540   58.7840   15.4000 C.2   296  HEM296      0.0000
     29  C1D       -3.8290   55.0800   19.4150 C.ar  296  HEM296      0.0000
     30  C2D       -3.6170   53.6470   19.2290 C.ar  296  HEM296      0.0000
     31  C3D       -4.1630   53.0310   20.2840 C.ar  296  HEM296      0.0000
     32  C4D       -4.7320   54.0410   21.1580 C.ar  296  HEM296      0.0000
     33  CMD       -2.9190   53.0080   18.0070 C.3   296  HEM296      0.0000
     34  CAD       -4.2260   51.5010   20.5770 C.3   296  HEM296      0.0000
     35  CBD       -2.9890   51.1280   21.4200 C.3   296  HEM296      0.0000
     36  CGD       -2.9580   49.6810   21.8890 C.2   296  HEM296      0.0000
     37  O1D       -2.1730   49.5290   22.8580 O.co2 296  HEM296      0.0000
     38  O2D       -3.6610   48.8120   21.3050 O.co2 296  HEM296      0.0000
     39  NA        -6.2760   56.0440   22.6810 N.2   296  HEM296      0.0000
     40  NB        -6.4870   58.6800   21.6010 N.ar  296  HEM296      0.0000
     41  NC        -4.8010   57.8750   19.4400 N.2   296  HEM296      0.0000
     42  ND        -4.4620   55.2680   20.6150 N.ar  296  HEM296      0.0000
     43 FE         -5.6710   56.9010   20.9580 Fe    296  HEM296      0.0000
@<TRIPOS>BOND
     1    28    27    2
     2    27    24    1
     3    26    23    1
     4    24    23    2
     5    24    25    1
     6    23    22    1
     7    33    30    1
     8    25     4    1
     9    25    41    2
    10     4    29    2
    11    22    41    1
    12    22     3    2
    13    30    29   ar
    14    30    31   ar
    15    29    42   ar
    16    41    43    1
    17     3    18    1
    18    31    34    1
    19    31    32   ar
    20    34    35    1
    21    42    43    1
    22    42    32   ar
    23    18    17   ar
    24    18    40   ar
    25    43    40    1
    26    43    39    1
    27    20    21    2
    28    20    17    1
    29    32     1    2
    30    38    36   ar
    31    35    36    1
    32    17    16   ar
    33    40    15   ar
    34    36    37   ar
    35     1     5    1
    36    16    15   ar
    37    16    19    1
    38    39     5    2
    39    39     8    1
    40    15     2    1
    41     5     6    1
    42     8     2    2
    43     8     7    1
    44     6     7    2
    45     6    10    1
    46     7     9    1
    47    10    11    1
    48    11    12    1
    49    14    12   ar
    50    12    13   ar
