@<TRIPOS>MOLECULE
4ccx_HEM_A_1.pdb
 43 50 0 0 0
SMALL
GASTEIGER

@<TRIPOS>ATOM
      1 FE         -5.6940   56.9700  111.6250 Fe    295  HEM295      0.0000
      2  CHA       -5.2650   53.9220  112.9210 C.2   295  HEM295      0.0000
      3  CHB       -7.3870   57.9150  114.4420 C.2   295  HEM295      0.0000
      4  CHC       -5.8960   60.0770  110.4910 C.2   295  HEM295      0.0000
      5  CHD       -3.4510   56.1940  109.1740 C.2   295  HEM295      0.0000
      6  NA        -6.3010   56.0580  113.3640 N.2   295  HEM295      0.0000
      7  C1A       -5.9990   54.7980  113.7160 C.2   295  HEM295      0.0000
      8  C2A       -6.5050   54.4840  114.9590 C.2   295  HEM295      0.0000
      9  C3A       -7.1740   55.6380  115.3820 C.2   295  HEM295      0.0000
     10  C4A       -6.9580   56.5830  114.3980 C.2   295  HEM295      0.0000
     11  CMA       -8.0380   55.8480  116.6230 C.3   295  HEM295      0.0000
     12  CAA       -6.4250   53.1200  115.6410 C.3   295  HEM295      0.0000
     13  CBA       -5.2810   53.0000  116.6380 C.3   295  HEM295      0.0000
     14  CGA       -5.1780   51.6690  117.3970 C.2   295  HEM295      0.0000
     15  O1A       -5.9800   51.3790  118.2880 O.co2 295  HEM295      0.0000
     16  O2A       -4.2610   50.8950  117.1270 O.co2 295  HEM295      0.0000
     17  NB        -6.7150   58.6690  112.2650 N.ar  295  HEM295      0.0000
     18  C1B       -7.2910   58.8910  113.4340 C.ar  295  HEM295      0.0000
     19  C2B       -7.8140   60.1880  113.5090 C.ar  295  HEM295      0.0000
     20  C3B       -7.4270   60.7920  112.3160 C.ar  295  HEM295      0.0000
     21  C4B       -6.6510   59.8430  111.6470 C.ar  295  HEM295      0.0000
     22  CMB       -8.6620   60.7120  114.6690 C.3   295  HEM295      0.0000
     23  CAB       -7.7400   62.0330  111.7620 C.3   295  HEM295      0.0000
     24  CBB       -8.7320   62.9750  112.2140 C.3   295  HEM295      0.0000
     25  NC        -4.8070   57.9600  110.0710 N.2   295  HEM295      0.0000
     26  C1C       -5.0110   59.2550  109.7690 C.2   295  HEM295      0.0000
     27  C2C       -4.2300   59.6800  108.7050 C.2   295  HEM295      0.0000
     28  C3C       -3.4550   58.5540  108.3920 C.2   295  HEM295      0.0000
     29  C4C       -3.8970   57.5310  109.2170 C.2   295  HEM295      0.0000
     30  CMC       -4.1470   61.1230  108.1550 C.3   295  HEM295      0.0000
     31  CAC       -2.4550   58.3480  107.4290 C.3   295  HEM295      0.0000
     32  CBC       -2.1880   59.1390  106.2500 C.3   295  HEM295      0.0000
     33  ND        -4.4610   55.3430  111.1710 N.ar  295  HEM295      0.0000
     34  C1D       -3.7750   55.1610  110.0470 C.ar  295  HEM295      0.0000
     35  C2D       -3.4900   53.8200  109.8260 C.ar  295  HEM295      0.0000
     36  C3D       -4.0150   53.1530  110.9180 C.ar  295  HEM295      0.0000
     37  C4D       -4.5990   54.1390  111.7140 C.ar  295  HEM295      0.0000
     38  CMD       -2.8170   53.2210  108.6060 C.3   295  HEM295      0.0000
     39  CAD       -3.9460   51.6390  111.1650 C.3   295  HEM295      0.0000
     40  CBD       -2.8300   51.2720  112.1610 C.3   295  HEM295      0.0000
     41  CGD       -2.8250   49.8220  112.6410 C.2   295  HEM295      0.0000
     42  O1D       -2.1820   49.5300  113.6350 O.co2 295  HEM295      0.0000
     43  O2D       -3.4890   48.9810  112.0500 O.co2 295  HEM295      0.0000
@<TRIPOS>BOND
     1    32    31    1
     2    31    28    1
     3    30    27    1
     4    28    27    2
     5    28    29    1
     6    38    35    1
     7    27    26    1
     8     5    29    1
     9     5    34    2
    10    29    25    2
    11    26    25    1
    12    26     4    2
    13    35    34   ar
    14    35    36   ar
    15    34    33   ar
    16    25     1    1
    17     4    21    1
    18    36    39    1
    19    36    37   ar
    20    39    40    1
    21    33     1    1
    22    33    37   ar
    23     1    17    1
    24     1     6    1
    25    21    17   ar
    26    21    20   ar
    27    37     2    2
    28    23    24    1
    29    23    20    1
    30    43    41   ar
    31    40    41    1
    32    17    18   ar
    33    20    19   ar
    34    41    42   ar
    35     2     7    1
    36     6     7    2
    37     6    10    1
    38    18    19   ar
    39    18     3    1
    40    19    22    1
    41     7     8    1
    42    10     3    2
    43    10     9    1
    44     8     9    2
    45     8    12    1
    46     9    11    1
    47    12    13    1
    48    13    14    1
    49    16    14   ar
    50    14    15   ar
