@<TRIPOS>MOLECULE
4cd2_FOL_A_1.pdb
 32 34 0 0 0
SMALL
GASTEIGER

@<TRIPOS>ATOM
      1  N1         9.9550   57.9950   30.2000 N.2   207  FOL207     -0.2672
      2  C2         9.9060   57.0550   29.2240 C.1   207  FOL207      0.2609
      3  NA2       10.7520   57.2220   28.2850 N.pl3 207  FOL207     -0.0220
      4  N3         8.9780   56.0900   29.2360 N.2   207  FOL207     -0.2466
      5  C4         8.1770   55.9920   30.2770 C.1   207  FOL207      0.2569
      6  O4         7.2840   55.0480   30.3960 O.2   207  FOL207     -0.2052
      7  C4A        8.2420   56.9320   31.4110 C.2   207  FOL207      0.2988
      8  N5         7.4390   56.7840   32.4780 N.2   207  FOL207     -0.3839
      9  C6         7.5780   57.7330   33.3950 C.2   207  FOL207      0.1356
     10  C7         8.5110   58.7510   33.2550 C.3   207  FOL207      0.1931
     11  N8         9.3450   58.8640   32.2440 N.2   207  FOL207     -0.1992
     12  C8A        9.1730   57.9600   31.3000 C.1   207  FOL207      0.1401
     13  C9         6.6870   57.7000   34.6370 C.3   207  FOL207      0.1683
     14  N10        6.0220   56.4710   34.8310 N.pl3 207  FOL207     -0.2303
     15  C11        7.7340   52.6350   35.4050 C.ar  207  FOL207      0.0551
     16  C12        6.3660   52.8380   35.4770 C.ar  207  FOL207      0.0059
     17  C13        5.8230   54.1210   35.3220 C.ar  207  FOL207      0.0162
     18  C14        6.6300   55.2430   35.0590 C.ar  207  FOL207      0.0658
     19  C15        8.0050   55.0100   35.0190 C.ar  207  FOL207      0.0162
     20  C16        8.5010   53.7580   35.2200 C.ar  207  FOL207      0.0059
     21  C          8.3250   51.3020   35.5800 C.2   207  FOL207      0.2652
     22  O          7.7100   50.2380   35.7750 O.2   207  FOL207     -0.2684
     23  N          9.6080   51.0940   35.6120 N.am  207  FOL207     -0.1918
     24  CA        10.2990   49.8670   35.8820 C.3   207  FOL207      0.1986
     25  CB        10.3080   48.9000   34.6850 C.3   207  FOL207      0.0451
     26  CG         8.9660   48.2470   34.5390 C.3   207  FOL207      0.1164
     27  CD         9.1660   47.1060   33.6290 C.2   207  FOL207      0.3649
     28  OE1       10.2120   46.5580   33.1080 O.co2 207  FOL207     -0.2457
     29  OE2        8.1660   46.3930   33.2070 O.co2 207  FOL207     -0.2457
     30  CT        11.7470   50.2160   36.2450 C.2   207  FOL207      0.3842
     31  O1        12.2510   49.3340   36.9530 O.co2 207  FOL207     -0.2437
     32  O2        12.1990   51.2160   35.7280 O.co2 207  FOL207     -0.2437
@<TRIPOS>BOND
     1     3     2    1
     2     2     4    2
     3     2     1    2
     4     4     5    2
     5     1    12    2
     6     5     6    2
     7     5     7    1
     8    12     7    1
     9    12    11    2
    10     7     8    2
    11    11    10    1
    12     8     9    2
    13    28    27   ar
    14    29    27   ar
    15    10     9    1
    16     9    13    1
    17    27    26    1
    18    26    25    1
    19    13    14    1
    20    25    24    1
    21    14    18    1
    22    19    18   ar
    23    19    20   ar
    24    18    17   ar
    25    20    15   ar
    26    17    16   ar
    27    15    16   ar
    28    15    21    1
    29    21    23   am
    30    21    22    2
    31    23    24    1
    32    32    30   ar
    33    24    30    1
    34    30    31   ar
