@<TRIPOS>MOLECULE
4cla_CLM_A_1.pdb
 20 20 0 0 0
SMALL
GASTEIGER

@<TRIPOS>ATOM
      1  C1         1.1300   17.3990   13.6210 C.3   221  CLM221      0.2356
      2 CL1        -0.2820   18.5360   13.4750 Cl    221  CLM221     -0.0870
      3 CL2         1.4820   16.9710   12.0240 Cl    221  CLM221     -0.0870
      4  C2         0.3500   16.0770   14.2250 C.2   221  CLM221      0.2720
      5  O2        -0.5370   15.4850   13.6510 O.2   221  CLM221     -0.2706
      6  N2         0.6840   15.7500   15.4120 N.am  221  CLM221     -0.1994
      7  C3         0.2410   14.6650   16.2810 C.3   221  CLM221      0.1626
      8  C4        -0.3260   15.3510   17.4870 C.3   221  CLM221      0.2065
      9  O4        -0.9690   14.4050   18.3660 O.3   221  CLM221     -0.2184
     10  C5         1.4140   13.7600   16.5880 C.3   221  CLM221      0.1966
     11  O5         2.3240   14.5130   17.4270 O.3   221  CLM221     -0.2163
     12  C6         1.9410   13.1890   15.2590 C.ar  221  CLM221      0.0096
     13  C7         1.2470   12.0370   14.7860 C.ar  221  CLM221     -0.0001
     14  C8         1.5720   11.3780   13.6410 C.ar  221  CLM221      0.0238
     15  C9         2.6510   11.9050   13.0480 C.ar  221  CLM221      0.1429
     16  N9         3.2110   11.2580   11.8760 N.pl3 221  CLM221      0.0577
     17  O9A        2.7400   10.1710   11.5860 O.2   221  CLM221     -0.1261
     18  O9B        3.9990   11.8530   11.2700 O.2   221  CLM221     -0.1261
     19  C10        3.3740   13.0820   13.3070 C.ar  221  CLM221      0.0238
     20  C11        2.9920   13.7100   14.5270 C.ar  221  CLM221     -0.0001
@<TRIPOS>BOND
     1    18    16    2
     2    17    16    2
     3    16    15    1
     4     3     1    1
     5    15    19   ar
     6    15    14   ar
     7    19    20   ar
     8     2     1    1
     9     1     4    1
    10    14    13   ar
    11     5     4    2
    12     4     6   am
    13    20    12   ar
    14    13    12   ar
    15    12    10    1
    16     6     7    1
    17     7    10    1
    18     7     8    1
    19    10    11    1
    20     8     9    1
