@<TRIPOS>MOLECULE
4cox_IMN_A_1.pdb
 25 27 0 0 0
SMALL
GASTEIGER

@<TRIPOS>ATOM
      1  C         24.4300   22.5620   15.7290 C.ar  701  IMN701      0.0664
      2  C1        24.6130   21.6270   16.7660 C.ar  701  IMN701      0.0169
      3  C2        23.4840   20.9760   17.3480 C.ar  701  IMN701      0.0381
      4  C3        22.1610   21.2580   16.9000 C.ar  701  IMN701      0.1388
      5  C4        21.9650   22.2130   15.8370 C.ar  701  IMN701      0.0384
      6  C5        23.1000   22.8630   15.2550 C.ar  701  IMN701      0.0207
      7  C6        19.7380   21.0300   17.1770 C.3   701  IMN701      0.2525
      8  C7        26.1130   21.5610   16.9930 C.ar  701  IMN701      0.0027
      9  C8        26.6830   22.4120   16.1370 C.ar  701  IMN701      0.0411
     10  C9        26.0230   24.0190   14.5170 C.2   701  IMN701      0.2644
     11  C10       25.6030   23.9870   13.0580 C.ar  701  IMN701      0.0565
     12  C11       25.6130   25.1840   12.3130 C.ar  701  IMN701      0.0056
     13  C12       25.2400   25.1990   10.9540 C.ar  701  IMN701      0.0115
     14  C13       24.8640   24.0480   10.3300 C.ar  701  IMN701      0.0577
     15  C14       24.8410   22.8530   11.0520 C.ar  701  IMN701      0.0115
     16  C15       25.2170   22.8220   12.4340 C.ar  701  IMN701      0.0056
     17  C16       28.1450   22.6380   16.0440 C.3   701  IMN701      0.0501
     18  C17       26.8760   20.7210   18.0620 C.3   701  IMN701      0.1415
     19  C18       26.3280   19.2970   18.1950 C.2   701  IMN701      0.3693
     20  N         25.7500   23.0430   15.3710 N.ar  701  IMN701     -0.2785
     21  O         21.0600   20.6030   17.5140 O.3   701  IMN701     -0.4714
     22  O1        26.6270   24.9820   14.9450 O.2   701  IMN701     -0.2666
     23  O2        25.5030   18.8650   17.4260 O.co2 701  IMN701     -0.2453
     24  O3        26.7530   18.5340   19.1350 O.co2 701  IMN701     -0.2453
     25 CL         24.4880   24.0690    8.6490 Cl    701  IMN701     -0.0822
@<TRIPOS>BOND
     1    25    14    1
     2    14    13   ar
     3    14    15   ar
     4    13    12   ar
     5    15    16   ar
     6    12    11   ar
     7    16    11   ar
     8    11    10    1
     9    10    22    2
    10    10    20   am
    11     6     1   ar
    12     6     5   ar
    13    20     1   ar
    14    20     9   ar
    15     1     2   ar
    16     5     4   ar
    17    17     9    1
    18     9     8   ar
    19     2     8   ar
    20     2     3   ar
    21     4     3   ar
    22     4    21    1
    23     8    18    1
    24     7    21    1
    25    23    19   ar
    26    18    19    1
    27    19    24   ar
