@<TRIPOS>MOLECULE
4cox_HEM_A_1.pdb
 43 50 0 0 0
SMALL
GASTEIGER

@<TRIPOS>ATOM
      1  CHA       23.4840   34.3350   -0.3670 C.2   682  HEM682      0.0000
      2  CHB       20.2460   37.8340    0.1410 C.2   682  HEM682      0.0000
      3  CHC       19.9290   36.9200    4.8100 C.2   682  HEM682      0.0000
      4  CHD       22.8080   33.0950    4.2180 C.2   682  HEM682      0.0000
      5  C1A       22.5820   35.3390   -0.6560 C.ar  682  HEM682      0.0000
      6  C2A       22.3850   35.9320   -1.9730 C.ar  682  HEM682      0.0000
      7  C3A       21.4680   36.9070   -1.8140 C.ar  682  HEM682      0.0000
      8  C4A       21.0990   36.9060   -0.4180 C.ar  682  HEM682      0.0000
      9  CMA       20.9910   37.9040   -2.8690 C.3   682  HEM682      0.0000
     10  CAA       23.1180   35.6260   -3.2780 C.3   682  HEM682      0.0000
     11  CBA       22.6020   34.3810   -4.0460 C.3   682  HEM682      0.0000
     12  CGA       23.1980   34.2430   -5.4850 C.2   682  HEM682      0.0000
     13  O1A       23.4600   33.0780   -5.9290 O.co2 682  HEM682      0.0000
     14  O2A       23.3940   35.3040   -6.1650 O.co2 682  HEM682      0.0000
     15  C1B       19.9330   37.9350    1.4730 C.2   682  HEM682      0.0000
     16  C2B       19.1340   38.9950    2.0380 C.2   682  HEM682      0.0000
     17  C3B       19.0990   38.7830    3.3660 C.2   682  HEM682      0.0000
     18  C4B       19.8530   37.5670    3.6030 C.2   682  HEM682      0.0000
     19  CMB       18.4780   40.1200    1.2640 C.3   682  HEM682      0.0000
     20  CAB       18.4890   39.5620    4.3320 C.3   682  HEM682      0.0000
     21  CBB       18.1950   41.0080    4.2170 C.3   682  HEM682      0.0000
     22  C1C       20.6000   35.7300    5.0220 C.ar  682  HEM682      0.0000
     23  C2C       20.6610   35.0640    6.2970 C.ar  682  HEM682      0.0000
     24  C3C       21.4350   33.9850    6.1430 C.ar  682  HEM682      0.0000
     25  C4C       21.8710   33.9760    4.7590 C.ar  682  HEM682      0.0000
     26  CMC       20.0400   35.5620    7.5870 C.3   682  HEM682      0.0000
     27  CAC       21.7440   33.0970    7.1510 C.3   682  HEM682      0.0000
     28  CBC       22.7960   32.0810    7.0850 C.3   682  HEM682      0.0000
     29  C1D       23.3240   33.1670    2.9300 C.2   682  HEM682      0.0000
     30  C2D       24.3780   32.3280    2.4140 C.2   682  HEM682      0.0000
     31  C3D       24.5860   32.7260    1.1440 C.2   682  HEM682      0.0000
     32  C4D       23.6610   33.7750    0.8710 C.2   682  HEM682      0.0000
     33  CMD       25.1990   31.3180    3.1920 C.3   682  HEM682      0.0000
     34  CAD       25.7230   32.3360    0.2270 C.3   682  HEM682      0.0000
     35  CBD       26.9160   33.2770    0.3710 C.3   682  HEM682      0.0000
     36  CGD       27.9480   33.0800   -0.7010 C.2   682  HEM682      0.0000
     37  O1D       28.2390   31.9210   -1.0120 O.co2 682  HEM682      0.0000
     38  O2D       28.4560   34.0800   -1.2490 O.co2 682  HEM682      0.0000
     39  NA        21.7770   35.9450    0.2910 N.ar  682  HEM682      0.0000
     40  NB        20.3990   37.0720    2.4360 N.2   682  HEM682      0.0000
     41  NC        21.3390   35.0580    4.0720 N.ar  682  HEM682      0.0000
     42  ND        22.9200   34.0910    1.9800 N.2   682  HEM682      0.0000
     43 FE         21.6630   35.5850    2.2080 Fe    682  HEM682      0.0000
@<TRIPOS>BOND
     1    14    12   ar
     2    13    12   ar
     3    12    11    1
     4    11    10    1
     5    10     6    1
     6     9     7    1
     7     6     7   ar
     8     6     5   ar
     9     7     8   ar
    10    38    36   ar
    11    37    36   ar
    12    36    35    1
    13     5     1    2
    14     5    39   ar
    15     8     2    2
    16     8    39   ar
    17     1    32    1
    18     2    15    1
    19    34    35    1
    20    34    31    1
    21    39    43    1
    22    32    31    1
    23    32    42    2
    24    31    30    2
    25    19    16    1
    26    15    16    1
    27    15    40    2
    28    42    43    1
    29    42    29    1
    30    16    17    2
    31    43    40    1
    32    43    41    1
    33    30    29    1
    34    30    33    1
    35    40    18    1
    36    29     4    2
    37    17    18    1
    38    17    20    1
    39    18     3    2
    40    41    25   ar
    41    41    22   ar
    42    21    20    1
    43     4    25    1
    44    25    24   ar
    45     3    22    1
    46    22    23   ar
    47    24    23   ar
    48    24    27    1
    49    23    26    1
    50    28    27    1
