@<TRIPOS>MOLECULE
4cp4_HEM_A_1.pdb
 43 50 0 0 0
SMALL
GASTEIGER

@<TRIPOS>ATOM
      1 FE         48.3690   46.2080    8.8790 Fe    415  HEM415      0.0000
      2  CHA       45.3010   44.7730    8.6870 C.2   415  HEM415      0.0000
      3  CHB       49.7490   43.0690    9.3070 C.2   415  HEM415      0.0000
      4  CHC       51.4120   47.5890    9.3190 C.2   415  HEM415      0.0000
      5  CHD       46.9290   49.2630    9.4770 C.2   415  HEM415      0.0000
      6  NA        47.6560   44.3030    9.0830 N.2   415  HEM415      0.0000
      7  C1A       46.3190   43.9390    8.9660 C.2   415  HEM415      0.0000
      8  C2A       46.2760   42.4620    8.8920 C.2   415  HEM415      0.0000
      9  C3A       47.5010   42.0100    9.1250 C.2   415  HEM415      0.0000
     10  C4A       48.3820   43.1710    9.1540 C.2   415  HEM415      0.0000
     11  CMA       48.0750   40.5910    9.0730 C.3   415  HEM415      0.0000
     12  CAA       44.9760   41.6880    8.6930 C.3   415  HEM415      0.0000
     13  CBA       44.3020   41.2970    9.9880 C.3   415  HEM415      0.0000
     14  CGA       43.1050   40.4100    9.8540 C.2   415  HEM415      0.0000
     15  O1A       42.7840   39.9330    8.7200 O.co2 415  HEM415      0.0000
     16  O2A       42.5000   40.3190   10.9690 O.co2 415  HEM415      0.0000
     17  NB        50.2000   45.4820    9.2730 N.ar  415  HEM415      0.0000
     18  C1B       50.6060   44.1660    9.2980 C.ar  415  HEM415      0.0000
     19  C2B       52.0270   44.0730    9.2220 C.ar  415  HEM415      0.0000
     20  C3B       52.5100   45.3350    9.2670 C.ar  415  HEM415      0.0000
     21  C4B       51.4000   46.2150    9.2560 C.ar  415  HEM415      0.0000
     22  CMB       52.7790   42.7210    9.2810 C.3   415  HEM415      0.0000
     23  CAB       53.9520   45.7920    9.2570 C.2   415  HEM415      0.0000
     24  CBB       54.9950   45.0120    9.1230 C.2   415  HEM415      0.0000
     25  NC        49.0490   48.0610    9.4240 N.2   415  HEM415      0.0000
     26  C1C       50.3610   48.4400    9.4290 C.2   415  HEM415      0.0000
     27  C2C       50.4310   49.9120    9.4090 C.2   415  HEM415      0.0000
     28  C3C       49.1640   50.3380    9.6310 C.2   415  HEM415      0.0000
     29  C4C       48.2900   49.1930    9.5490 C.2   415  HEM415      0.0000
     30  CMC       51.7240   50.7340    9.3850 C.3   415  HEM415      0.0000
     31  CAC       48.6640   51.8100    9.6030 C.2   415  HEM415      0.0000
     32  CBC       48.6700   52.5030   10.7690 C.2   415  HEM415      0.0000
     33  ND        46.5250   46.8890    8.9850 N.ar  415  HEM415      0.0000
     34  C1D       46.1040   48.1900    9.1810 C.ar  415  HEM415      0.0000
     35  C2D       44.6930   48.2770    8.9880 C.ar  415  HEM415      0.0000
     36  C3D       44.2340   47.0330    8.7990 C.ar  415  HEM415      0.0000
     37  C4D       45.3730   46.1360    8.8190 C.ar  415  HEM415      0.0000
     38  CMD       43.8520   49.5720    9.0870 C.3   415  HEM415      0.0000
     39  CAD       42.8090   46.5630    8.5570 C.3   415  HEM415      0.0000
     40  CBD       42.1280   46.8040    7.2170 C.3   415  HEM415      0.0000
     41  CGD       40.7560   46.1750    7.1210 C.2   415  HEM415      0.0000
     42  O1D       40.1020   46.3220    6.0590 O.co2 415  HEM415      0.0000
     43  O2D       40.3790   45.4690    8.1030 O.co2 415  HEM415      0.0000
@<TRIPOS>BOND
     1    42    41   ar
     2    41    40    1
     3    41    43   ar
     4    40    39    1
     5    39    36    1
     6     2    37    2
     7     2     7    1
     8    12     8    1
     9    12    13    1
    10    15    14   ar
    11    36    37   ar
    12    36    35   ar
    13    37    33   ar
    14     1    33    1
    15     1     6    1
    16     1    17    1
    17     1    25    1
    18     8     7    1
    19     8     9    2
    20     7     6    2
    21    33    34   ar
    22    35    38    1
    23    35    34   ar
    24    11     9    1
    25     6    10    1
    26    24    23    2
    27     9    10    1
    28    10     3    2
    29    34     5    2
    30    19    20   ar
    31    19    22    1
    32    19    18   ar
    33    21    20   ar
    34    21    17   ar
    35    21     4    1
    36    23    20    1
    37    17    18   ar
    38    18     3    1
    39     4    26    2
    40    30    27    1
    41    27    26    1
    42    27    28    2
    43    25    26    1
    44    25    29    2
    45     5    29    1
    46    29    28    1
    47    31    28    1
    48    31    32    2
    49    14    13    1
    50    14    16   ar
