@<TRIPOS>MOLECULE
4cp4_CAM_A_1.pdb
 11 12 0 0 0
SMALL
GASTEIGER

@<TRIPOS>ATOM
      1  C1        46.5160   44.4400   14.5520 C.3   416  CAM416      0.0515
      2  C2        44.9360   44.2700   14.4330 C.2   416  CAM416      0.1498
      3  O         44.1220   44.5490   15.3090 O.2   416  CAM416     -0.2961
      4  C3        44.6520   44.1740   12.8840 C.3   416  CAM416      0.0645
      5  C4        46.0780   44.3130   12.3230 C.3   416  CAM416      0.0077
      6  C5        46.6250   45.7840   12.4890 C.3   416  CAM416      0.0009
      7  C6        46.9090   45.8590   14.0270 C.3   416  CAM416      0.0069
      8  C7        46.9350   43.4720   13.3320 C.3   416  CAM416      0.0066
      9  C8        46.6760   41.9780   13.4250 C.3   416  CAM416      0.0004
     10  C9        48.4200   43.2990   13.0790 C.3   416  CAM416      0.0004
     11  C10       47.0290   44.1170   15.9530 C.3   416  CAM416      0.0073
@<TRIPOS>BOND
     1     5     6    1
     2     5     4    1
     3     5     8    1
     4     6     7    1
     5     4     2    1
     6    10     8    1
     7     8     9    1
     8     8     1    1
     9     7     1    1
    10     2     1    1
    11     2     3    2
    12     1    11    1
