@<TRIPOS>MOLECULE
4cpp_HEM_A_1.pdb
 43 50 0 0 0
SMALL
GASTEIGER

@<TRIPOS>ATOM
      1 FE         48.4010   46.2850    8.7820 Fe    417  HEM417      0.0000
      2  CHA       45.2320   44.8630    8.8590 C.2   417  HEM417      0.0000
      3  CHB       49.7340   43.1080    9.3020 C.2   417  HEM417      0.0000
      4  CHC       51.4480   47.6240    9.3950 C.2   417  HEM417      0.0000
      5  CHD       46.9820   49.3450    9.4330 C.2   417  HEM417      0.0000
      6  NA        47.6260   44.4000    9.1160 N.ar  417  HEM417      0.0000
      7  C1A       46.3330   44.0270    8.8630 C.ar  417  HEM417      0.0000
      8  C2A       46.2230   42.5830    8.8900 C.ar  417  HEM417      0.0000
      9  C3A       47.4630   42.0770    9.0190 C.ar  417  HEM417      0.0000
     10  C4A       48.3720   43.2250    9.1520 C.ar  417  HEM417      0.0000
     11  CMA       47.9300   40.6330    8.9880 C.3   417  HEM417      0.0000
     12  CAA       44.8970   41.8150    8.7010 C.3   417  HEM417      0.0000
     13  CBA       44.3940   41.1560    9.9910 C.3   417  HEM417      0.0000
     14  CGA       43.1150   40.3910    9.8620 C.2   417  HEM417      0.0000
     15  O1A       42.7990   39.9080    8.7080 O.co2 417  HEM417      0.0000
     16  O2A       42.5460   40.2870   10.9800 O.co2 417  HEM417      0.0000
     17  NB        50.2040   45.5140    9.3430 N.2   417  HEM417      0.0000
     18  C1B       50.6010   44.1800    9.2920 C.2   417  HEM417      0.0000
     19  C2B       52.0460   44.0960    9.2160 C.2   417  HEM417      0.0000
     20  C3B       52.5230   45.3440    9.3130 C.2   417  HEM417      0.0000
     21  C4B       51.3950   46.2340    9.3860 C.2   417  HEM417      0.0000
     22  CMB       52.8390   42.7890    9.2350 C.3   417  HEM417      0.0000
     23  CAB       53.9750   45.8510    9.2450 C.2   417  HEM417      0.0000
     24  CBB       55.0580   45.1680    9.3640 C.2   417  HEM417      0.0000
     25  NC        49.0870   48.1080    9.4840 N.ar  417  HEM417      0.0000
     26  C1C       50.4030   48.4920    9.5290 C.ar  417  HEM417      0.0000
     27  C2C       50.5050   49.9450    9.5280 C.ar  417  HEM417      0.0000
     28  C3C       49.2400   50.4140    9.5070 C.ar  417  HEM417      0.0000
     29  C4C       48.3300   49.2640    9.5460 C.ar  417  HEM417      0.0000
     30  CMC       51.7980   50.7620    9.5480 C.3   417  HEM417      0.0000
     31  CAC       48.7830   51.8940    9.5300 C.3   417  HEM417      0.0000
     32  CBC       48.2410   52.2710   10.7590 C.3   417  HEM417      0.0000
     33  ND        46.5190   46.9440    9.0950 N.2   417  HEM417      0.0000
     34  C1D       46.1410   48.2780    9.1850 C.2   417  HEM417      0.0000
     35  C2D       44.7090   48.3830    8.9890 C.2   417  HEM417      0.0000
     36  C3D       44.2290   47.1360    8.8590 C.2   417  HEM417      0.0000
     37  C4D       45.3530   46.2280    8.9680 C.2   417  HEM417      0.0000
     38  CMD       43.9350   49.7050    8.9170 C.3   417  HEM417      0.0000
     39  CAD       42.7610   46.6940    8.6340 C.3   417  HEM417      0.0000
     40  CBD       42.2390   46.5710    7.1920 C.3   417  HEM417      0.0000
     41  CGD       40.8060   46.0060    7.1680 C.2   417  HEM417      0.0000
     42  O1D       40.1750   46.0900    6.1030 O.co2 417  HEM417      0.0000
     43  O2D       40.3570   45.5050    8.2540 O.co2 417  HEM417      0.0000
@<TRIPOS>BOND
     1    42    41   ar
     2    41    40    1
     3    41    43   ar
     4    40    39    1
     5    39    36    1
     6    12     8    1
     7    12    13    1
     8    15    14   ar
     9     1    33    1
    10     1     6    1
    11     1    17    1
    12     1    25    1
    13     2     7    2
    14     2    37    1
    15    36    37    1
    16    36    35    2
    17     7     8   ar
    18     7     6   ar
    19     8     9   ar
    20    38    35    1
    21    37    33    2
    22    11     9    1
    23    35    34    1
    24     9    10   ar
    25    33    34    1
    26     6    10   ar
    27    10     3    2
    28    34     5    2
    29    19    22    1
    30    19    18    1
    31    19    20    2
    32    23    20    1
    33    23    24    2
    34    18     3    1
    35    18    17    2
    36    20    21    1
    37    17    21    1
    38    21     4    2
    39     4    26    1
    40     5    29    1
    41    25    26   ar
    42    25    29   ar
    43    28    27   ar
    44    28    31    1
    45    28    29   ar
    46    27    26   ar
    47    27    30    1
    48    31    32    1
    49    14    13    1
    50    14    16   ar
