@<TRIPOS>MOLECULE
4cpp_ADM_A_1.pdb
 10 12 0 0 0
SMALL
GASTEIGER

@<TRIPOS>ATOM
      1  C1        46.2640   44.9660   15.0150 C.3   422  ADM422      0.0000
      2  C2        44.8820   44.3280   14.5600 C.3   422  ADM422      0.0000
      3  C3        45.0260   43.4650   13.2610 C.3   422  ADM422      0.0000
      4  C4        45.5950   44.3560   12.1070 C.3   422  ADM422      0.0000
      5  C5        46.9610   44.9500   12.5490 C.3   422  ADM422      0.0000
      6  C6        48.0010   43.7920   12.8280 C.3   422  ADM422      0.0000
      7  C7        47.4440   42.8940   14.0080 C.3   422  ADM422      0.0000
      8  C8        47.2260   43.7910   15.3200 C.3   422  ADM422      0.0000
      9  C9        46.8040   45.8570   13.8200 C.3   422  ADM422      0.0000
     10  C10       46.0470   42.2870   13.5880 C.3   422  ADM422      0.0000
@<TRIPOS>BOND
     1     4     5    1
     2     4     3    1
     3     5     6    1
     4     5     9    1
     5     6     7    1
     6     3    10    1
     7     3     2    1
     8    10     7    1
     9     9     1    1
    10     7     8    1
    11     2     1    1
    12     1     8    1
