@<TRIPOS>MOLECULE
4csm_TYR_A_1.pdb
 13 13 0 0 0
SMALL
GASTEIGER

@<TRIPOS>ATOM
      1  N         58.6090   14.5520   36.5160 N.3   300  TYR300     -0.1205
      2  CA        59.4300   13.3250   36.4680 C.3   300  TYR300      0.1986
      3  C         60.8770   13.7290   36.1800 C.2   300  TYR300      0.3822
      4  O         61.0780   14.7380   35.4660 O.co2 300  TYR300     -0.2440
      5  CB        58.8890   12.3640   35.4010 C.3   300  TYR300      0.0569
      6  CG        58.9930   12.8510   33.9580 C.ar  300  TYR300     -0.0200
      7  CD1       60.1670   12.6480   33.2070 C.ar  300  TYR300     -0.0009
      8  CD2       57.9190   13.4640   33.3320 C.ar  300  TYR300     -0.0009
      9  CE1       60.2520   13.0410   31.8720 C.ar  300  TYR300      0.0417
     10  CE2       57.9920   13.8610   31.9970 C.ar  300  TYR300      0.0417
     11  CZ        59.1560   13.6430   31.2690 C.ar  300  TYR300      0.1957
     12  OH        59.2050   13.9950   29.9320 O.3   300  TYR300     -0.2866
     13  OXT       61.7930   13.0670   36.7020 O.co2 300  TYR300     -0.2440
@<TRIPOS>BOND
     1    12    11    1
     2    11     9   ar
     3    11    10   ar
     4     9     7   ar
     5    10     8   ar
     6     7     6   ar
     7     8     6   ar
     8     6     5    1
     9     5     2    1
    10     4     3   ar
    11     3     2    1
    12     3    13   ar
    13     2     1    1
