@<TRIPOS>MOLECULE
4csm_TSA_A_1.pdb
 16 17 0 0 0
SMALL
GASTEIGER

@<TRIPOS>ATOM
      1  C1        36.4020   17.6330   34.4320 C.3   400  TSA400      0.1173
      2  C2        35.5840   18.8470   34.8590 C.2   400  TSA400     -0.0179
      3  C3        34.3690   18.7220   35.4720 C.2   400  TSA400      0.0045
      4  C4        33.8680   17.4200   36.0770 C.3   400  TSA400      0.2006
      5  O5        32.5390   17.2270   35.6450 O.3   400  TSA400     -0.2157
      6  C5        34.7890   16.2380   35.7300 C.3   400  TSA400      0.1511
      7  C6        35.4860   16.3930   34.3420 C.3   400  TSA400      0.0474
      8  O7        35.7590   16.0200   36.7290 O.3   400  TSA400     -0.3445
      9  C8        36.8990   16.8850   36.7960 C.3   400  TSA400      0.2185
     10  C9        37.4740   17.2810   35.4350 C.3   400  TSA400      0.0562
     11  C10       37.1650   18.0040   33.1600 C.2   400  TSA400      0.3677
     12  O1        37.8300   19.0670   33.2110 O.co2 400  TSA400     -0.2453
     13  O2        37.0870   17.2470   32.1730 O.co2 400  TSA400     -0.2453
     14  C11       36.5680   18.1080   37.6790 C.2   400  TSA400      0.3913
     15  O3        37.1630   19.1780   37.4810 O.co2 400  TSA400     -0.2430
     16  O4        35.7080   17.9720   38.5650 O.co2 400  TSA400     -0.2430
@<TRIPOS>BOND
     1    13    11   ar
     2    11    12   ar
     3    11     1    1
     4     7     1    1
     5     7     6    1
     6     1     2    1
     7     1    10    1
     8     2     3    2
     9    10     9    1
    10     3     4    1
    11     5     4    1
    12     6     4    1
    13     6     8    1
    14     8     9    1
    15     9    14    1
    16    15    14   ar
    17    14    16   ar
