@<TRIPOS>MOLECULE
4cyh_HIS_A_1.pdb
 15 15 0 0 0
SMALL
GASTEIGER

@<TRIPOS>ATOM
      1  N         18.6350    9.0250    4.2600 N.4   201  HIS201      0.3868
      2  CA        18.9810   10.1670    3.4420 C.3   201  HIS201      0.0066
      3  C         18.5050   11.3050    4.3240 C.2   201  HIS201      0.1855
      4  O         17.4220   11.1320    4.9010 O.2   201  HIS201     -0.2906
      5  CB        18.1870   10.3180    2.1300 C.3   201  HIS201      0.0280
      6  CG        18.2990    9.2310    1.0770 C.2   201  HIS201      0.0356
      7  ND1       19.4230    8.9230    0.4180 N.pl3 201  HIS201     -0.3186
      8  CD2       17.2990    8.3620    0.7390 C.2   201  HIS201      0.0691
      9  CE1       19.1280    7.8550   -0.2880 C.3   201  HIS201      0.1815
     10  NE2       17.8680    7.5290   -0.0720 N.pl3 201  HIS201     -0.3146
     11  H1        17.6160    9.0430    4.4900 H     201  HIS201     -0.0886
     12  H2        18.9510    8.1160    3.9040 H     201  HIS201     -0.0886
     13  H3        19.1310    9.1860    5.1670 H     201  HIS201     -0.0886
     14  HD1       20.3640    9.1960    0.6100 H     201  HIS201      0.1481
     15  HE2       17.4320    6.7110   -0.4080 H     201  HIS201      0.1484
@<TRIPOS>BOND
     1    15    10    1
     2     9    10    1
     3     9     7    1
     4    10     8    1
     5     7    14    1
     6     7     6    1
     7     8     6    2
     8     6     5    1
     9     5     2    1
    10     2     1    1
    11     2     3    1
    12    12     1    1
    13     1    11    1
    14     1    13    1
    15     3     4    2
