@<TRIPOS>MOLECULE
4d83_0GT_A_1.pdb
 35 38 0 0 0
SMALL
GASTEIGER

@<TRIPOS>ATOM
      1  F1        30.0710    7.6790   21.4130 F     401  0GT401     -0.1981
      2  C2        29.6720    8.4240   20.3420 C.3   401  0GT401      0.3229
      3  F4        28.3860    8.8350   20.5070 F     401  0GT401     -0.1981
      4  C5        30.5910    9.6570   20.2080 C.3   401  0GT401      0.1002
      5  C8        30.5790   10.2250   18.8130 C.2   401  0GT401      0.0038
      6  C9        30.1620   11.4460   18.4390 C.2   401  0GT401      0.0947
      7  N11       30.3130   11.5990   17.1490 N.2   401  0GT401     -0.2442
      8  C13       30.8340   10.4970   16.5820 C.2   401  0GT401      0.0804
      9  C14       31.0440    9.5270   17.5630 C.2   401  0GT401      0.0114
     10  C15       31.5710    8.2580   17.2510 C.2   401  0GT401     -0.0208
     11  C17       31.8940    7.9870   15.8940 C.3   401  0GT401      0.0442
     12  C18       31.6890    8.9820   14.8930 C.2   401  0GT401     -0.0205
     13  C20       31.1550   10.2540   15.2260 C.2   401  0GT401      0.0148
     14  C22       32.4570    6.6020   15.5210 C.3   401  0GT401      0.0130
     15  C25       31.4310    5.7570   14.6870 C.3   401  0GT401      0.0561
     16  C27       32.0150    4.3680   14.2720 C.3   401  0GT401      0.1712
     17  C29       31.0670    3.5180   13.3760 C.3   401  0GT401      0.1270
     18  C31       29.6510    3.2520   13.9670 C.3   401  0GT401      0.1707
     19  S34       28.8670    4.8320   14.3210 S.O2  401  0GT401     -0.0084
     20  C35       30.0710    5.5740   15.4280 C.3   401  0GT401      0.1534
     21  O38       28.8020    5.6370   13.1200 O.2   401  0GT401     -0.1729
     22  O39       27.6540    4.5940   15.0650 O.2   401  0GT401     -0.1729
     23  N40       31.7430    2.2830   12.8850 N.3   401  0GT401     -0.2103
     24  C42       31.1390    1.4650   11.8010 C.3   401  0GT401      0.1151
     25  C45       30.9620    2.3210   10.5280 C.ar  401  0GT401     -0.0051
     26  C46       32.1030    2.7990    9.8390 C.ar  401  0GT401     -0.0072
     27  C48       32.0120    3.5950    8.6650 C.ar  401  0GT401     -0.0231
     28  C49       30.7000    3.8970    8.1930 C.ar  401  0GT401     -0.0043
     29  C51       29.5420    3.4320    8.8630 C.ar  401  0GT401     -0.0006
     30  C53       29.6670    2.6380   10.0330 C.ar  401  0GT401     -0.0029
     31  C55       33.3380    4.0690    7.9820 C.3   401  0GT401      0.0189
     32  C56       33.1210    4.7000    6.5630 C.3   401  0GT401      0.0044
     33  C60       34.1410    5.1230    8.8190 C.3   401  0GT401      0.0044
     34  C64       34.2710    2.8320    7.7880 C.3   401  0GT401      0.0044
     35  O68       33.2190    4.5660   13.5190 O.3   401  0GT401     -0.2215
@<TRIPOS>BOND
     1    32    31    1
     2    34    31    1
     3    31    27    1
     4    31    33    1
     5    28    27   ar
     6    28    29   ar
     7    27    26   ar
     8    29    30   ar
     9    26    25   ar
    10    30    25   ar
    11    25    24    1
    12    24    23    1
    13    23    17    1
    14    21    19    2
    15    17    18    1
    16    17    16    1
    17    35    16    1
    18    18    19    1
    19    16    15    1
    20    19    22    2
    21    19    20    1
    22    15    20    1
    23    15    14    1
    24    12    13    2
    25    12    11    1
    26    13     8    1
    27    14    11    1
    28    11    10    1
    29     8     7    2
    30     8     9    1
    31     7     6    1
    32    10     9    2
    33     9     5    1
    34     6     5    2
    35     5     4    1
    36     4     2    1
    37     2     3    1
    38     2     1    1
