@<TRIPOS>MOLECULE
4d85_0GU_A_1.pdb
 39 43 0 0 0
SMALL
GASTEIGER

@<TRIPOS>ATOM
      1  F1        27.3370   39.5900   60.0990 F     401  0GU401     -0.2043
      2  C2        26.6610   40.4600   60.8950 C.3   401  0GU401      0.2640
      3  C3        25.1650   39.9840   60.9320 C.3   401  0GU401      0.0670
      4  C6        24.3280   40.4850   62.1530 C.3   401  0GU401      0.0116
      5  C9        25.0840   40.5540   63.5290 C.3   401  0GU401      0.0430
      6  C10       24.2730   41.4390   64.5610 C.3   401  0GU401      0.1295
      7  N13       24.3930   40.7190   65.8180 N.2   401  0GU401     -0.2681
      8  C15       24.7480   39.4400   65.6250 C.2   401  0GU401      0.0988
      9  C16       25.1590   39.2100   64.3040 C.2   401  0GU401     -0.0054
     10  C17       25.5500   37.9000   63.9350 C.2   401  0GU401     -0.0247
     11  C19       25.5390   36.8460   64.8900 C.3   401  0GU401      0.0461
     12  C20       25.1260   37.1120   66.2280 C.2   401  0GU401      0.0090
     13  C22       24.7260   38.4210   66.6050 C.2   401  0GU401      0.1529
     14  F23       24.3390   38.6950   67.8530 F     401  0GU401     -0.2029
     15  C24       25.9860   35.4280   64.4730 C.3   401  0GU401      0.0131
     16  C27       27.4260   35.0540   64.9600 C.3   401  0GU401      0.0561
     17  C29       27.9910   33.6600   64.5370 C.3   401  0GU401      0.1712
     18  C31       29.3660   33.3620   65.2080 C.3   401  0GU401      0.1270
     19  C33       30.4830   34.3830   64.8910 C.3   401  0GU401      0.1707
     20  S36       29.9280   35.9790   65.4920 S.O2  401  0GU401     -0.0084
     21  C37       28.4460   36.1380   64.4970 C.3   401  0GU401      0.1534
     22  O40       29.5530   35.9290   66.8870 O.2   401  0GU401     -0.1729
     23  O41       30.8950   36.9560   65.0790 O.2   401  0GU401     -0.1729
     24  N42       29.8360   31.9770   64.9730 N.3   401  0GU401     -0.2103
     25  C44       30.9330   31.3630   65.7720 C.3   401  0GU401      0.1151
     26  C47       30.4690   31.3160   67.2450 C.ar  401  0GU401     -0.0051
     27  C48       29.3870   30.4940   67.6390 C.ar  401  0GU401     -0.0072
     28  C50       28.9330   30.4260   68.9860 C.ar  401  0GU401     -0.0231
     29  C51       29.6260   31.2430   69.9260 C.ar  401  0GU401     -0.0043
     30  C53       30.7100   32.0720   69.5560 C.ar  401  0GU401     -0.0006
     31  C55       31.1300   32.1070   68.2120 C.ar  401  0GU401     -0.0029
     32  C57       27.7380   29.5030   69.4100 C.3   401  0GU401      0.0189
     33  C58       28.0960   28.0420   68.9960 C.3   401  0GU401      0.0044
     34  C62       27.4400   29.5100   70.9450 C.3   401  0GU401      0.0044
     35  C66       26.3900   29.9260   68.7410 C.3   401  0GU401      0.0044
     36  O70       27.1910   32.5450   64.9600 O.3   401  0GU401     -0.2215
     37  C72       26.5120   41.1790   63.3590 C.3   401  0GU401      0.0116
     38  C75       27.3860   40.4940   62.2750 C.3   401  0GU401      0.0670
     39  F78       26.7640   41.7040   60.3330 F     401  0GU401     -0.2043
@<TRIPOS>BOND
     1     1     2    1
     2    39     2    1
     3     2     3    1
     4     2    38    1
     5     3     4    1
     6     4     5    1
     7    38    37    1
     8    37     5    1
     9     5     9    1
    10     5     6    1
    11    10     9    2
    12    10    11    1
    13     9     8    1
    14    15    11    1
    15    15    16    1
    16    21    16    1
    17    21    20    1
    18    17    16    1
    19    17    36    1
    20    17    18    1
    21     6     7    1
    22    11    12    1
    23    19    18    1
    24    19    20    1
    25    24    18    1
    26    24    25    1
    27    23    20    2
    28    20    22    2
    29     8     7    2
    30     8    13    1
    31    25    26    1
    32    12    13    2
    33    13    14    1
    34    26    27   ar
    35    26    31   ar
    36    27    28   ar
    37    31    30   ar
    38    35    32    1
    39    28    32    1
    40    28    29   ar
    41    33    32    1
    42    32    34    1
    43    30    29   ar
