@<TRIPOS>MOLECULE
4d88_BXQ_A_1.pdb
 37 39 0 0 0
SMALL
GASTEIGER

@<TRIPOS>ATOM
      1  F1        29.0640   80.8110   18.1980 F     401  BXQ401     -0.1674
      2  C2        28.5910   79.5940   17.8150 C.3   401  BXQ401      0.4256
      3  F3        27.3220   79.4180   18.2750 F     401  BXQ401     -0.1674
      4  F4        28.5830   79.5160   16.4550 F     401  BXQ401     -0.1674
      5  C5        29.5250   78.5160   18.4130 C.3   401  BXQ401      0.2504
      6  O7        30.8450   78.6240   17.8490 O.3   401  BXQ401     -0.2136
      7  C9        29.6010   78.5940   19.9710 C.3   401  BXQ401      0.0696
      8  C12       30.2470   77.3110   20.5180 C.ar  401  BXQ401     -0.0007
      9  C13       31.5150   77.2620   21.1700 C.ar  401  BXQ401      0.1125
     10  C14       32.0060   76.0090   21.6250 C.ar  401  BXQ401      0.1561
     11  C15       31.2590   74.8210   21.4370 C.ar  401  BXQ401      0.0268
     12  C17       30.0010   74.8730   20.7860 C.ar  401  BXQ401     -0.0200
     13  C18       29.5080   76.1180   20.3410 C.ar  401  BXQ401     -0.0070
     14  C20       29.1650   73.6040   20.5330 C.3   401  BXQ401      0.0307
     15  C23       29.7450   72.7480   19.3490 C.3   401  BXQ401      0.0598
     16  C25       28.8260   71.5860   18.8540 C.3   401  BXQ401      0.1715
     17  C27       29.5570   70.6590   17.8250 C.3   401  BXQ401      0.1270
     18  C29       30.0630   71.3840   16.5420 C.3   401  BXQ401      0.1707
     19  S32       31.1990   72.6990   17.0110 S.O2  401  BXQ401     -0.0084
     20  C33       30.1480   73.6390   18.1190 C.3   401  BXQ401      0.1537
     21  O36       32.3190   72.1540   17.7510 O.2   401  BXQ401     -0.1729
     22  O37       31.5050   73.5140   15.8490 O.2   401  BXQ401     -0.1729
     23  N38       28.7500   69.4540   17.4970 N.3   401  BXQ401     -0.2103
     24  C40       29.3550   68.2500   16.8560 C.3   401  BXQ401      0.1151
     25  C43       30.5030   67.7500   17.7520 C.ar  401  BXQ401     -0.0051
     26  C44       30.2190   67.1640   19.0090 C.ar  401  BXQ401     -0.0072
     27  C46       31.2380   66.6850   19.8890 C.ar  401  BXQ401     -0.0231
     28  C47       32.5820   66.8300   19.4260 C.ar  401  BXQ401     -0.0043
     29  C49       32.8900   67.4110   18.1720 C.ar  401  BXQ401     -0.0006
     30  C51       31.8490   67.8720   17.3320 C.ar  401  BXQ401     -0.0029
     31  C53       30.8540   66.0460   21.2790 C.3   401  BXQ401      0.0189
     32  C54       32.0500   65.2740   21.9210 C.3   401  BXQ401      0.0044
     33  C58       30.4080   67.1460   22.2980 C.3   401  BXQ401      0.0044
     34  C62       29.6560   65.0400   21.1850 C.3   401  BXQ401      0.0044
     35  O66       28.4280   70.6980   19.9140 O.3   401  BXQ401     -0.2215
     36  F68       33.1890   75.9430   22.2350 F     401  BXQ401     -0.2028
     37  N69       32.2850   78.3620   21.3780 N.pl3 401  BXQ401     -0.1260
@<TRIPOS>BOND
     1    22    19    2
     2     4     2    1
     3    18    19    1
     4    18    17    1
     5    24    23    1
     6    24    25    1
     7    19    21    2
     8    19    20    1
     9    30    25   ar
    10    30    29   ar
    11    23    17    1
    12    25    26   ar
    13     2     1    1
    14     2     3    1
    15     2     5    1
    16    17    16    1
    17     6     5    1
    18    20    15    1
    19    29    28   ar
    20     5     7    1
    21    16    15    1
    22    16    35    1
    23    26    27   ar
    24    15    14    1
    25    28    27   ar
    26    27    31    1
    27     7     8    1
    28    13     8   ar
    29    13    12   ar
    30     8     9   ar
    31    14    12    1
    32    12    11   ar
    33     9    37    1
    34     9    10   ar
    35    34    31    1
    36    31    32    1
    37    31    33    1
    38    11    10   ar
    39    10    36    1
