@<TRIPOS>MOLECULE
4d89_BXD_A_1.pdb
 40 42 0 0 0
SMALL
GASTEIGER

@<TRIPOS>ATOM
      1  F1        27.6690   79.6480   18.6750 F     501  BXD501     -0.1663
      2  C2        27.4650   78.4900   17.9980 C.3   501  BXD501      0.4366
      3  F3        26.7450   77.6650   18.8020 F     501  BXD501     -0.1663
      4  F4        26.7580   78.7170   16.8580 F     501  BXD501     -0.1663
      5  C5        28.8370   77.8370   17.7010 C.3   501  BXD501      0.2891
      6  O7        29.4310   77.6620   19.0060 O.3   501  BXD501     -0.4663
      7  C8        29.7380   76.3890   19.4990 C.ar  501  BXD501      0.1574
      8  C9        30.9170   76.2430   20.2650 C.ar  501  BXD501      0.1501
      9  C10       31.2690   74.9710   20.7750 C.ar  501  BXD501      0.1594
     10  C11       30.4460   73.8460   20.5280 C.ar  501  BXD501      0.0270
     11  C13       29.2610   73.9900   19.7600 C.ar  501  BXD501     -0.0167
     12  C14       28.9140   75.2630   19.2520 C.ar  501  BXD501      0.0342
     13  C16       28.3460   72.7940   19.4480 C.3   501  BXD501      0.0309
     14  C19       28.9600   71.8270   18.3780 C.3   501  BXD501      0.0598
     15  C21       28.0610   70.6010   18.0200 C.3   501  BXD501      0.1715
     16  C23       28.7920   69.5670   17.1040 C.3   501  BXD501      0.1270
     17  C25       29.3610   70.1570   15.7750 C.3   501  BXD501      0.1707
     18  S28       30.4570   71.5420   16.1090 S.O2  501  BXD501     -0.0084
     19  C29       29.3700   72.5900   17.0750 C.3   501  BXD501      0.1537
     20  O32       30.7420   72.1990   14.8430 O.2   501  BXD501     -0.1729
     21  O33       31.5760   71.0990   16.9150 O.2   501  BXD501     -0.1729
     22  N34       27.9650   68.3520   16.8500 N.3   501  BXD501     -0.2103
     23  C36       28.5550   67.1190   16.2530 C.3   501  BXD501      0.1151
     24  C39       29.7600   66.6350   17.0790 C.ar  501  BXD501     -0.0051
     25  C40       29.5340   66.1300   18.3810 C.ar  501  BXD501     -0.0072
     26  C42       30.5910   65.6670   19.2200 C.ar  501  BXD501     -0.0231
     27  C43       31.9080   65.7370   18.6770 C.ar  501  BXD501     -0.0043
     28  C45       32.1590   66.2370   17.3760 C.ar  501  BXD501     -0.0006
     29  C47       31.0840   66.6870   16.5750 C.ar  501  BXD501     -0.0029
     30  C49       30.2920   65.1190   20.6620 C.3   501  BXD501      0.0189
     31  C50       29.1740   64.0390   20.5720 C.3   501  BXD501      0.0044
     32  C54       31.5130   64.4610   21.3870 C.3   501  BXD501      0.0044
     33  C58       29.8140   66.2690   21.6120 C.3   501  BXD501      0.0044
     34  O62       27.6960   69.8560   19.1940 O.3   501  BXD501     -0.2215
     35  F64       32.3840   74.8390   21.4850 F     501  BXD501     -0.2027
     36  N65       31.7010   77.3250   20.5020 N.pl3 501  BXD501     -0.1225
     37  C68       29.7390   78.7500   16.8170 C.3   501  BXD501      0.1944
     38  O71       30.7930   77.9750   16.2020 O.3   501  BXD501     -0.3496
     39  C72       32.0740   78.0920   16.8680 C.3   501  BXD501      0.1424
     40  C75       33.0780   77.0870   16.2440 C.3   501  BXD501      0.0346
@<TRIPOS>BOND
     1    20    18    2
     2    17    18    1
     3    17    16    1
     4    18    21    2
     5    18    19    1
     6    38    37    1
     7    38    39    1
     8    40    39    1
     9    23    22    1
    10    23    24    1
    11    29    24   ar
    12    29    28   ar
    13    37     5    1
    14    22    16    1
    15     4     2    1
    16    19    14    1
    17    24    25   ar
    18    16    15    1
    19    28    27   ar
    20     5     2    1
    21     5     6    1
    22     2     1    1
    23     2     3    1
    24    15    14    1
    25    15    34    1
    26    14    13    1
    27    25    26   ar
    28    27    26   ar
    29     6     7    1
    30    26    30    1
    31    12     7   ar
    32    12    11   ar
    33    13    11    1
    34     7     8   ar
    35    11    10   ar
    36     8    36    1
    37     8     9   ar
    38    10     9   ar
    39    31    30    1
    40    30    32    1
    41    30    33    1
    42     9    35    1
