@<TRIPOS>MOLECULE
4d8a_0HY_A_1.pdb
 20 21 0 0 0
SMALL
GASTEIGER

@<TRIPOS>ATOM
      1  O1       -14.2120   27.6740    3.7010 O.2   305  0HY305     -0.2077
      2  N1       -16.4860   23.5280    2.3500 N.pl3 305  0HY305     -0.0220
      3  C1       -13.8390   25.6050    4.9930 C.2   305  0HY305      0.2111
      4  C2       -14.4760   26.3390    3.9190 C.1   305  0HY305      0.2296
      5  N2       -14.9770   23.5860    4.2890 N.2   305  0HY305     -0.2679
      6  C3       -12.9030   25.9910    9.8740 C.2   305  0HY305      0.3175
      7  N3       -12.6230   24.0530    7.0810 N.2   305  0HY305     -0.1393
      8  C4       -12.3030   25.3060    7.0470 C.2   305  0HY305      0.1216
      9  C5       -14.5660   26.4130   11.3410 C.3   305  0HY305      0.2556
     10  C6       -14.1310   24.2690    5.1140 C.1   305  0HY305      0.1356
     11  C7       -12.8770   26.1780    5.9970 C.2   305  0HY305      0.2332
     12  C8       -11.7320   26.6120    9.1810 C.3   305  0HY305      0.1156
     13  N4       -13.4850   23.5590    6.1710 N.2   305  0HY305     -0.0802
     14  C9       -15.6220   24.2370    3.2310 C.1   305  0HY305      0.2608
     15  C10      -10.2870   24.7770    8.3770 C.3   305  0HY305      0.0071
     16  N5       -15.3570   25.6700    3.0510 N.2   305  0HY305     -0.2488
     17  O2       -12.8070   24.8560   10.4170 O.2   305  0HY305     -0.2501
     18  O3       -13.8330   26.7520   10.2280 O.3   305  0HY305     -0.4444
     19  C11      -11.2380   25.8660    7.9740 C.3   305  0HY305      0.0565
     20  O4       -12.5680   27.5110    6.0010 O.2   305  0HY305     -0.2837
@<TRIPOS>BOND
     1     2    14    1
     2    16    14    2
     3    16     4    2
     4    14     5    2
     5     1     4    2
     6     4     3    1
     7     5    10    2
     8     3    10    1
     9     3    11    2
    10    10    13    2
    11    11    20    1
    12    11     8    1
    13    13     7    1
    14     8     7    2
    15     8    19    1
    16    19    15    1
    17    19    12    1
    18    12     6    1
    19     6    18    1
    20     6    17    2
    21    18     9    1
