@<TRIPOS>MOLECULE
4d8c_BXD_A_1.pdb
 40 42 0 0 0
SMALL
GASTEIGER

@<TRIPOS>ATOM
      1  F1        30.8100    9.4900   21.3900 F     501  BXD501     -0.1663
      2  C2        30.7100    8.3100   20.7360 C.3   501  BXD501      0.4366
      3  F3        31.9360    8.0010   20.2650 F     501  BXD501     -0.1663
      4  F4        30.3210    7.3190   21.5810 F     501  BXD501     -0.1663
      5  C5        29.7320    8.4610   19.5350 C.3   501  BXD501      0.2891
      6  O7        30.2460    9.5590   18.7400 O.3   501  BXD501     -0.4663
      7  C8        30.6030    9.3650   17.4090 C.ar  501  BXD501      0.1574
      8  C9        30.2620   10.3590   16.4560 C.ar  501  BXD501      0.1501
      9  C10       30.6220   10.1750   15.0960 C.ar  501  BXD501      0.1594
     10  C11       31.2870    8.9990   14.6820 C.ar  501  BXD501      0.0270
     11  C13       31.6170    8.0040   15.6380 C.ar  501  BXD501     -0.0167
     12  C14       31.2700    8.1920   16.9910 C.ar  501  BXD501      0.0342
     13  C16       32.3220    6.7020   15.2260 C.3   501  BXD501      0.0309
     14  C19       31.3450    5.6920   14.5220 C.3   501  BXD501      0.0598
     15  C21       31.9840    4.3080   14.1880 C.3   501  BXD501      0.1715
     16  C23       31.0420    3.3910   13.3440 C.3   501  BXD501      0.1270
     17  C25       29.6270    3.1280   13.9520 C.3   501  BXD501      0.1707
     18  S28       28.7850    4.6730   14.3140 S.O2  501  BXD501     -0.0084
     19  C29       30.0260    5.4710   15.3380 C.3   501  BXD501      0.1537
     20  O32       27.6140    4.3840   15.1100 O.2   501  BXD501     -0.1729
     21  O33       28.6100    5.4540   13.0990 O.2   501  BXD501     -0.1729
     22  N34       31.7050    2.1270   12.9120 N.3   501  BXD501     -0.2103
     23  C36       31.1160    1.2670   11.8480 C.3   501  BXD501      0.1151
     24  C39       30.9020    2.0840   10.5580 C.ar  501  BXD501     -0.0051
     25  C40       32.0370    2.5480    9.8600 C.ar  501  BXD501     -0.0072
     26  C42       31.9510    3.3110    8.6580 C.ar  501  BXD501     -0.0231
     27  C43       30.6310    3.5820    8.1880 C.ar  501  BXD501     -0.0043
     28  C45       29.4770    3.1280    8.8690 C.ar  501  BXD501     -0.0006
     29  C47       29.6040    2.3730   10.0600 C.ar  501  BXD501     -0.0029
     30  C49       33.2470    3.8000    7.9250 C.3   501  BXD501      0.0189
     31  C50       34.2140    2.5960    7.7180 C.3   501  BXD501      0.0044
     32  C54       33.0210    4.4330    6.5070 C.3   501  BXD501      0.0044
     33  C58       33.9910    4.8900    8.7680 C.3   501  BXD501      0.0044
     34  O62       33.1790    4.4790   13.4060 O.3   501  BXD501     -0.2215
     35  F64       30.3120   11.0990   14.1910 F     501  BXD501     -0.2027
     36  N65       29.6240   11.4870   16.8540 N.pl3 501  BXD501     -0.1225
     37  C68       28.2780    8.7570   19.9990 C.3   501  BXD501      0.1944
     38  O71       27.4550    8.8720   18.8220 O.3   501  BXD501     -0.3496
     39  C72       26.0210    8.8840   19.0730 C.3   501  BXD501      0.1424
     40  C75       25.5520   10.3750   19.0670 C.3   501  BXD501      0.0346
@<TRIPOS>BOND
     1    32    30    1
     2    31    30    1
     3    30    26    1
     4    30    33    1
     5    27    26   ar
     6    27    28   ar
     7    26    25   ar
     8    28    29   ar
     9    25    24   ar
    10    29    24   ar
    11    24    23    1
    12    23    22    1
    13    22    16    1
    14    21    18    2
    15    16    17    1
    16    16    15    1
    17    34    15    1
    18    17    18    1
    19    15    14    1
    20    35     9    1
    21    18    20    2
    22    18    19    1
    23    14    13    1
    24    14    19    1
    25    10     9   ar
    26    10    11   ar
    27     9     8   ar
    28    13    11    1
    29    11    12   ar
    30     8    36    1
    31     8     7   ar
    32    12     7   ar
    33     7     6    1
    34     6     5    1
    35    38    39    1
    36    38    37    1
    37    40    39    1
    38     5    37    1
    39     5     2    1
    40     3     2    1
    41     2     1    1
    42     2     4    1
