@<TRIPOS>MOLECULE
4d8e_E64_A_1.pdb
 25 24 0 0 0
SMALL
GASTEIGER

@<TRIPOS>ATOM
      1  C1       -17.3590   11.6880   -4.7270 C.2   501  E64501      0.3680
      2  O1       -17.6250   12.8560   -4.2560 O.co2 501  E64501     -0.2455
      3  O2       -18.2960   10.9420   -5.1210 O.co2 501  E64501     -0.2455
      4  C2       -15.9630   11.1890   -4.8610 C.3   501  E64501      0.1564
      5  C3       -15.0640   12.2980   -5.2090 C.3   501  E64501      0.2403
      6  O3       -15.4000   12.4930   -6.5950 O.3   501  E64501     -0.2126
      7  C4       -13.6210   11.9170   -5.1800 C.2   501  E64501      0.2728
      8  O4       -12.8790   12.0810   -4.1740 O.2   501  E64501     -0.2706
      9  N1       -12.9870   11.3280   -6.2910 N.am  501  E64501     -0.1956
     10  C6       -11.5430   11.0020   -6.2220 C.3   501  E64501      0.1728
     11  C7       -11.2710    9.5750   -6.6270 C.3   501  E64501      0.0311
     12  C8       -11.9130    8.5280   -5.7200 C.3   501  E64501      0.0022
     13  C9       -11.5420    7.1150   -6.0880 C.3   501  E64501      0.0001
     14  C10      -11.5210    8.7670   -4.2490 C.3   501  E64501      0.0001
     15  C11      -10.7360   12.0110   -7.0420 C.2   501  E64501      0.2612
     16  O5       -11.1720   13.1450   -7.2730 O.2   501  E64501     -0.2715
     17  N2        -9.4480   11.6790   -7.5310 N.am  501  E64501     -0.2040
     18  C12       -8.6650   12.6830   -8.3030 C.3   501  E64501      0.1153
     19  C13       -7.8610   13.7080   -7.5010 C.3   501  E64501      0.0271
     20  C14       -8.7170   14.7520   -6.7690 C.3   501  E64501      0.0487
     21  C15       -8.1430   16.0660   -6.2490 C.3   501  E64501      0.2205
     22  N3        -7.1500   16.0210   -5.1780 N.pl3 501  E64501     -0.0865
     23  C16       -6.0740   17.0420   -5.1460 C.cat 501  E64501      0.5346
     24  N4        -6.0560   17.9850   -6.0930 N.pl3 501  E64501      0.1354
     25  N5        -5.1550   17.0080   -4.2030 N.pl3 501  E64501      0.1354
@<TRIPOS>BOND
     1    18    17    1
     2    18    19    1
     3    17    15   am
     4    19    20    1
     5    16    15    2
     6    15    10    1
     7    20    21    1
     8    11    10    1
     9    11    12    1
    10     6     5    1
    11     9    10    1
    12     9     7   am
    13    21    22    1
    14    24    23    1
    15    13    12    1
    16    12    14    1
    17     5     7    1
    18     5     4    1
    19     7     8    2
    20    22    23    2
    21    23    25    1
    22     3     1   ar
    23     4     1    1
    24     1     2   ar
