@<TRIPOS>MOLECULE
4d8i_III_B_1.pdb
 34 33 0 0 0
SMALL
GASTEIGER

@<TRIPOS>ATOM
      1  C          5.9090  -13.2860   -7.9480 C.2     1  ACE1        0.2423
      2  O          5.4340  -12.9720   -6.8490 O.2     1  ACE1       -0.2733
      3  CH3        5.0900  -13.1540   -9.2080 C.3     1  ACE1        0.0964
      4  N          6.9770  -14.0550   -8.0490 N.am    2  ALA2       -0.1978
      5  CA         7.9640  -14.1980   -6.9800 C.3     2  ALA2        0.1728
      6  C          9.3170  -13.8050   -7.5130 C.2     2  ALA2        0.2616
      7  O         10.2680  -14.6240   -7.5470 O.2     2  ALA2       -0.2715
      8  CB         8.0080  -15.6460   -6.4150 C.3     2  ALA2        0.0334
      9  N          9.4260  -12.5380   -7.9120 N.am    3  GLU3       -0.1963
     10  CA        10.5740  -12.1090   -8.7090 C.3     3  GLU3        0.1733
     11  C         11.5170  -11.1910   -7.9810 C.2     3  GLU3        0.2616
     12  O         12.4850  -10.6810   -8.5720 O.2     3  GLU3       -0.2715
     13  CB        10.1350  -11.4820  -10.0370 C.3     3  GLU3        0.0429
     14  CG         9.2320  -12.3710  -10.8650 C.3     3  GLU3        0.1163
     15  CD         9.9020  -13.6710  -11.2950 C.2     3  GLU3        0.3649
     16  OE1       11.1620  -13.7340  -11.3410 O.co2   3  GLU3       -0.2457
     17  OE2        9.1590  -14.6460  -11.5750 O.co2   3  GLU3       -0.2457
     18  N         11.2880  -10.9940   -6.6820 N.am    4  ILE4       -0.1963
     19  CA        12.2070  -10.1740   -5.8840 C.3     4  ILE4        0.1727
     20  C         13.2230  -11.1140   -5.3090 C.2     4  ILE4        0.2612
     21  O         12.8740  -11.9550   -4.4770 O.2     4  ILE4       -0.2715
     22  CB        11.4430   -9.3830   -4.7740 C.3     4  ILE4        0.0290
     23  CG1       10.2260   -8.6190   -5.3320 C.3     4  ILE4        0.0022
     24  CG2       12.3950   -8.4370   -4.0250 C.3     4  ILE4        0.0023
     25  CD1       10.5940   -7.5920   -6.4790 C.3     4  ILE4        0.0001
     26  C         16.6460  -11.4390   -4.5950 C.3     5  LYJ5        0.2036
     27  N         14.4720  -10.9980   -5.7300 N.am    5  LYJ5       -0.2030
     28  O         17.4880  -12.3500   -4.2270 O.3     5  LYJ5       -0.2185
     29  CA        15.4650  -11.9640   -5.3370 C.3     5  LYJ5        0.1286
     30  CB        16.0490  -12.6260   -6.6080 C.3     5  LYJ5        0.0291
     31  CD        15.4990  -14.1130   -8.6600 C.2     5  LYJ5       -0.0067
     32  CE        14.4370  -14.7830   -9.4830 C.2     5  LYJ5        0.1012
     33  CG        14.9970  -13.2870   -7.4740 C.3     5  LYJ5        0.0293
     34  NZ        14.8720  -15.8550  -10.3350 N.pl3   5  LYJ5       -0.1270
@<TRIPOS>BOND
     1    17    15   ar
     2    16    15   ar
     3    15    14    1
     4    14    13    1
     5    34    32    1
     6    13    10    1
     7    32    31    2
     8     3     1    1
     9    10    11    1
    10    10     9    1
    11    31    33    1
    12    12    11    2
    13     4     1   am
    14     4     5    1
    15    11    18   am
    16     1     2    2
    17     9     6   am
    18     7     6    2
    19     6     5    1
    20    33    30    1
    21     5     8    1
    22    18    19    1
    23    30    29    1
    24    25    23    1
    25    19    20    1
    26    19    22    1
    27    27    29    1
    28    27    20   am
    29    29    26    1
    30    23    22    1
    31    20    21    2
    32    22    24    1
    33    26    28    1
