@<TRIPOS>MOLECULE
4d8n_0HM_A_1.pdb
 31 34 0 0 0
SMALL
GASTEIGER

@<TRIPOS>ATOM
      1  CAB       25.5300   10.9030   35.8850 C.ar  301  0HM301     -0.0024
      2  CAC       25.6900   12.2830   35.7850 C.ar  301  0HM301     -0.0003
      3  CAD       25.6770   12.8960   34.5360 C.ar  301  0HM301     -0.0000
      4  CAE       25.5060   12.1280   33.3870 C.ar  301  0HM301     -0.0003
      5  CAF       25.3480   10.7510   33.4870 C.ar  301  0HM301     -0.0024
      6  CAA       25.3570   10.1350   34.7380 C.ar  301  0HM301      0.0004
      7  CAL       25.1490    8.6250   34.8600 C.3   301  0HM301      0.1340
      8  NAG       25.5970    7.9310   33.6370 N.ar  301  0HM301     -0.3081
      9  CAK       24.8420    7.7530   32.5620 C.ar  301  0HM301      0.0980
     10  CAJ       25.5950    7.1170   31.6680 C.ar  301  0HM301      0.1189
     11  NAI       26.7960    6.9110   32.2060 N.ar  301  0HM301     -0.2276
     12  CAH       26.8040    7.4150   33.4340 C.ar  301  0HM301      0.1409
     13  CBD       27.9930    7.3870   34.4060 C.3   301  0HM301      0.1560
     14  NAN       27.9750    6.1730   35.2520 N.pl3 301  0HM301     -0.2909
     15  CAM       28.1990    4.9170   34.6670 C.3   301  0HM301      0.1181
     16  CAQ       28.1630    3.7690   35.4450 C.2   301  0HM301     -0.0014
     17  CAR       27.9020    3.8700   36.8120 C.2   301  0HM301      0.0406
     18  CAP       27.6810    5.1080   37.4010 C.2   301  0HM301      0.2131
     19  OBE       27.4060    5.1730   38.7350 O.2   301  0HM301     -0.2851
     20  CAO       27.7220    6.2660   36.6340 C.2   301  0HM301      0.1439
     21  CAS       27.5930    7.6370   37.3010 C.2   301  0HM301      0.2856
     22  OAU       28.4160    8.5240   37.0580 O.2   301  0HM301     -0.2665
     23  NAT       26.5640    7.7660   38.1320 N.am  301  0HM301     -0.1743
     24  CAX       26.2340    8.8960   38.7660 C.ar  301  0HM301      0.0737
     25  CAY       24.9530    9.0070   39.2900 C.ar  301  0HM301      0.0163
     26  CAZ       24.5410   10.1910   39.9060 C.ar  301  0HM301     -0.0015
     27  CAW       27.1090    9.9730   38.8620 C.ar  301  0HM301      0.0163
     28  CAV       26.7010   11.1570   39.4790 C.ar  301  0HM301     -0.0015
     29  CBA       25.4180   11.2640   39.9980 C.ar  301  0HM301     -0.0031
     30  CBB       24.9750   12.5780   40.6570 C.3   301  0HM301      0.1356
     31  NBC       23.7750   12.3630   41.4760 N.3   301  0HM301     -0.1262
@<TRIPOS>BOND
     1    10    11   ar
     2    10     9   ar
     3    11    12   ar
     4     9     8   ar
     5     4     5   ar
     6     4     3   ar
     7    12     8   ar
     8    12    13    1
     9     5     6   ar
    10     8     7    1
    11    13    14    1
    12     3     2   ar
    13    15    14    1
    14    15    16    1
    15     6     7    1
    16     6     1   ar
    17    14    20    1
    18    16    17    2
    19     2     1   ar
    20    20    21    1
    21    20    18    2
    22    17    18    1
    23    22    21    2
    24    21    23   am
    25    18    19    1
    26    23    24    1
    27    24    27   ar
    28    24    25   ar
    29    27    28   ar
    30    25    26   ar
    31    28    29   ar
    32    26    29   ar
    33    29    30    1
    34    30    31    1
