@<TRIPOS>MOLECULE
4d8q_ADP_A_1.pdb
 27 29 0 0 0
SMALL
GASTEIGER

@<TRIPOS>ATOM
      1  PB       101.5930    0.6010  159.6090 P.3   602  ADP602      0.5373
      2  O1B      100.6230   -0.2900  160.3470 O.3   602  ADP602     -0.1143
      3  O2B      102.7040   -0.1380  158.9090 O.3   602  ADP602     -0.1143
      4  O3B      100.9280    1.6620  158.7690 O.2   602  ADP602     -0.2221
      5  PA       102.6470    0.9040  162.2140 P.3   602  ADP602      0.2231
      6  O1A      103.8820    1.6010  162.7240 O.2   602  ADP602     -0.5169
      7  O2A      101.3620    0.9640  163.0090 O.3   602  ADP602     -0.4370
      8  O3A      102.3500    1.4680  160.7360 O.3   602  ADP602     -0.2261
      9  O5'      103.0410   -0.6350  161.9580 O.3   602  ADP602     -0.3111
     10  C5'      102.5630   -1.6770  162.8090 C.3   602  ADP602      0.1813
     11  C4'      103.4830   -2.8850  162.6810 C.3   602  ADP602      0.1821
     12  O4'      104.2350   -3.0350  163.8840 O.3   602  ADP602     -0.3135
     13  C3'      102.7040   -4.1690  162.4490 C.3   602  ADP602      0.2184
     14  O3'      103.0720   -4.7320  161.1890 O.3   602  ADP602     -0.2174
     15  C2'      103.0930   -5.1120  163.5680 C.3   602  ADP602      0.2570
     16  O2'      103.7730   -6.2600  163.0450 O.3   602  ADP602     -0.2130
     17  C1'      104.0300   -4.3200  164.4730 C.3   602  ADP602      0.3186
     18  N9       103.4690   -4.1950  165.8530 N.pl3 602  ADP602     -0.1439
     19  C8       102.3780   -3.4950  166.2270 C.3   602  ADP602      0.3377
     20  N7       102.1570   -3.6050  167.5640 N.2   602  ADP602     -0.2095
     21  C5       103.1230   -4.3930  168.0790 C.2   602  ADP602      0.2526
     22  C6       103.4970   -4.9280  169.4240 C.2   602  ADP602      0.4393
     23  N6       102.7760   -4.6400  170.5380 N.pl3 602  ADP602      0.2180
     24  N1       104.5940   -5.7220  169.5150 N.2   602  ADP602      0.0021
     25  C2       105.3330   -6.0280  168.4280 C.3   602  ADP602      0.5254
     26  N3       105.0540   -5.5820  167.1860 N.2   602  ADP602     -0.0055
     27  C4       103.9840   -4.7770  166.9450 C.2   602  ADP602      0.3518
@<TRIPOS>BOND
     1     4     1    2
     2     3     1    1
     3     1     2    1
     4     1     8    1
     5     8     5    1
     6    14    13    1
     7     9     5    1
     8     9    10    1
     9     5     6    2
    10     5     7    1
    11    13    11    1
    12    13    15    1
    13    11    10    1
    14    11    12    1
    15    16    15    1
    16    15    17    1
    17    12    17    1
    18    17    18    1
    19    18    19    1
    20    18    27    1
    21    19    20    1
    22    27    26    2
    23    27    21    1
    24    26    25    1
    25    20    21    2
    26    21    22    1
    27    25    24    1
    28    22    24    2
    29    22    23    1
