@<TRIPOS>MOLECULE
4d8r_ADP_a_1.pdb
 27 29 0 0 0
SMALL
GASTEIGER

@<TRIPOS>ATOM
      1  PB       -45.2870  -23.1280  -28.8180 P.3   602  ADP602      0.5373
      2  O1B      -46.1120  -24.1120  -29.6130 O.2   602  ADP602     -0.2221
      3  O2B      -45.8990  -21.7560  -28.6870 O.3   602  ADP602     -0.1143
      4  O3B      -44.7500  -23.6970  -27.5270 O.3   602  ADP602     -0.1143
      5  PA       -43.9390  -22.9570  -31.3200 P.3   602  ADP602      0.2231
      6  O1A      -42.7490  -22.1610  -31.8100 O.2   602  ADP602     -0.5169
      7  O2A      -44.1000  -24.4070  -31.7250 O.3   602  ADP602     -0.4370
      8  O3A      -43.9610  -22.8800  -29.7060 O.3   602  ADP602     -0.2261
      9  O5'      -45.2650  -22.1420  -31.7250 O.3   602  ADP602     -0.3111
     10  C5'      -46.0820  -22.5560  -32.8150 C.3   602  ADP602      0.1813
     11  C4'      -46.9100  -21.3630  -33.2700 C.3   602  ADP602      0.1821
     12  O4'      -46.6300  -21.0840  -34.6390 O.3   602  ADP602     -0.3135
     13  C3'      -48.3980  -21.6420  -33.1630 C.3   602  ADP602      0.2184
     14  O3'      -49.0290  -20.4760  -32.6240 O.3   602  ADP602     -0.2174
     15  C2'      -48.8800  -21.8820  -34.5800 C.3   602  ADP602      0.2570
     16  O2'      -50.1030  -21.1770  -34.8230 O.3   602  ADP602     -0.2130
     17  C1'      -47.7720  -21.3320  -35.4660 C.3   602  ADP602      0.3186
     18  N9       -47.4350  -22.3110  -36.5340 N.pl3 602  ADP602     -0.1439
     19  C8       -46.9590  -23.5600  -36.3680 C.3   602  ADP602      0.3377
     20  N7       -46.7650  -24.1760  -37.5630 N.2   602  ADP602     -0.2095
     21  C5       -47.1220  -23.3090  -38.5280 C.2   602  ADP602      0.2526
     22  C6       -47.1700  -23.3040  -40.0150 C.2   602  ADP602      0.4393
     23  N6       -46.7850  -24.3850  -40.7340 N.pl3 602  ADP602      0.2180
     24  N1       -47.6110  -22.1820  -40.6370 N.2   602  ADP602      0.0021
     25  C2       -47.9990  -21.0960  -39.9410 C.3   602  ADP602      0.5254
     26  N3       -47.9800  -21.0350  -38.5950 N.2   602  ADP602     -0.0055
     27  C4       -47.5620  -22.0840  -37.8430 C.2   602  ADP602      0.3518
@<TRIPOS>BOND
     1    23    22    1
     2    24    22    2
     3    24    25    1
     4    22    21    1
     5    25    26    1
     6    26    27    2
     7    21    27    1
     8    21    20    2
     9    27    18    1
    10    20    19    1
    11    18    19    1
    12    18    17    1
    13    17    12    1
    14    17    15    1
    15    16    15    1
    16    12    11    1
    17    15    13    1
    18    11    13    1
    19    11    10    1
    20    13    14    1
    21    10     9    1
    22     6     5    2
    23     9     5    1
    24     7     5    1
    25     5     8    1
    26     8     1    1
    27     2     1    2
    28     1     3    1
    29     1     4    1
