@<TRIPOS>MOLECULE
4d8s_0HX_A_1.pdb
 20 20 0 0 0
SMALL
GASTEIGER

@<TRIPOS>ATOM
      1  C4       -26.6740  -22.0990  -11.4440 C.3   502  0HX502      0.0297
      2  C5       -26.1270  -23.1890  -10.5210 C.3   502  0HX502      0.0026
      3  C6       -24.0740  -19.8010  -11.9140 C.3   502  0HX502      0.3112
      4  C11      -23.7740  -18.3310  -11.6670 C.3   502  0HX502      0.1995
      5  C7       -22.2770  -20.4560  -10.5560 C.2   502  0HX502      0.2188
      6  C8       -21.5810  -21.6300   -9.8620 C.2   502  0HX502      0.4209
      7  C9       -21.5920  -19.2800  -10.8400 C.2   502  0HX502      0.0519
      8  C10      -22.2610  -18.1200  -11.5780 C.3   502  0HX502      0.2033
      9  C12      -25.2450  -16.6420  -12.7420 C.2   502  0HX502      0.2421
     10  C13      -25.5530  -15.9500  -14.0680 C.3   502  0HX502      0.0964
     11  N1       -24.2660  -17.5440  -12.8040 N.am  502  0HX502     -0.1977
     12  C3       -25.5600  -21.4390  -12.2420 C.3   502  0HX502      0.1189
     13  C1       -26.1520  -23.0370  -14.0550 C.3   502  0HX502      0.0026
     14  C2       -25.8430  -21.5720  -13.7400 C.3   502  0HX502      0.0297
     15  O1       -25.4680  -20.0680  -11.8920 O.3   502  0HX502     -0.3217
     16  O2       -23.5940  -20.5990  -10.8520 O.2   502  0HX502     -0.4445
     17  O3       -20.4540  -21.4680   -9.3560 O.co2 502  0HX502     -0.2371
     18  O4       -22.1930  -22.7150   -9.8380 O.co2 502  0HX502     -0.2371
     19  O5       -21.9460  -16.8870  -10.9260 O.3   502  0HX502     -0.2161
     20  O6       -25.8760  -16.3660  -11.7290 O.2   502  0HX502     -0.2733
@<TRIPOS>BOND
     1    10     9    1
     2    13    14    1
     3    14    12    1
     4    11     9   am
     5    11     4    1
     6     9    20    2
     7    12    15    1
     8    12     1    1
     9     3    15    1
    10     3     4    1
    11     3    16    1
    12     4     8    1
    13     8    19    1
    14     8     7    1
    15     1     2    1
    16    16     5    1
    17     7     5    2
    18     5     6    1
    19     6    18   ar
    20     6    17   ar
