@<TRIPOS>MOLECULE
4d8v_ADE_A_1.pdb
 10 11 0 0 0
SMALL
GASTEIGER

@<TRIPOS>ATOM
      1  N9       -43.7820  -33.9270   -2.2790 N.2   303  ADE303     -0.1914
      2  C8       -43.9470  -33.7950   -0.9240 C.3   303  ADE303      0.2618
      3  N7       -45.1940  -33.6240   -0.5430 N.2   303  ADE303     -0.2267
      4  C5       -45.9110  -33.6590   -1.7250 C.2   303  ADE303      0.2303
      5  C6       -47.2870  -33.5360   -2.0120 C.2   303  ADE303      0.4393
      6  N6       -48.2530  -33.3500   -1.0980 N.pl3 303  ADE303      0.2185
      7  N1       -47.6510  -33.5990   -3.3010 N.2   303  ADE303     -0.0265
      8  C2       -46.7020  -33.7830   -4.2130 C.3   303  ADE303      0.4008
      9  N3       -45.3890  -33.9180   -4.0740 N.2   303  ADE303     -0.1640
     10  C4       -45.0520  -33.8470   -2.7930 C.1   303  ADE303      0.0579
@<TRIPOS>BOND
     1     8     9    1
     2     8     7    1
     3     9    10    2
     4     7     5    2
     5    10     1    2
     6    10     4    1
     7     1     2    1
     8     5     4    1
     9     5     6    1
    10     4     3    2
    11     2     3    1
