@<TRIPOS>MOLECULE
4d8z_0J2_A_1.pdb
 19 20 0 0 0
SMALL
GASTEIGER

@<TRIPOS>ATOM
      1  C1       -11.7000   25.9000    9.5310 C.3   305  0J2305      0.1201
      2  C2       -10.0490   25.9230    7.7410 C.3   305  0J2305      0.0071
      3  C3       -13.0730   26.3240    9.9180 C.2   305  0J2305      0.3652
      4  O1       -13.4700   27.5020    9.6700 O.co2 305  0J2305     -0.2456
      5  O2       -13.8780   25.4390   10.3020 O.co2 305  0J2305     -0.2456
      6  N1       -12.7030   24.3970    7.2460 N.2   305  0J2305     -0.1393
      7  N2       -13.5510   23.8330    6.3370 N.2   305  0J2305     -0.0802
      8  O3       -14.2810   27.9130    3.7580 O.2   305  0J2305     -0.2077
      9  C4       -11.4400   26.3110    8.1180 C.3   305  0J2305      0.0566
     10  N3       -16.4570   23.7020    2.4900 N.pl3 305  0J2305     -0.0220
     11  C5       -14.5340   26.5800    3.9900 C.1   305  0J2305      0.2296
     12  C6       -13.9060   25.8850    5.0890 C.2   305  0J2305      0.2111
     13  N4       -15.3870   25.8800    3.1280 N.2   305  0J2305     -0.2488
     14  C7       -14.1640   24.5580    5.2580 C.1   305  0J2305      0.1356
     15  C8       -12.4060   25.6730    7.1690 C.2   305  0J2305      0.1216
     16  C9       -12.9880   26.5030    6.0780 C.2   305  0J2305      0.2332
     17  N5       -14.9890   23.8400    4.4350 N.2   305  0J2305     -0.2679
     18  O4       -12.6970   27.8470    6.0370 O.2   305  0J2305     -0.2837
     19  C10      -15.6180   24.4580    3.3490 C.1   305  0J2305      0.2608
@<TRIPOS>BOND
     1    10    19    1
     2    13    19    2
     3    13    11    2
     4    19    17    2
     5     8    11    2
     6    11    12    1
     7    17    14    2
     8    12    14    1
     9    12    16    2
    10    14     7    2
    11    18    16    1
    12    16    15    1
    13     7     6    1
    14    15     6    2
    15    15     9    1
    16     2     9    1
    17     9     1    1
    18     1     3    1
    19     4     3   ar
    20     3     5   ar
