@<TRIPOS>MOLECULE
4d90_FUC_A_1.pdb
 10 10 0 0 0
SMALL
GASTEIGER

@<TRIPOS>ATOM
      1  C1         7.8800   -3.5810   17.7590 C.3   603  FUC603      0.1776
      2  C2         6.5650   -3.6820   18.5360 C.3   603  FUC603      0.2141
      3  C3         5.4020   -3.1550   17.6960 C.3   603  FUC603      0.2172
      4  C4         5.4100   -3.8100   16.3350 C.3   603  FUC603      0.2116
      5  C5         6.7680   -3.6550   15.6580 C.3   603  FUC603      0.1483
      6  C6         6.8110   -4.3440   14.2940 C.3   603  FUC603      0.0349
      7  O2         6.6650   -2.8620   19.6770 O.3   603  FUC603     -0.2176
      8  O3         4.1920   -3.5180   18.3110 O.3   603  FUC603     -0.2175
      9  O4         5.1940   -5.1730   16.6150 O.3   603  FUC603     -0.2177
     10  O5         7.7720   -4.2200   16.4920 O.3   603  FUC603     -0.3508
@<TRIPOS>BOND
     1     6     5    1
     2     5     4    1
     3     5    10    1
     4     4     9    1
     5     4     3    1
     6    10     1    1
     7     3     8    1
     8     3     2    1
     9     1     2    1
    10     2     7    1
