@<TRIPOS>MOLECULE
4d96_5PA_A_1.pdb
 22 23 0 0 0
SMALL
GASTEIGER

@<TRIPOS>ATOM
      1  C4        -1.8410   33.2370   16.3700 C.ar  501  5PA501      0.0353
      2  C4A       -1.4060   33.8550   15.0690 C.3   501  5PA501      0.1185
      3  P         -0.4000   30.6190   13.2870 P.3   501  5PA501      0.5329
      4  O1P       -0.4800   32.0460   12.7970 O.3   501  5PA501     -0.1145
      5  O2P       -1.3510   29.7320   12.5130 O.2   501  5PA501     -0.2224
      6  O3P        0.9820   30.0780   13.5110 O.3   501  5PA501     -0.1145
      7  O4P       -0.9760   30.6830   14.7940 O.3   501  5PA501     -0.2653
      8  C5A       -2.3300   31.0480   15.0710 C.3   501  5PA501      0.1816
      9  C5        -2.3120   31.8300   16.3630 C.ar  501  5PA501      0.0275
     10  N1        -2.6960   31.8980   18.7090 N.ar  501  5PA501     -0.2452
     11  C6        -2.7060   31.2350   17.5490 C.ar  501  5PA501      0.0965
     12  C2        -2.2820   33.1820   18.8430 C.ar  501  5PA501      0.0978
     13  C2A       -2.3080   33.8290   20.1900 C.3   501  5PA501      0.0555
     14  C3        -1.8190   33.9590   17.6750 C.ar  501  5PA501      0.2062
     15  O3        -1.4180   35.2620   17.8150 O.3   501  5PA501     -0.2856
     16  N         -1.5790   35.2850   15.1090 N.3   501  5PA501     -0.2051
     17  C8        -1.2260   36.1720   14.0080 C.3   501  5PA501      0.1529
     18  C7        -0.8240   37.5740   14.4000 C.2   501  5PA501      0.3784
     19  O7        -0.6730   37.7910   15.6220 O.co2 501  5PA501     -0.2442
     20  O8        -0.6740   38.4630   13.5290 O.co2 501  5PA501     -0.2442
     21  C9        -0.3000   35.4820   13.0020 C.3   501  5PA501      0.0290
     22  C10       -1.7170   35.8770   12.5990 C.3   501  5PA501      0.0290
@<TRIPOS>BOND
     1     5     3    2
     2    22    21    1
     3    22    17    1
     4     4     3    1
     5    21    17    1
     6     3     6    1
     7     3     7    1
     8    20    18   ar
     9    17    18    1
    10    17    16    1
    11    18    19   ar
    12     7     8    1
    13     2    16    1
    14     2     1    1
    15     8     9    1
    16     9     1   ar
    17     9    11   ar
    18     1    14   ar
    19    11    10   ar
    20    14    15    1
    21    14    12   ar
    22    10    12   ar
    23    12    13    1
