@<TRIPOS>MOLECULE
4d9b_PMP_A_1.pdb
 16 16 0 0 0
SMALL
GASTEIGER

@<TRIPOS>ATOM
      1  N1        -2.4410   31.9430   18.4470 N.ar  402  PMP402     -0.2452
      2  C2        -2.1540   33.2400   18.6080 C.ar  402  PMP402      0.0978
      3  C2A       -2.2360   33.8450   19.9840 C.3   402  PMP402      0.0555
      4  C3        -1.6050   33.9650   17.5280 C.ar  402  PMP402      0.2063
      5  O3        -1.2380   35.2110   17.7130 O.3   402  PMP402     -0.2856
      6  C4        -1.5250   33.3730   16.2400 C.ar  402  PMP402      0.0369
      7  C4A       -0.9840   34.1190   15.0250 C.3   402  PMP402      0.1386
      8  N4A       -0.1700   35.2780   15.2150 N.3   402  PMP402     -0.1261
      9  C5        -2.0130   32.0540   16.1510 C.ar  402  PMP402      0.0275
     10  C6        -2.4540   31.3330   17.2420 C.ar  402  PMP402      0.0965
     11  C5A       -2.0680   31.3220   14.8070 C.3   402  PMP402      0.1816
     12  O4P       -0.7660   30.7610   14.6080 O.3   402  PMP402     -0.2653
     13  P         -0.2740   30.5680   13.0590 P.3   402  PMP402      0.5329
     14  O1P       -1.3740   29.8050   12.3400 O.2   402  PMP402     -0.2224
     15  O2P        1.0050   29.8200   13.1800 O.3   402  PMP402     -0.1145
     16  O3P       -0.0850   31.9800   12.4950 O.3   402  PMP402     -0.1145
@<TRIPOS>BOND
     1    14    13    2
     2    16    13    1
     3    13    15    1
     4    13    12    1
     5    12    11    1
     6    11     9    1
     7     7     8    1
     8     7     6    1
     9     9     6   ar
    10     9    10   ar
    11     6     4   ar
    12    10     1   ar
    13     4     5    1
    14     4     2   ar
    15     1     2   ar
    16     2     3    1
