@<TRIPOS>MOLECULE
4d9c_PMP_A_1.pdb
 16 16 0 0 0
SMALL
GASTEIGER

@<TRIPOS>ATOM
      1  N1        -2.5580   31.8120   18.4580 N.ar  402  PMP402     -0.2452
      2  C2        -2.1970   33.1330   18.6790 C.ar  402  PMP402      0.0978
      3  C2A       -2.3290   33.5430   20.0950 C.3   402  PMP402      0.0555
      4  C3        -1.6550   33.8910   17.6240 C.ar  402  PMP402      0.2063
      5  O3        -1.2470   35.1280   17.7550 O.3   402  PMP402     -0.2856
      6  C4        -1.6180   33.3470   16.3180 C.ar  402  PMP402      0.0369
      7  C4A       -1.2250   34.1170   15.0590 C.3   402  PMP402      0.1386
      8  N4A       -0.3260   35.2280   15.2780 N.3   402  PMP402     -0.1261
      9  C5        -2.0800   32.0470   16.1590 C.ar  402  PMP402      0.0275
     10  C6        -2.4180   31.2670   17.2510 C.ar  402  PMP402      0.0965
     11  C5A       -2.1760   31.3980   14.8000 C.3   402  PMP402      0.1816
     12  O4P       -0.9160   30.7310   14.6230 O.3   402  PMP402     -0.2653
     13  P         -0.3590   30.4870   13.0820 P.3   402  PMP402      0.5329
     14  O1P       -0.2150   31.9140   12.4930 O.3   402  PMP402     -0.1145
     15  O2P       -1.4160   29.6180   12.3900 O.2   402  PMP402     -0.2224
     16  O3P        0.9880   29.8400   13.1610 O.3   402  PMP402     -0.1145
@<TRIPOS>BOND
     1    15    13    2
     2    14    13    1
     3    13    16    1
     4    13    12    1
     5    12    11    1
     6    11     9    1
     7     7     8    1
     8     7     6    1
     9     9     6   ar
    10     9    10   ar
    11     6     4   ar
    12    10     1   ar
    13     4     5    1
    14     4     2   ar
    15     1     2   ar
    16     2     3    1
