@<TRIPOS>MOLECULE
4d9e_LCS_A_1.pdb
 22 23 0 0 0
SMALL
GASTEIGER

@<TRIPOS>ATOM
      1  N1        -2.4130   32.1240   18.0270 N.ar  402  LCS402     -0.2452
      2  C2        -2.0120   33.3240   18.2900 C.ar  402  LCS402      0.0981
      3  C2A       -2.2060   33.7930   19.6830 C.3   402  LCS402      0.0555
      4  C3        -1.3920   34.1660   17.2670 C.ar  402  LCS402      0.2103
      5  O3        -0.9860   35.3620   17.6230 O.3   402  LCS402     -0.2853
      6  C4        -1.2280   33.6870   15.9060 C.ar  402  LCS402      0.0587
      7  C4A       -0.5220   34.5200   14.8410 C.2   402  LCS402      0.0975
      8  C5        -1.7350   32.2910   15.7640 C.ar  402  LCS402      0.0316
      9  C6        -2.3060   31.6390   16.8380 C.ar  402  LCS402      0.0968
     10  C5A       -1.7340   31.5110   14.4980 C.3   402  LCS402      0.1819
     11  O4P       -0.6510   30.6790   14.2940 O.3   402  LCS402     -0.2653
     12  P         -0.1070   30.6630   12.8740 P.3   402  LCS402      0.5329
     13  O1P       -0.9600   29.8330   12.1950 O.2   402  LCS402     -0.2224
     14  O2P       -0.2350   32.0060   12.5980 O.3   402  LCS402     -0.1145
     15  O3P        1.1580   30.1000   12.7650 O.3   402  LCS402     -0.1145
     16  N         -1.1990   35.2890   13.8120 N.2   402  LCS402     -0.2502
     17  CA        -0.4580   35.9030   12.7440 C.3   402  LCS402      0.2576
     18  C         -0.9450   37.1610   12.0970 C.1   402  LCS402      0.1912
     19  O         -0.3910   38.2490   12.1460 O.2   402  LCS402     -0.2218
     20  ND        -2.0110   36.8970   11.3740 N.2   402  LCS402     -0.0076
     21  OG        -2.1620   35.6140   11.3330 O.2   402  LCS402     -0.3659
     22  CB        -0.9710   35.0140   11.7080 C.3   402  LCS402      0.2804
@<TRIPOS>BOND
     1    21    20    1
     2    21    22    1
     3    20    18    2
     4    22    17    1
     5    18    19    2
     6    18    17    1
     7    13    12    2
     8    14    12    1
     9    17    16    1
    10    15    12    1
    11    12    11    1
    12    16     7    2
    13    11    10    1
    14    10     8    1
    15     7     6    1
    16     8     6   ar
    17     8     9   ar
    18     6     4   ar
    19     9     1   ar
    20     4     5    1
    21     4     2   ar
    22     1     2   ar
    23     2     3    1
