@<TRIPOS>MOLECULE
4d9f_DCS_A_1.pdb
 22 23 0 0 0
SMALL
GASTEIGER

@<TRIPOS>ATOM
      1  N1        -2.8030   32.0170   18.2970 N.ar  402  DCS402     -0.2452
      2  C2        -2.4320   33.2520   18.7080 C.ar  402  DCS402      0.0978
      3  C2A       -2.5460   33.6270   20.1620 C.3   402  DCS402      0.0555
      4  C3        -1.9140   34.2400   17.7270 C.ar  402  DCS402      0.2062
      5  O3        -1.5420   35.4800   18.1440 O.3   402  DCS402     -0.2856
      6  C4        -1.8200   33.8350   16.2990 C.ar  402  DCS402      0.0353
      7  C4A       -1.2910   34.8520   15.2910 C.3   402  DCS402      0.1193
      8  C5        -2.2630   32.4360   15.9910 C.ar  402  DCS402      0.0275
      9  C6        -2.7270   31.6170   17.0180 C.ar  402  DCS402      0.0965
     10  C5A       -2.2460   31.8420   14.6040 C.3   402  DCS402      0.1816
     11  O4P       -1.3370   30.7460   14.5770 O.3   402  DCS402     -0.2653
     12  P         -0.4500   30.4780   13.2660 P.3   402  DCS402      0.5329
     13  O1P       -1.2830   29.5120   12.4660 O.2   402  DCS402     -0.2224
     14  O2P        0.8290   29.9140   13.8330 O.3   402  DCS402     -0.1145
     15  O3P       -0.2960   31.8420   12.6340 O.3   402  DCS402     -0.1145
     16  N         -1.5280   34.5420   13.8900 N.3   402  DCS402     -0.1949
     17  CA        -2.4490   35.3580   13.1190 C.3   402  DCS402      0.2287
     18  C         -1.8090   36.4410   12.3070 C.1   402  DCS402      0.1846
     19  O         -0.9900   37.2340   12.7450 O.2   402  DCS402     -0.2223
     20  ND        -2.2750   36.3990   11.0640 N.2   402  DCS402     -0.0082
     21  OG        -3.0450   35.3220   10.8780 O.2   402  DCS402     -0.3665
     22  CB        -3.2060   34.5470   12.0700 C.3   402  DCS402      0.2734
@<TRIPOS>BOND
     1    21    20    1
     2    21    22    1
     3    20    18    2
     4    22    17    1
     5    18    19    2
     6    18    17    1
     7    13    12    2
     8    15    12    1
     9    17    16    1
    10    12    14    1
    11    12    11    1
    12    16     7    1
    13    11    10    1
    14    10     8    1
    15     7     6    1
    16     8     6   ar
    17     8     9   ar
    18     6     4   ar
    19     9     1   ar
    20     4     5    1
    21     4     2   ar
    22     1     2   ar
    23     2     3    1
