@<TRIPOS>MOLECULE
4d9h_ADN_A_1.pdb
 19 21 0 0 0
SMALL
GASTEIGER

@<TRIPOS>ATOM
      1  O5'       -6.2790   51.0640   22.9620 O.3   301  ADN301     -0.2176
      2  C5'       -6.0030   52.0680   21.9910 C.3   301  ADN301      0.2143
      3  C4'       -7.2400   52.3790   21.1560 C.3   301  ADN301      0.1851
      4  O4'       -8.4750   52.3930   21.8780 O.3   301  ADN301     -0.3134
      5  C3'       -7.0940   53.7060   20.4600 C.3   301  ADN301      0.2186
      6  O3'       -7.0330   53.4300   19.0650 O.3   301  ADN301     -0.2174
      7  C2'       -8.3530   54.4640   20.7580 C.3   301  ADN301      0.2570
      8  O2'       -9.0040   54.6250   19.5140 O.3   301  ADN301     -0.2130
      9  C1'       -9.1850   53.6100   21.6980 C.3   301  ADN301      0.3186
     10  N9        -9.2420   54.1630   23.0660 N.pl3 301  ADN301     -0.1439
     11  C8        -9.9770   53.6150   24.0510 C.3   301  ADN301      0.3377
     12  N7        -9.8170   54.3040   25.1970 N.2   301  ADN301     -0.2095
     13  C5        -8.9560   55.3080   24.9700 C.2   301  ADN301      0.2526
     14  C6        -8.3610   56.4110   25.7560 C.2   301  ADN301      0.4393
     15  N6        -8.6460   56.5860   27.0620 N.pl3 301  ADN301      0.2180
     16  N1        -7.5090   57.2500   25.1400 N.2   301  ADN301      0.0021
     17  C2        -7.1980   57.1100   23.8490 C.3   301  ADN301      0.5254
     18  N3        -7.6980   56.1300   23.0800 N.2   301  ADN301     -0.0055
     19  C4        -8.5650   55.2070   23.5640 C.2   301  ADN301      0.3518
@<TRIPOS>BOND
     1     6     5    1
     2     8     7    1
     3     5     7    1
     4     5     3    1
     5     7     9    1
     6     3     4    1
     7     3     2    1
     8     9     4    1
     9     9    10    1
    10     2     1    1
    11    10    19    1
    12    10    11    1
    13    18    19    2
    14    18    17    1
    15    19    13    1
    16    17    16    1
    17    11    12    1
    18    13    12    2
    19    13    14    1
    20    16    14    2
    21    14    15    1
