@<TRIPOS>MOLECULE
4d9m_0JO_A_1.pdb
 21 21 0 0 0
SMALL
GASTEIGER

@<TRIPOS>ATOM
      1  O         24.9640   60.3680   70.4040 O.co2 401  0JO401     -0.2388
      2  C         25.4730   59.6420   71.2860 C.2   401  0JO401      0.4051
      3  OXT       25.9830   58.5370   71.0030 O.co2 401  0JO401     -0.2388
      4  CA        25.4840   60.1030   72.6770 C.2   401  0JO401      0.1608
      5  CB        24.7100   61.0910   73.1030 C.2   401  0JO401      0.0276
      6  N         26.3290   59.5100   73.5300 N.2   401  0JO401     -0.2371
      7  C4A       25.9620   58.6930   74.4280 C.2   401  0JO401      0.1021
      8  C4        26.9580   58.0580   75.3440 C.ar  401  0JO401      0.0591
      9  C3        28.1190   57.4790   74.8440 C.ar  401  0JO401      0.2103
     10  O3        28.3820   57.4830   73.5050 O.3   401  0JO401     -0.2853
     11  C2        29.0230   56.8970   75.7220 C.ar  401  0JO401      0.0981
     12  C2A       30.2860   56.2710   75.2040 C.3   401  0JO401      0.0555
     13  N1        28.7930   56.8760   77.0520 N.ar  401  0JO401     -0.2452
     14  C6        27.6860   57.4200   77.5580 C.ar  401  0JO401      0.0968
     15  C5        26.7520   58.0190   76.7190 C.ar  401  0JO401      0.0316
     16  C5A       25.5310   58.6260   77.3540 C.3   401  0JO401      0.1819
     17  OP4       24.4050   57.7700   77.2180 O.3   401  0JO401     -0.2653
     18  P         22.9510   58.4030   77.4780 P.3   401  0JO401      0.5329
     19  OP3       22.8050   59.5140   76.4600 O.2   401  0JO401     -0.2224
     20  OP1       22.1070   57.1710   77.2920 O.3   401  0JO401     -0.1145
     21  OP2       22.9860   58.9390   78.8920 O.3   401  0JO401     -0.1145
@<TRIPOS>BOND
     1     1     2   ar
     2     3     2   ar
     3     2     4    1
     4     4     5    2
     5     4     6    1
     6    10     9    1
     7     6     7    2
     8     7     8    1
     9     9     8   ar
    10     9    11   ar
    11    12    11    1
    12     8    15   ar
    13    11    13   ar
    14    19    18    2
    15    15    16    1
    16    15    14   ar
    17    13    14   ar
    18    17    16    1
    19    17    18    1
    20    20    18    1
    21    18    21    1
