@<TRIPOS>MOLECULE
4d9p_Z17_A_1.pdb
 20 21 0 0 0
SMALL
GASTEIGER

@<TRIPOS>ATOM
      1  C1       -11.8640   26.7250    9.5380 C.3   306  Z17306      0.1201
      2  C2       -13.2480   26.6130   10.1000 C.2   306  Z17306      0.3652
      3  C3       -13.2860   27.2900    5.9880 C.2   306  Z17306      0.2263
      4  N1       -16.6900   24.3970    2.3710 N.pl3 306  Z17306     -0.0226
      5  N2       -15.5880   26.5570    3.0140 N.2   306  Z17306     -0.2499
      6  C4       -14.1450   23.2880    6.5820 C.3   306  Z17306      0.1426
      7  C5       -12.7260   26.5460    7.1400 C.2   306  Z17306      0.1163
      8  C6       -10.3880   27.0790    7.6910 C.3   306  Z17306      0.0070
      9  O1       -12.9960   28.6130    5.8320 O.2   306  Z17306     -0.2843
     10  N3       -13.0380   25.2870    7.2560 N.2   306  Z17306     -0.1770
     11  O2       -13.6240   25.4770   10.5140 O.co2 306  Z17306     -0.2456
     12  C7       -15.8560   25.1520    3.2490 C.1   306  Z17306      0.2531
     13  O3       -14.5190   28.5930    3.6090 O.2   306  Z17306     -0.2083
     14  N4       -15.2800   24.5620    4.3600 N.2   306  Z17306     -0.3073
     15  O4       -14.0190   27.6220   10.1270 O.co2 306  Z17306     -0.2456
     16  C8       -14.4650   25.2800    5.2040 C.2   306  Z17306      0.2311
     17  C9       -14.1750   26.6140    5.0040 C.2   306  Z17306      0.1816
     18  N5       -13.8570   24.6730    6.3600 N.pl3 306  Z17306     -0.1818
     19  C10      -14.7590   27.2720    3.8670 C.1   306  Z17306      0.2229
     20  C11      -11.8140   27.2400    8.1270 C.3   306  Z17306      0.0563
@<TRIPOS>BOND
     1     4    12    1
     2     5    12    2
     3     5    19    2
     4    12    14    2
     5    13    19    2
     6    19    17    1
     7    14    16    2
     8    17    16    1
     9    17     3    2
    10    16    18    1
    11     9     3    1
    12     3     7    1
    13    18     6    1
    14    18    10    1
    15     7    10    2
    16     7    20    1
    17     8    20    1
    18    20     1    1
    19     1     2    1
    20     2    15   ar
    21     2    11   ar
