@<TRIPOS>MOLECULE
4d9t_0JG_A_1.pdb
 29 31 0 0 0
SMALL
GASTEIGER

@<TRIPOS>ATOM
      1  N01      -33.8570   14.9370  -19.9370 N.pl3 900  0JG900      0.2163
      2  C02      -33.4580   14.6180  -21.2810 C.2   900  0JG900      0.4216
      3  C03      -32.3520   13.7060  -21.5480 C.2   900  0JG900      0.1721
      4  C04      -32.0130   13.4240  -22.9310 C.2   900  0JG900      0.3352
      5  N05      -30.8810   12.4850  -22.9700 N.pl3 900  0JG900     -0.1674
      6  C06      -30.3020   12.0080  -24.2500 C.2   900  0JG900      0.1739
      7  C07      -29.1300   12.7390  -24.8650 C.2   900  0JG900      0.0529
      8  C08      -28.3570   11.9560  -25.8990 C.3   900  0JG900      0.2120
      9  O09      -28.9640   11.7470  -27.1260 O.3   900  0JG900     -0.2151
     10  C10      -30.4530   12.1400  -21.5560 C.3   900  0JG900      0.1896
     11  C11      -29.5340   11.2120  -20.7870 C.3   900  0JG900      0.0782
     12  C12      -28.2200   11.0780  -21.4250 C.3   900  0JG900      0.1940
     13  C13      -27.5220    9.9770  -20.6670 C.2   900  0JG900      0.3312
     14  O14      -27.5820    8.7620  -21.0710 O.3   900  0JG900     -0.4437
     15  C15      -26.9340    7.7420  -20.3750 C.3   900  0JG900      0.2556
     16  O16      -26.8760   10.2550  -19.6240 O.2   900  0JG900     -0.2489
     17  C17      -27.5050   12.3350  -21.4490 C.1   900  0JG900      0.0836
     18  N18      -26.9620   13.3000  -21.4320 N.1   900  0JG900     -0.1953
     19  C19      -31.3680   12.9470  -20.7160 C.2   900  0JG900      0.0350
     20  C20      -31.2920   12.8420  -19.2250 C.ar  900  0JG900      0.0002
     21  C21      -32.2980   12.0590  -18.5080 C.ar  900  0JG900     -0.0005
     22  C22      -32.1980   11.9300  -17.0610 C.ar  900  0JG900     -0.0043
     23  C23      -31.1420   12.5330  -16.3700 C.ar  900  0JG900     -0.0218
     24  C24      -31.0730   12.4000  -14.9190 C.3   900  0JG900      0.0310
     25  C25      -30.0990   13.3210  -17.0990 C.ar  900  0JG900     -0.0043
     26  C26      -30.1990   13.4490  -18.5140 C.ar  900  0JG900     -0.0005
     27  N27      -32.7320   14.0090  -23.9600 N.2   900  0JG900     -0.0069
     28  C28      -33.7970   14.8830  -23.6690 C.3   900  0JG900      0.5253
     29  N29      -34.1480   15.1790  -22.3630 N.2   900  0JG900      0.0007
@<TRIPOS>BOND
     1     9     8    1
     2     8     7    1
     3     7     6    2
     4     6     5    1
     5    27    28    1
     6    27     4    2
     7    28    29    1
     8     5     4    1
     9     5    10    1
    10     4     3    1
    11    29     2    2
    12    10    11    1
    13    10    19    1
    14     3     2    1
    15     3    19    2
    16    17    18    3
    17    17    12    1
    18    12    11    1
    19    12    13    1
    20     2     1    1
    21    14    13    1
    22    14    15    1
    23    19    20    1
    24    13    16    2
    25    20    26   ar
    26    20    21   ar
    27    26    25   ar
    28    21    22   ar
    29    25    23   ar
    30    22    23   ar
    31    23    24    1
