@<TRIPOS>MOLECULE
4d9u_0JH_A_1.pdb
 32 34 0 0 0
SMALL
GASTEIGER

@<TRIPOS>ATOM
      1  N01      -33.9620   15.3100  -19.8820 N.pl3 900  0JH900      0.2117
      2  C02      -33.5380   14.7960  -21.0810 C.2   900  0JH900      0.4064
      3  C03      -32.5120   13.8000  -21.1720 C.3   900  0JH900      0.2441
      4  C04      -32.2160   13.4430  -22.5290 C.2   900  0JH900      0.3194
      5  N05      -31.2010   12.4620  -22.5750 N.pl3 900  0JH900     -0.1771
      6  C06      -30.7410   11.9900  -23.9280 C.3   900  0JH900      0.2094
      7  C07      -29.7170   12.8490  -24.7410 C.3   900  0JH900      0.0867
      8  C08      -29.2210   12.0080  -25.9600 C.3   900  0JH900      0.1864
      9  O09      -28.5400   10.8430  -25.5820 O.3   900  0JH900     -0.2203
     10  C10      -30.8630   12.1890  -21.2040 C.2   900  0JH900      0.1143
     11  C11      -29.8380   11.2320  -20.5980 C.3   900  0JH900      0.0934
     12  C12      -28.5420   11.2240  -21.4870 C.3   900  0JH900      0.1975
     13  C13      -27.4470   10.1690  -21.1640 C.2   900  0JH900      0.3312
     14  O14      -27.7590    8.8510  -21.3200 O.3   900  0JH900     -0.4550
     15  C15      -26.8520    7.7640  -21.0600 C.3   900  0JH900      0.1363
     16  C16      -25.7130    7.7680  -22.1010 C.3   900  0JH900      0.0437
     17  C17      -27.6010    6.4370  -21.1660 C.3   900  0JH900      0.0437
     18  C18      -26.1840    7.9090  -19.6940 C.3   900  0JH900      0.0437
     19  O19      -26.3330   10.5140  -20.7790 O.2   900  0JH900     -0.2489
     20  C20      -27.8960   12.5120  -21.3330 C.1   900  0JH900      0.0840
     21  N21      -27.4410   13.5580  -21.1980 N.1   900  0JH900     -0.1953
     22  C22      -31.6100   13.0110  -20.3490 C.2   900  0JH900      0.0337
     23  C23      -31.4860   12.9170  -18.8560 C.ar  900  0JH900      0.0001
     24  C24      -30.4330   13.4750  -18.1130 C.ar  900  0JH900     -0.0005
     25  C25      -30.3150   13.3180  -16.7280 C.ar  900  0JH900     -0.0043
     26  C26      -31.2440   12.5820  -16.0020 C.ar  900  0JH900     -0.0218
     27  C27      -31.1850   12.3740  -14.5200 C.3   900  0JH900      0.0310
     28  C28      -32.2900   12.0090  -16.7220 C.ar  900  0JH900     -0.0043
     29  C29      -32.4010   12.1630  -18.1040 C.ar  900  0JH900     -0.0005
     30  N30      -32.8220   13.9760  -23.6660 N.2   900  0JH900     -0.0107
     31  C31      -33.7660   14.8990  -23.4050 C.3   900  0JH900      0.5248
     32  N32      -34.1750   15.3490  -22.1890 N.2   900  0JH900     -0.0027
@<TRIPOS>BOND
     1     8     9    1
     2     8     7    1
     3     7     6    1
     4     6     5    1
     5    30    31    1
     6    30     4    2
     7    31    32    1
     8     5     4    1
     9     5    10    1
    10     4     3    1
    11    32     2    2
    12    16    15    1
    13    12    20    1
    14    12    13    1
    15    12    11    1
    16    20    21    3
    17    14    13    1
    18    14    15    1
    19    10    11    1
    20    10    22    2
    21     3     2    1
    22     3    22    1
    23    17    15    1
    24    13    19    2
    25     2     1    1
    26    15    18    1
    27    22    23    1
    28    23    24   ar
    29    23    29   ar
    30    24    25   ar
    31    29    28   ar
    32    25    26   ar
    33    28    26   ar
    34    26    27    1
