@<TRIPOS>MOLECULE
4d9w_X32_A_1.pdb
 35 36 0 0 0
SMALL
GASTEIGER

@<TRIPOS>ATOM
      1  C3        15.3020   40.8060  -12.7410 C.ar  401  X32401     -0.0007
      2  C2        16.5540   40.3640  -13.1670 C.ar  401  X32401     -0.0002
      3  C1        17.6900   40.5450  -12.3830 C.ar  401  X32401     -0.0000
      4  C6        17.5610   41.1810  -11.1480 C.ar  401  X32401     -0.0002
      5  C5        16.3100   41.6140  -10.7130 C.ar  401  X32401     -0.0007
      6  C4        15.1760   41.4250  -11.5070 C.ar  401  X32401      0.0213
      7  C7        13.8170   41.9030  -11.0500 C.3   401  X32401      0.2368
      8  O8        13.0180   40.9880  -10.2990 O.3   401  X32401     -0.4285
      9  C9        12.9890   41.1360   -8.8730 C.2   401  X32401      0.4220
     10  O22       13.7190   41.9660   -8.3330 O.2   401  X32401     -0.2245
     11  N10       12.1950   40.3330   -8.2000 N.am  401  X32401     -0.1565
     12  C11       12.0840   40.3840   -6.7690 C.3   401  X32401      0.2238
     13  P12       11.5540   38.8070   -6.0750 P.3   401  X32401      0.3472
     14  O24       10.2270   38.3620   -6.6060 O.2   401  X32401     -0.2668
     15  O23       12.6530   37.7930   -6.2610 O.3   401  X32401     -0.1484
     16  N13       11.3380   39.2210   -4.4730 N.3   401  X32401     -0.1352
     17  C14       10.1820   38.7660   -3.6820 C.3   401  X32401      0.1594
     18  C15        8.9430   39.5830   -3.9520 C.2   401  X32401      0.2582
     19  O29        7.8320   39.0430   -3.9340 O.2   401  X32401     -0.2718
     20  C25       10.5710   38.8860   -2.2150 C.3   401  X32401      0.0273
     21  C26        9.5010   38.3580   -1.2610 C.3   401  X32401      0.0019
     22  C27        9.3110   36.8430   -1.3540 C.3   401  X32401      0.0001
     23  C28        9.8510   38.7850    0.1550 C.3   401  X32401      0.0001
     24  N16        9.1240   40.8760   -4.2210 N.am  401  X32401     -0.1941
     25  C17        7.9450   41.6900   -4.5330 C.3   401  X32401      0.2021
     26  C18        8.2660   42.7730   -5.5140 C.2   401  X32401      0.3845
     27  O37        7.3100   43.4150   -6.0090 O.co2 401  X32401     -0.2437
     28  C30        7.2660   42.1950   -3.2740 C.3   401  X32401      0.0596
     29  C31        8.1250   43.2370   -2.6110 C.ar  401  X32401     -0.0199
     30  C36        8.0610   44.5700   -3.0230 C.ar  401  X32401     -0.0042
     31  C32        8.9260   42.8560   -1.5640 C.ar  401  X32401     -0.0042
     32  C35        8.8460   45.5240   -2.3940 C.ar  401  X32401     -0.0003
     33  C33        9.7070   43.8050   -0.9230 C.ar  401  X32401     -0.0003
     34  C34        9.6670   45.1360   -1.3420 C.ar  401  X32401     -0.0000
     35  O19        9.4770   42.9390   -5.8390 O.co2 401  X32401     -0.2437
@<TRIPOS>BOND
     1     2     1   ar
     2     2     3   ar
     3     1     6   ar
     4     3     4   ar
     5     6     7    1
     6     6     5   ar
     7     4     5   ar
     8     7     8    1
     9     8     9    1
    10     9    10    2
    11     9    11   am
    12    11    12    1
    13    12    13    1
    14    14    13    2
    15    15    13    1
    16    13    16    1
    17    27    26   ar
    18    35    26   ar
    19    26    25    1
    20    25    24    1
    21    25    28    1
    22    16    17    1
    23    24    18   am
    24    18    19    2
    25    18    17    1
    26    17    20    1
    27    28    29    1
    28    30    29   ar
    29    30    32   ar
    30    29    31   ar
    31    32    34   ar
    32    20    21    1
    33    31    33   ar
    34    22    21    1
    35    34    33   ar
    36    21    23    1
