@<TRIPOS>MOLECULE
4da0_GNG_A_1.pdb
 19 21 0 0 0
SMALL
GASTEIGER

@<TRIPOS>ATOM
      1  O5'       -4.9140  -51.7390  -23.4890 O.3   301  GNG301     -0.2176
      2  C5'       -4.9250  -52.7080  -22.4290 C.3   301  GNG301      0.2141
      3  C4'       -5.9810  -52.3770  -21.3760 C.3   301  GNG301      0.1802
      4  O4'       -7.2310  -52.0980  -21.9940 O.3   301  GNG301     -0.3346
      5  C1'       -8.1070  -53.2260  -21.9450 C.3   301  GNG301      0.1981
      6  N9        -8.2510  -53.6760  -23.3660 N.pl3 301  GNG301     -0.2374
      7  C8        -9.0030  -52.9730  -24.2350 C.3   301  GNG301      0.2245
      8  N7        -9.0010  -53.5290  -25.4650 N.2   301  GNG301     -0.2322
      9  C5        -8.2230  -54.6210  -25.4170 C.2   301  GNG301      0.2182
     10  C4        -7.7140  -54.7270  -24.0360 C.2   301  GNG301      0.2299
     11  N3        -6.8880  -55.7800  -23.7510 N.2   301  GNG301     -0.3074
     12  C2        -6.5410  -56.7000  -24.6950 C.1   301  GNG301      0.2531
     13  N1        -6.9880  -56.6430  -25.9730 N.2   301  GNG301     -0.2485
     14  C6        -7.8130  -55.6550  -26.3990 C.1   301  GNG301      0.2372
     15  O6        -8.2530  -55.6060  -27.6940 O.2   301  GNG301     -0.2069
     16  N2        -5.7230  -57.7230  -24.3660 N.pl3 301  GNG301     -0.0226
     17  C2'       -7.5160  -54.2250  -20.9590 C.3   301  GNG301      0.0865
     18  C3'       -6.2720  -53.5340  -20.4420 C.3   301  GNG301      0.1858
     19  O3'       -6.5680  -52.9560  -19.1790 O.3   301  GNG301     -0.2203
@<TRIPOS>BOND
     1    15    14    2
     2    14    13    2
     3    14     9    1
     4    13    12    2
     5     8     9    2
     6     8     7    1
     7     9    10    1
     8    12    16    1
     9    12    11    2
    10     7     6    1
    11    10    11    2
    12    10     6    1
    13     1     2    1
    14     6     5    1
    15     2     3    1
    16     4     5    1
    17     4     3    1
    18     5    17    1
    19     3    18    1
    20    17    18    1
    21    18    19    1
