@<TRIPOS>MOLECULE
4da4_SAH_A_1.pdb
 26 28 0 0 0
SMALL
GASTEIGER

@<TRIPOS>ATOM
      1  N          9.7270    4.5220   -5.5620 N.3   1701  SAH1701    -0.1208
      2  CA         9.2850    4.1150   -6.8980 C.3   1701  SAH1701     0.1952
      3  CB         8.4210    2.8430   -6.8760 C.3   1701  SAH1701     0.0422
      4  CG         8.7060    1.8050   -5.7840 C.3   1701  SAH1701     0.0597
      5  SD         7.7590    0.2730   -6.0370 S.3   1701  SAH1701    -0.1375
      6  C          8.5920    5.2460   -7.6660 C.2   1701  SAH1701     0.3819
      7  O          7.9660    5.0120   -8.7100 O.co2 1701  SAH1701    -0.2441
      8  OXT        8.6440    6.4100   -7.2570 O.co2 1701  SAH1701    -0.2441
      9  C5'        9.1090   -0.8110   -5.4990 C.3   1701  SAH1701     0.0899
     10  C4'        9.3030   -1.9120   -6.5340 C.3   1701  SAH1701     0.1630
     11  O4'       10.3340   -2.8300   -6.2090 O.3   1701  SAH1701    -0.3153
     12  C3'        8.0280   -2.7270   -6.6860 C.3   1701  SAH1701     0.2168
     13  O3'        7.3110   -2.2860   -7.8260 O.3   1701  SAH1701    -0.2175
     14  C2'        8.5110   -4.1740   -6.7720 C.3   1701  SAH1701     0.2569
     15  O2'        8.0180   -4.8540   -7.9060 O.3   1701  SAH1701    -0.2130
     16  C1'       10.0320   -4.0720   -6.8200 C.3   1701  SAH1701     0.3185
     17  N9        10.6570   -5.2400   -6.1550 N.pl3 1701  SAH1701    -0.1439
     18  C8        10.0690   -6.0630   -5.2200 C.3   1701  SAH1701     0.3377
     19  N7        10.9590   -7.0220   -4.8680 N.2   1701  SAH1701    -0.2095
     20  C5        12.1060   -6.8310   -5.5610 C.2   1701  SAH1701     0.2526
     21  C6        13.3180   -7.5180   -5.5760 C.2   1701  SAH1701     0.4393
     22  N6        13.4920   -8.5880   -4.7990 N.pl3 1701  SAH1701     0.2180
     23  N1        14.3390   -7.0890   -6.4010 N.2   1701  SAH1701     0.0021
     24  C2        14.1490   -5.9800   -7.2070 C.3   1701  SAH1701     0.5254
     25  N3        12.9430   -5.2990   -7.1900 N.2   1701  SAH1701    -0.0055
     26  C4        11.9320   -5.7180   -6.3800 C.2   1701  SAH1701     0.3518
@<TRIPOS>BOND
     1     7     6   ar
     2    15    14    1
     3    13    12    1
     4     6     8   ar
     5     6     2    1
     6    24    25    1
     7    24    23    1
     8    25    26    2
     9     2     3    1
    10     2     1    1
    11     3     4    1
    12    16    14    1
    13    16    11    1
    14    16    17    1
    15    14    12    1
    16    12    10    1
    17    10    11    1
    18    10     9    1
    19    23    21    2
    20    26    17    1
    21    26    20    1
    22    17    18    1
    23     5     4    1
    24     5     9    1
    25    21    20    1
    26    21    22    1
    27    20    19    2
    28    18    19    1
