@<TRIPOS>MOLECULE
4da6_GA2_A_1.pdb
 18 19 0 0 0
SMALL
GASTEIGER

@<TRIPOS>ATOM
      1  N1       -52.6380   22.6540   26.0130 N.2   301  GA2301     -0.2485
      2  C2       -52.4270   22.8440   24.6840 C.1   301  GA2301      0.2531
      3  C4       -51.4450   20.6880   24.4130 C.2   301  GA2301      0.2300
      4  C8       -50.6910   18.6760   24.9250 C.3   301  GA2301      0.2246
      5  C4'      -49.4870   21.3080   20.5370 C.3   301  GA2301      0.2142
      6  O4'      -48.6390   20.6050   19.6400 O.3   301  GA2301     -0.2176
      7  C3'      -47.5940   21.7150   22.1540 C.3   301  GA2301      0.2142
      8  O3'      -47.2300   21.7480   23.5280 O.3   301  GA2301     -0.2176
      9  C2'      -49.0170   21.2140   21.9880 C.3   301  GA2301      0.1828
     10  O1'      -49.1000   19.8500   22.3960 O.3   301  GA2301     -0.3313
     11  C1'      -50.4590   19.4250   22.5190 C.3   301  GA2301      0.2438
     12  N9       -50.8530   19.5860   23.9230 N.pl3 301  GA2301     -0.2341
     13  N3       -51.8200   21.9030   23.9080 N.2   301  GA2301     -0.3074
     14  N2       -52.8200   24.0390   24.1650 N.pl3 301  GA2301     -0.0226
     15  C6       -52.2620   21.4880   26.6210 C.1   301  GA2301      0.2372
     16  O6       -52.4620   21.2780   27.8510 O.2   301  GA2301     -0.2069
     17  C5       -51.6500   20.4250   25.8290 C.2   301  GA2301      0.2182
     18  N7       -51.1610   19.1770   26.0840 N.2   301  GA2301     -0.2322
@<TRIPOS>BOND
     1     6     5    1
     2     5     9    1
     3     9     7    1
     4     9    10    1
     5     7     8    1
     6    10    11    1
     7    11    12    1
     8    13     3    2
     9    13     2    2
    10    12     3    1
    11    12     4    1
    12    14     2    1
    13     3    17    1
    14     2     1    2
    15     4    18    1
    16    17    18    2
    17    17    15    1
    18     1    15    2
    19    15    16    2
