@<TRIPOS>MOLECULE
4da7_AC2_A_1.pdb
 16 17 0 0 0
SMALL
GASTEIGER

@<TRIPOS>ATOM
      1  C3'      -49.7810   20.0940   20.4550 C.3   301  AC2301      0.2141
      2  O3'      -48.6280   20.4310   19.6620 O.3   301  AC2301     -0.2176
      3  C2'      -49.6780   20.8240   21.7800 C.3   301  AC2301      0.1796
      4  O1'      -49.6300   19.8720   22.8440 O.3   301  AC2301     -0.3314
      5  C1'      -50.9260   19.5500   23.3640 C.3   301  AC2301      0.2438
      6  N9       -51.1570   20.1370   24.6940 N.pl3 301  AC2301     -0.2341
      7  C8       -50.9180   19.5630   25.9030 C.3   301  AC2301      0.2246
      8  N7       -51.2570   20.3850   26.9420 N.2   301  AC2301     -0.2322
      9  C5       -51.7410   21.5250   26.4250 C.2   301  AC2301      0.2182
     10  C6       -52.2750   22.8220   26.9540 C.1   301  AC2301      0.2372
     11  O6       -52.3860   23.1190   28.1760 O.2   301  AC2301     -0.2069
     12  N1       -52.6600   23.7220   26.0550 N.2   301  AC2301     -0.2485
     13  C2       -52.5760   23.4950   24.7420 C.1   301  AC2301      0.2531
     14  N2       -52.9890   24.4810   23.9400 N.pl3 301  AC2301     -0.0226
     15  N3       -52.0990   22.3600   24.1760 N.2   301  AC2301     -0.3074
     16  C4       -51.6740   21.3480   24.9500 C.2   301  AC2301      0.2300
@<TRIPOS>BOND
     1     2     1    1
     2     1     3    1
     3     3     4    1
     4     4     5    1
     5     5     6    1
     6    14    13    1
     7    15    13    2
     8    15    16    2
     9     6    16    1
    10     6     7    1
    11    13    12    2
    12    16     9    1
    13     7     8    1
    14    12    10    2
    15     9     8    2
    16     9    10    1
    17    10    11    2
