@<TRIPOS>MOLECULE
4da8_BG2_A_1.pdb
 21 23 0 0 0
SMALL
GASTEIGER

@<TRIPOS>ATOM
      1 BR        -49.2720   17.6230   24.4760 Br    301  BG2301      0.0040
      2  N1       -52.8320   22.5940   26.0520 N.2   301  BG2301     -0.2475
      3  C2       -52.6940   22.9290   24.7510 C.1   301  BG2301      0.2532
      4  N2       -53.2720   24.0410   24.2900 N.pl3 301  BG2301     -0.0226
      5  N3       -51.9970   22.1630   23.8930 N.2   301  BG2301     -0.3059
      6  C4       -51.3970   21.0190   24.3130 C.2   301  BG2301      0.2471
      7  C5       -51.5360   20.6640   25.6660 C.2   301  BG2301      0.2725
      8  C6       -52.2530   21.4550   26.5230 C.1   301  BG2301      0.2499
      9  O6       -52.3180   21.0340   27.8200 O.2   301  BG2301     -0.2058
     10  N7       -50.8850   19.5140   25.9210 N.2   301  BG2301     -0.3632
     11  C8       -50.3870   19.2270   24.7250 C.2   301  BG2301      0.2267
     12  N9       -50.6390   20.0630   23.7260 N.pl3 301  BG2301     -0.2036
     13  C1'      -50.1450   19.8190   22.3430 C.3   301  BG2301      0.2340
     14  C2'      -50.7500   20.6940   21.2890 C.3   301  BG2301      0.2314
     15  O2'      -51.2630   19.8710   20.2510 O.3   301  BG2301     -0.2157
     16  C3'      -49.5960   21.4450   20.7280 C.3   301  BG2301      0.2159
     17  O3'      -49.4210   20.8550   19.4720 O.3   301  BG2301     -0.2175
     18  C4'      -48.3770   21.1180   21.5380 C.3   301  BG2301      0.1829
     19  O4'      -48.7430   20.0010   22.3280 O.3   301  BG2301     -0.3322
     20  C5'      -47.9160   22.2480   22.4610 C.3   301  BG2301      0.2142
     21  O5'      -47.3300   21.6970   23.6550 O.3   301  BG2301     -0.2176
@<TRIPOS>BOND
     1    17    16    1
     2    15    14    1
     3    16    14    1
     4    16    18    1
     5    14    13    1
     6    18    19    1
     7    18    20    1
     8    19    13    1
     9    13    12    1
    10    20    21    1
    11    12     6    1
    12    12    11    1
    13     5     6    2
    14     5     3    2
    15     4     3    1
    16     6     7    1
    17     1    11    1
    18    11    10    2
    19     3     2    2
    20     7    10    2
    21     7     8    1
    22     2     8    2
    23     8     9    2
