@<TRIPOS>MOLECULE
4daa_PLP_A_1.pdb
 15 15 0 0 0
SMALL
GASTEIGER

@<TRIPOS>ATOM
      1  N1        18.1050   -4.0260   16.0630 N.ar  285  PLP285     -0.2452
      2  C2        16.8640   -3.9630   16.6170 C.ar  285  PLP285      0.0978
      3  C2A       15.8800   -2.9380   16.0610 C.3   285  PLP285      0.0555
      4  C3        16.5840   -4.8660   17.6830 C.ar  285  PLP285      0.2049
      5  O3        15.3370   -4.7580   18.2020 O.3   285  PLP285     -0.2857
      6  C4        17.5420   -5.7940   18.1540 C.ar  285  PLP285      0.0182
      7  C4A       17.2140   -6.7090   19.2770 C.3   285  PLP285      0.0342
      8  C5        18.8210   -5.7560   17.4670 C.ar  285  PLP285      0.0261
      9  C6        19.0750   -4.8790   16.4470 C.ar  285  PLP285      0.0965
     10  C5A       20.0060   -6.6950   17.8210 C.3   285  PLP285      0.1815
     11  O4P       20.5580   -6.4910   19.0900 O.3   285  PLP285     -0.2653
     12  P         21.3380   -7.6900   19.6980 P.3   285  PLP285      0.5329
     13  O1P       20.6020   -8.9410   19.4480 O.3   285  PLP285     -0.1145
     14  O2P       21.4910   -7.4510   21.2210 O.3   285  PLP285     -0.1145
     15  O3P       22.6480   -7.6910   19.0350 O.2   285  PLP285     -0.2224
@<TRIPOS>BOND
     1     3     2    1
     2     1     9   ar
     3     1     2   ar
     4     9     8   ar
     5     2     4   ar
     6     8    10    1
     7     8     6   ar
     8     4     6   ar
     9     4     5    1
    10    10    11    1
    11     6     7    1
    12    15    12    2
    13    11    12    1
    14    13    12    1
    15    12    14    1
