@<TRIPOS>MOLECULE
4dab_HPA_A_1.pdb
 10 11 0 0 0
SMALL
GASTEIGER

@<TRIPOS>ATOM
      1  N1       -52.8810   24.1300   25.2350 N.2   301  HPA301     -0.1726
      2  C2       -52.6390   23.5750   23.9980 C.3   301  HPA301      0.2725
      3  N3       -52.1500   22.2980   23.8760 N.2   301  HPA301     -0.1902
      4  C4       -51.8970   21.5490   24.9590 C.1   301  HPA301      0.0598
      5  C5       -52.1290   22.0740   26.2210 C.2   301  HPA301      0.2226
      6  C6       -52.6250   23.3800   26.3560 C.1   301  HPA301      0.1796
      7  O6       -53.0110   23.8240   27.4450 O.2   301  HPA301     -0.2200
      8  N7       -51.7900   21.1150   27.1040 N.2   301  HPA301     -0.2230
      9  C8       -51.3740   20.0310   26.4140 C.3   301  HPA301      0.2622
     10  N9       -51.4380   20.2980   25.0990 N.2   301  HPA301     -0.1910
@<TRIPOS>BOND
     1     3     2    1
     2     3     4    2
     3     2     1    1
     4     4    10    2
     5     4     5    1
     6    10     9    1
     7     1     6    2
     8     5     6    1
     9     5     8    2
    10     6     7    2
    11     9     8    1
