@<TRIPOS>MOLECULE
4dae_6CR_A_1.pdb
 20 22 0 0 0
SMALL
GASTEIGER

@<TRIPOS>ATOM
      1  N1       -52.2760   22.1160   25.5680 N.2   301  6CR301     -0.3123
      2  C2       -52.0670   22.5060   24.3040 C.1   301  6CR301      0.2436
      3  N3       -51.4340   21.6940   23.4050 N.2   301  6CR301     -0.3086
      4  C4       -50.9760   20.4620   23.7440 C.2   301  6CR301      0.2210
      5  C5       -51.1980   19.9930   25.1190 C.2   301  6CR301      0.1643
      6  C6       -51.8870   20.9130   26.0270 C.2   301  6CR301      0.2235
      7  N7       -50.6930   18.7640   25.2140 N.2   301  6CR301     -0.2406
      8  C8       -50.1760   18.4480   23.9980 C.3   301  6CR301      0.2238
      9  N9       -50.3690   19.4520   23.1200 N.pl3 301  6CR301     -0.2359
     10  C1'      -49.8760   19.4130   21.7490 C.3   301  6CR301      0.2293
     11 CL1       -52.1560   20.4710   27.7470 Cl    301  6CR301     -0.0455
     12  C2'      -50.4240   20.5200   20.8610 C.3   301  6CR301      0.2310
     13  O2'      -51.1470   19.9720   19.7560 O.3   301  6CR301     -0.2158
     14  N20      -52.5080   23.7370   23.9690 N.pl3 301  6CR301     -0.0232
     15  C3'      -49.2140   21.2820   20.3760 C.3   301  6CR301      0.2159
     16  O3'      -48.7890   20.6270   19.1750 O.3   301  6CR301     -0.2175
     17  C4'      -48.1200   21.0030   21.3980 C.3   301  6CR301      0.1828
     18  O4'      -48.5300   19.8020   22.0680 O.3   301  6CR301     -0.3325
     19  C5'      -47.9280   22.1380   22.4040 C.3   301  6CR301      0.2142
     20  O5'      -46.9040   21.7850   23.3360 O.3   301  6CR301     -0.2176
@<TRIPOS>BOND
     1    16    15    1
     2    13    12    1
     3    15    12    1
     4    15    17    1
     5    12    10    1
     6    17    18    1
     7    17    19    1
     8    10    18    1
     9    10     9    1
    10    19    20    1
    11     9     4    1
    12     9     8    1
    13     3     4    2
    14     3     2    2
    15     4     5    1
    16    14     2    1
    17     8     7    1
    18     2     1    2
    19     5     7    2
    20     5     6    1
    21     1     6    2
    22     6    11    1
