@<TRIPOS>MOLECULE
4daf_0J4_A_1.pdb
 18 19 0 0 0
SMALL
GASTEIGER

@<TRIPOS>ATOM
      1  O1       -14.5690   27.7820    3.8590 O.2   301  0J4301     -0.2077
      2  C4       -14.7450   26.3930    4.0550 C.1   301  0J4301      0.2296
      3  N1       -15.4440   25.6880    3.1510 N.2   301  0J4301     -0.2488
      4  C1       -15.6050   24.3670    3.2500 C.1   301  0J4301      0.2608
      5  N5       -16.3480   23.6490    2.2580 N.pl3 301  0J4301     -0.0220
      6  N2       -15.0880   23.7030    4.2910 N.2   301  0J4301     -0.2679
      7  C2       -14.3810   24.3350    5.2430 C.1   301  0J4301      0.1356
      8  C3       -14.1870   25.7100    5.1490 C.2   301  0J4301      0.2111
      9  C6       -13.4260   26.3190    6.2000 C.2   301  0J4301      0.2337
     10  O2       -13.2020   27.6970    6.2380 O.2   301  0J4301     -0.2837
     11  N3       -13.8790   23.6340    6.2350 N.2   301  0J4301     -0.0802
     12  N4       -13.1740   24.1900    7.2060 N.2   301  0J4301     -0.1388
     13  C5       -12.9330   25.4980    7.2220 C.2   301  0J4301      0.1319
     14  C7       -12.1280   26.1040    8.3850 C.3   301  0J4301      0.1484
     15  C10      -10.8450   26.7170    7.8530 C.3   301  0J4301      0.0184
     16  C8       -12.7820   27.1840    9.1790 C.2   301  0J4301      0.3701
     17  O4       -13.8790   26.9720    9.7510 O.co2 301  0J4301     -0.2452
     18  O3       -12.3420   28.3310    9.1300 O.co2 301  0J4301     -0.2452
@<TRIPOS>BOND
     1     5     4    1
     2     3     4    2
     3     3     2    2
     4     4     6    2
     5     1     2    2
     6     2     8    1
     7     6     7    2
     8     8     7    1
     9     8     9    2
    10     7    11    2
    11     9    10    1
    12     9    13    1
    13    11    12    1
    14    12    13    2
    15    13    14    1
    16    15    14    1
    17    14    16    1
    18    18    16   ar
    19    16    17   ar
