@<TRIPOS>MOLECULE
4dai_0J5_A_1.pdb
 17 18 0 0 0
SMALL
GASTEIGER

@<TRIPOS>ATOM
      1  O4       -13.5680   26.8550    9.8480 O.co2 301  0J5301     -0.2452
      2  C8       -12.5280   27.1500    9.1940 C.2   301  0J5301      0.3710
      3  O3       -12.0430   28.3130    9.1790 O.co2 301  0J5301     -0.2452
      4  C7       -11.8480   26.0540    8.3760 C.3   301  0J5301      0.1645
      5  C5       -12.7390   25.5090    7.2640 C.2   301  0J5301      0.1293
      6  C6       -13.2400   26.3780    6.1400 C.2   301  0J5301      0.2204
      7  O2       -12.9430   27.5880    6.0800 O.2   301  0J5301     -0.2876
      8  C3       -14.1170   25.7200    5.0980 C.3   301  0J5301      0.2795
      9  C4       -14.7190   26.4000    3.8960 C.1   301  0J5301      0.2138
     10  O1       -14.5280   27.6080    3.6670 O.2   301  0J5301     -0.2119
     11  N4       -13.0970   24.1850    7.2800 N.2   301  0J5301     -0.1394
     12  N3       -13.9260   23.5680    6.2950 N.2   301  0J5301     -0.0840
     13  C2       -14.4290   24.2500    5.2480 C.1   301  0J5301      0.1207
     14  N2       -15.2260   23.6410    4.3120 N.2   301  0J5301     -0.2716
     15  C1       -15.7420   24.3210    3.2440 C.1   301  0J5301      0.2603
     16  N5       -16.5200   23.6480    2.3640 N.pl3 301  0J5301     -0.0221
     17  N1       -15.4960   25.6590    3.0430 N.2   301  0J5301     -0.2524
@<TRIPOS>BOND
     1    16    15    1
     2    17    15    2
     3    17     9    2
     4    15    14    2
     5    10     9    2
     6     9     8    1
     7    14    13    2
     8     8    13    1
     9     8     6    1
    10    13    12    2
    11     7     6    2
    12     6     5    1
    13    12    11    1
    14     5    11    2
    15     5     4    1
    16     4     2    1
    17     3     2   ar
    18     2     1   ar
