@<TRIPOS>MOLECULE
4daj_0HK_A_1.pdb
 26 30 0 0 0
SMALL
GASTEIGER

@<TRIPOS>ATOM
      1  C28      -15.9420   -7.1100  -43.2580 C.2   2000  0HK2000     0.3537
      2  O29      -16.5330   -7.8900  -43.9960 O.2   2000  0HK2000    -0.2466
      3  C31      -16.4910   -5.4430  -41.5700 C.ar  2000  0HK2000     0.0493
      4  C32      -15.4810   -4.7300  -43.6800 C.ar  2000  0HK2000     0.0493
      5  C34      -16.1000   -6.2750  -40.5450 C.ar  2000  0HK2000     0.0060
      6  C35      -16.2070   -5.8400  -39.2580 C.ar  2000  0HK2000     0.0073
      7  C36      -16.6940   -4.5770  -39.0290 C.ar  2000  0HK2000     0.0352
      8  C41      -14.3370   -4.2190  -43.1210 C.ar  2000  0HK2000     0.0060
      9  C42      -13.5840   -3.3370  -43.8190 C.ar  2000  0HK2000     0.0073
     10  C43      -13.9890   -2.9620  -45.0750 C.ar  2000  0HK2000     0.0352
     11  O10      -11.2350   -6.2350  -42.7090 O.3   2000  0HK2000    -0.3580
     12  O11      -14.7980   -7.5050  -42.5340 O.3   2000  0HK2000    -0.4503
     13  O33      -17.6960   -5.6300  -43.6120 O.3   2000  0HK2000    -0.2040
     14  S37      -17.0080   -3.9860  -40.6920 S.2   2000  0HK2000    -0.0875
     15  S44      -15.5050   -3.9110  -45.2650 S.2   2000  0HK2000    -0.0875
     16  C1       -11.3580  -10.3660  -42.8570 C.3   2000  0HK2000    -0.0954
     17  C3       -12.0070   -8.4380  -41.7030 C.3   2000  0HK2000    -0.0205
     18  C4       -13.3640   -9.0190  -41.4780 C.3   2000  0HK2000     0.0258
     19  C5       -14.2310   -8.7870  -42.6860 C.3   2000  0HK2000     0.1651
     20  C6       -13.5030   -8.8480  -44.0110 C.3   2000  0HK2000     0.0258
     21  C7       -12.1000   -8.3370  -43.8500 C.3   2000  0HK2000    -0.0205
     22  C8       -12.2680   -6.8770  -43.4480 C.3   2000  0HK2000     0.1220
     23  C9       -12.2240   -6.9590  -41.9800 C.3   2000  0HK2000     0.1220
     24  C12       -9.9480   -8.5620  -42.8820 C.3   2000  0HK2000    -0.0954
     25  C30      -16.4420   -5.7050  -43.0490 C.3   2000  0HK2000     0.2628
     26  N2       -11.3490   -8.9460  -42.8270 N.4   2000  0HK2000     0.3932
@<TRIPOS>BOND
     1    15    10   ar
     2    15     4   ar
     3    10     9   ar
     4    20    21    1
     5    20    19    1
     6     2     1    2
     7    21    22    1
     8    21    26    1
     9     9     8   ar
    10     4     8   ar
    11     4    25    1
    12    13    25    1
    13    22    11    1
    14    22    23    1
    15     1    25    1
    16     1    12    1
    17    25     3    1
    18    24    26    1
    19    16    26    1
    20    26    17    1
    21    11    23    1
    22    19    12    1
    23    19    18    1
    24    23    17    1
    25    17    18    1
    26     3    14   ar
    27     3     5   ar
    28    14     7   ar
    29     5     6   ar
    30     6     7   ar
