@<TRIPOS>MOLECULE
4dan_2FA_A_1.pdb
 20 22 0 0 0
SMALL
GASTEIGER

@<TRIPOS>ATOM
      1  O5'       41.7990   30.6510   22.7260 O.3   301  2FA301     -0.2176
      2  C5'       42.6410   31.6290   22.0980 C.3   301  2FA301      0.2142
      3  C4'       41.8860   32.3510   20.9850 C.3   301  2FA301      0.1828
      4  O4'       41.0940   33.3980   21.5300 O.3   301  2FA301     -0.3325
      5  C1'       41.7650   34.6540   21.4700 C.3   301  2FA301      0.2293
      6  N9        42.1890   34.9690   22.8630 N.pl3 301  2FA301     -0.2359
      7  C4        43.4190   35.0840   23.4200 C.2   301  2FA301      0.2224
      8  N3        44.6940   34.9540   22.9530 N.2   301  2FA301     -0.3001
      9  C2        45.7600   35.1250   23.7760 C.1   301  2FA301      0.2998
     10  F         47.0070   34.9960   23.3140 F     301  2FA301     -0.0976
     11  N1        45.6010   35.4350   25.0790 N.2   301  2FA301     -0.2971
     12  C6        44.3680   35.5800   25.5980 C.2   301  2FA301      0.2545
     13  N6        44.2650   35.8900   26.9110 N.pl3 301  2FA301     -0.0903
     14  C5        43.2500   35.4180   24.7700 C.2   301  2FA301      0.1707
     15  N7        41.9160   35.4920   24.9880 N.2   301  2FA301     -0.2401
     16  C8        41.2830   35.2150   23.8200 C.3   301  2FA301      0.2238
     17  C2'       42.8710   34.4790   20.4490 C.3   301  2FA301      0.2310
     18  O2'       42.6610   35.2770   19.3030 O.3   301  2FA301     -0.2158
     19  C3'       42.8280   33.0360   20.0250 C.3   301  2FA301      0.2159
     20  O3'       42.3300   32.9340   18.6980 O.3   301  2FA301     -0.2175
@<TRIPOS>BOND
     1    20    19    1
     2    18    17    1
     3    19    17    1
     4    19     3    1
     5    17     5    1
     6     3     4    1
     7     3     2    1
     8     5     4    1
     9     5     6    1
    10     2     1    1
    11     6     7    1
    12     6    16    1
    13     8     7    2
    14     8     9    2
    15    10     9    1
    16     7    14    1
    17     9    11    2
    18    16    15    1
    19    14    15    2
    20    14    12    1
    21    11    12    2
    22    12    13    1
