@<TRIPOS>MOLECULE
4dao_ADE_A_1.pdb
 10 11 0 0 0
SMALL
GASTEIGER

@<TRIPOS>ATOM
      1  N9       -52.5740  -19.6280  -23.7030 N.2   301  ADE301     -0.1914
      2  C8       -52.3330  -18.8480  -24.7980 C.3   301  ADE301      0.2618
      3  N7       -52.6080  -19.4580  -25.9370 N.2   301  ADE301     -0.2267
      4  C5       -53.0380  -20.7190  -25.5280 C.2   301  ADE301      0.2303
      5  C6       -53.4800  -21.8400  -26.2450 C.2   301  ADE301      0.4393
      6  N6       -53.5260  -21.7850  -27.5710 N.pl3 301  ADE301      0.2185
      7  N1       -53.8600  -22.9690  -25.5650 N.2   301  ADE301     -0.0265
      8  C2       -53.8000  -22.9550  -24.2150 C.3   301  ADE301      0.4008
      9  N3       -53.4050  -21.9360  -23.4280 N.2   301  ADE301     -0.1640
     10  C4       -53.0430  -20.8430  -24.1520 C.1   301  ADE301      0.0579
@<TRIPOS>BOND
     1     6     5    1
     2     5     7    2
     3     5     4    1
     4     3     4    2
     5     3     2    1
     6     7     8    1
     7     4    10    1
     8     2     1    1
     9     8     9    1
    10    10     1    2
    11    10     9    2
