@<TRIPOS>MOLECULE
4dar_TBN_A_1.pdb
 19 21 0 0 0
SMALL
GASTEIGER

@<TRIPOS>ATOM
      1  O5'       42.2290   30.2870   23.7420 O.3   301  TBN301     -0.2176
      2  C5'       42.8570   30.4580   22.4620 C.3   301  TBN301      0.2143
      3  C4'       42.1120   31.4980   21.6310 C.3   301  TBN301      0.1851
      4  O4'       41.3380   32.3510   22.4800 O.3   301  TBN301     -0.3132
      5  C1'       41.7970   33.7090   22.4840 C.3   301  TBN301      0.3212
      6  N9        42.2560   33.9750   23.8800 N.pl3 301  TBN301     -0.1468
      7  C8        41.3320   34.1390   24.8660 C.2   301  TBN301      0.1741
      8  C7        41.9870   34.3420   26.0510 C.2   301  TBN301      0.0420
      9  C5        43.3690   34.2820   25.7520 C.3   301  TBN301      0.2444
     10  C6        44.4980   34.4080   26.5610 C.2   301  TBN301      0.4064
     11  N1        45.7360   34.3020   25.9920 N.2   301  TBN301     -0.0027
     12  C2        45.8680   34.0800   24.6670 C.3   301  TBN301      0.5248
     13  N3        44.7840   33.9500   23.8700 N.2   301  TBN301     -0.0106
     14  C4        43.5220   34.0480   24.3890 C.2   301  TBN301      0.3215
     15  N6        44.3490   34.6390   27.9040 N.pl3 301  TBN301      0.2117
     16  C2'       42.8040   33.8100   21.3410 C.3   301  TBN301      0.2573
     17  O2'       42.2490   34.6310   20.3080 O.3   301  TBN301     -0.2130
     18  C3'       43.0430   32.3930   20.8340 C.3   301  TBN301      0.2186
     19  O3'       42.7290   32.2390   19.4490 O.3   301  TBN301     -0.2174
@<TRIPOS>BOND
     1    19    18    1
     2    17    16    1
     3    18    16    1
     4    18     3    1
     5    16     5    1
     6     3     2    1
     7     3     4    1
     8     2     1    1
     9     4     5    1
    10     5     6    1
    11    13    14    2
    12    13    12    1
    13     6    14    1
    14     6     7    1
    15    14     9    1
    16    12    11    1
    17     7     8    2
    18     9     8    1
    19     9    10    1
    20    11    10    2
    21    10    15    1
