@<TRIPOS>MOLECULE
4dau_III_B_1.pdb
 49 49 0 0 0
SMALL
GASTEIGER

@<TRIPOS>ATOM
      1  N         12.1470   11.0280   14.7250 N.3     8  ALA8       -0.1231
      2  CA        12.2660   12.4630   14.2090 C.3     8  ALA8        0.1694
      3  C         13.0090   12.5700   12.8830 C.2     8  ALA8        0.2592
      4  O         14.1040   12.0560   12.7160 O.2     8  ALA8       -0.2718
      5  CB        12.9230   13.3590   15.2080 C.3     8  ALA8        0.0304
      6  N         12.4170   13.2860   11.9480 N.am    9  MET9       -0.1965
      7  CA        12.9910   13.4160   10.6430 C.3     9  MET9        0.1736
      8  C         13.9130   14.6150   10.5760 C.2     9  MET9        0.2617
      9  O         13.5580   15.7380   10.9660 O.2     9  MET9       -0.2715
     10  CB        11.8750   13.5710    9.5870 C.3     9  MET9        0.0427
     11  CG        12.2480   13.0110    8.2510 C.3     9  MET9        0.0599
     12  SD        12.1680   11.1760    8.2480 S.3     9  MET9       -0.1393
     13  CE        10.4400   10.8180    8.5980 C.3     9  MET9        0.0692
     14  N         15.0930   14.3640   10.0170 N.am   10  SER10      -0.1937
     15  CA        15.9810   15.4250    9.6720 C.3    10  SER10       0.2027
     16  CB        17.4320   15.0670   10.0850 C.3    10  SER10       0.1847
     17  OG        17.8470   13.9690    9.3070 O.3    10  SER10      -0.2679
     18  C         15.8350   15.7390    8.1780 C.2    10  SER10       0.2642
     19  O         15.1330   15.0380    7.4520 O.2    10  SER10      -0.2714
     20  P         19.3230   13.5180    9.6660 P.3    10  SER10       0.5327
     21  O1P       19.5730   12.2950    8.7720 O.2    10  SER10      -0.2224
     22  O2P       19.3890   13.1810   11.1940 O.3    10  SER10      -0.1145
     23  O3P       20.3370   14.7080    9.3620 O.3    10  SER10      -0.1145
     24  N         16.4720   16.8210    7.7400 N.am   11  PHE11      -0.1959
     25  CA        16.3230   17.3400    6.4120 C.3    11  PHE11       0.1771
     26  C         16.7150   16.2620    5.4190 C.2    11  PHE11       0.2619
     27  O         17.7590   15.5610    5.5870 O.2    11  PHE11      -0.2715
     28  CB        17.2240   18.5430    6.2310 C.3    11  PHE11       0.0574
     29  CG        17.0250   19.2580    4.9400 C.ar   11  PHE11      -0.0200
     30  CD1       15.7480   19.5580    4.4770 C.ar   11  PHE11      -0.0042
     31  CD2       18.1310   19.6750    4.1880 C.ar   11  PHE11      -0.0042
     32  CE1       15.5720   20.2360    3.2720 C.ar   11  PHE11      -0.0003
     33  CE2       17.9740   20.3860    2.9980 C.ar   11  PHE11      -0.0003
     34  CZ        16.6790   20.6530    2.5320 C.ar   11  PHE11      -0.0000
     35  N         15.8670   16.1000    4.4080 N.am   12  GLN12      -0.1963
     36  CA        15.9780   14.9310    3.5560 C.3    12  GLN12       0.1733
     37  C         16.6880   15.4550    2.3410 C.2    12  GLN12       0.2617
     38  O         16.2070   15.4130    1.2130 O.2    12  GLN12      -0.2715
     39  CB        14.6090   14.2510    3.3650 C.3    12  GLN12       0.0408
     40  CG        14.2570   13.4120    4.6530 C.3    12  GLN12       0.0908
     41  CD        15.4340   12.4500    5.1010 C.2    12  GLN12       0.2608
     42  OE1       15.8130   11.5650    4.3450 O.2    12  GLN12      -0.2717
     43  NE2       15.9740   12.6200    6.3160 N.am   12  GLN12      -0.0878
     44  N         17.8730   15.9620    2.6610 N.am   13  SER13      -0.1950
     45  CA        18.6220   16.9570    1.9060 C.3    13  SER13       0.1924
     46  C         18.2710   17.1250    0.4110 C.2    13  SER13       0.2314
     47  O         17.5420   18.0670    0.0510 O.2    13  SER13      -0.2863
     48  CB        20.1390   16.8180    2.1880 C.3    13  SER13       0.2116
     49  OG        20.9050   17.1120    1.0220 O.3    13  SER13      -0.2180
@<TRIPOS>BOND
     1    47    46    2
     2    46    45    1
     3    49    48    1
     4    38    37    2
     5    45    48    1
     6    45    44    1
     7    37    44   am
     8    37    36    1
     9    34    33   ar
    10    34    32   ar
    11    33    31   ar
    12    32    30   ar
    13    39    36    1
    14    39    40    1
    15    36    35    1
    16    31    29   ar
    17    42    41    2
    18    35    26   am
    19    30    29   ar
    20    40    41    1
    21    29    28    1
    22    41    43   am
    23    26    27    2
    24    26    25    1
    25    28    25    1
    26    25    24    1
    27    19    18    2
    28    24    18   am
    29    18    15    1
    30    12    11    1
    31    12    13    1
    32    11    10    1
    33    21    20    2
    34    17    20    1
    35    17    16    1
    36    23    20    1
    37    10     7    1
    38    20    22    1
    39    15    14    1
    40    15    16    1
    41    14     8   am
    42     8     7    1
    43     8     9    2
    44     7     6    1
    45     6     3   am
    46     4     3    2
    47     3     2    1
    48     2     1    1
    49     2     5    1
