@<TRIPOS>MOLECULE
4daw_0H2_A_1.pdb
 30 36 0 0 0
SMALL
GASTEIGER

@<TRIPOS>ATOM
      1  O47       16.8000   35.7470  -12.7020 O.2   601  0H2601      0.0000
      2  C45       15.6160   35.2540  -12.6970 C.1   601  0H2601      0.0000
      3  C26       14.9010   35.0320  -13.8700 C.ar  601  0H2601      0.0000
      4  N46       14.9590   34.9210  -11.5580 N.2   601  0H2601      0.0000
      5  C27       13.7890   34.4720  -12.0600 C.1   601  0H2601      0.0000
      6  O28       12.6570   33.9570  -11.2710 O.2   601  0H2601      0.0000
      7  C29       13.7010   34.5100  -13.4300 C.ar  601  0H2601      0.0000
      8  C30       12.6940   34.1320  -14.2910 C.ar  601  0H2601      0.0000
      9  C32       12.9560   34.3400  -15.6340 C.ar  601  0H2601      0.0000
     10  C34       14.1650   34.8500  -16.1340 C.ar  601  0H2601      0.0000
     11  C25       15.1680   35.2190  -15.2270 C.ar  601  0H2601      0.0000
     12  C35       14.3230   35.0010  -17.6320 C.3   601  0H2601      0.0000
     13  N49       13.3070   34.6290  -18.4480 N.pl3 601  0H2601      0.0000
     14  C40       13.3870   34.7270  -19.7910 C.2   601  0H2601      0.0000
     15  C39       14.5430   35.2450  -20.3860 C.2   601  0H2601      0.0000
     16  C38       15.6060   35.6450  -19.5800 C.2   601  0H2601      0.0000
     17  C37       15.4980   35.5180  -18.1910 C.2   601  0H2601      0.0000
     18 RU1        11.5940   33.7930  -17.3700 Ru    601  0H2601      0.0000
     19  N23       10.4900   35.6220  -17.5660 N.3   601  0H2601      0.0000
     20  C24        9.4380   36.4910  -17.7030 C.3   601  0H2601      0.0000
     21  S44        8.1920   37.4490  -17.8240 S.3   601  0H2601      0.0000
     22  S2        10.4220   33.0110  -19.2480 S.3   601  0H2601      0.0000
     23  C7         9.1920   32.1460  -18.5110 C.3   601  0H2601      0.0000
     24  C8         8.6390   32.8360  -17.2670 C.3   601  0H2601      0.0000
     25  S9         9.8540   32.8170  -15.9890 S.3   601  0H2601      0.0000
     26  C10       10.4160   31.1350  -15.9310 C.3   601  0H2601      0.0000
     27  C6        11.9420   31.0080  -15.8990 C.3   601  0H2601      0.0000
     28  S5        12.7770   31.6850  -17.3020 S.3   601  0H2601      0.0000
     29  C4        11.9730   30.9120  -18.6720 C.3   601  0H2601      0.0000
     30  C3        11.6250   31.9570  -19.7340 C.3   601  0H2601      0.0000
@<TRIPOS>BOND
     1    15    14    2
     2    15    16    1
     3    14    13    1
     4    30    22    1
     5    30    29    1
     6    16    17    2
     7    22    23    1
     8    22    18    1
     9    29    28    1
    10    23    24    1
    11    13    12    1
    12    13    18    1
    13    17    12    1
    14    21    20    1
    15    20    19    1
    16    12    10    1
    17    19    18    1
    18    18    28    1
    19    18    25    1
    20    18     9    1
    21    28    27    1
    22    24    25    1
    23    10     9   ar
    24    10    11   ar
    25    25    26    1
    26    26    27    1
    27     9     8   ar
    28    11     3   ar
    29     8     7   ar
    30     3     7   ar
    31     3     2    1
    32     7     5    1
    33     1     2    2
    34     2     4    2
    35     5     4    2
    36     5     6    2
