@<TRIPOS>MOLECULE
4db1_ANP_A_1.pdb
 31 33 0 0 0
SMALL
GASTEIGER

@<TRIPOS>ATOM
      1  PG        -2.0640   40.5370   76.2420 P.3   801  ANP801      0.4884
      2  O1G       -3.2670   41.3730   75.9660 O.2   801  ANP801     -0.2331
      3  O2G       -2.4040   39.2850   76.9950 O.3   801  ANP801     -0.1240
      4  O3G       -0.9090   41.3450   76.8590 O.3   801  ANP801     -0.1240
      5  PB        -0.2950   40.7100   73.8710 P.3   801  ANP801      0.4669
      6  O1B       -1.0000   41.2300   72.6850 O.2   801  ANP801     -0.2351
      7  O2B        0.4100   41.7300   74.7560 O.3   801  ANP801     -0.1253
      8  N3B       -1.5660   39.9160   74.7150 N.3   801  ANP801     -0.0163
      9  PA         2.2320   39.5470   73.6450 P.3   801  ANP801      0.2220
     10  O1A        2.8310   40.7300   72.9610 O.2   801  ANP801     -0.5170
     11  O2A        2.5440   39.2690   75.0950 O.3   801  ANP801     -0.4370
     12  O3A        0.6660   39.5440   73.3910 O.3   801  ANP801     -0.2360
     13  O5'        2.5690   38.2330   72.7970 O.3   801  ANP801     -0.3111
     14  C5'        2.3530   37.0000   73.4760 C.3   801  ANP801      0.1813
     15  C4'        3.4000   35.9830   73.0710 C.3   801  ANP801      0.1821
     16  O4'        3.3260   35.7810   71.6580 O.3   801  ANP801     -0.3135
     17  C3'        4.8230   36.4380   73.3080 C.3   801  ANP801      0.2184
     18  O3'        5.2840   36.0460   74.5840 O.3   801  ANP801     -0.2174
     19  C2'        5.6050   35.6980   72.2610 C.3   801  ANP801      0.2570
     20  O2'        5.9030   34.3900   72.7430 O.3   801  ANP801     -0.2130
     21  C1'        4.6290   35.5900   71.1090 C.3   801  ANP801      0.3186
     22  N9         4.8880   36.6670   70.1160 N.pl3 801  ANP801     -0.1439
     23  C8         4.1390   37.7680   69.9100 C.3   801  ANP801      0.3377
     24  N7         4.6600   38.5300   68.9100 N.2   801  ANP801     -0.2095
     25  C5         5.7680   37.9150   68.4710 C.2   801  ANP801      0.2526
     26  C6         6.7990   38.1660   67.4390 C.2   801  ANP801      0.4393
     27  N6         6.7430   39.2670   66.6690 N.pl3 801  ANP801      0.2180
     28  N1         7.7950   37.2750   67.2880 N.2   801  ANP801      0.0021
     29  C2         7.8600   36.1730   68.0550 C.3   801  ANP801      0.5254
     30  N3         6.9700   35.8790   69.0140 N.2   801  ANP801     -0.0055
     31  C4         5.9170   36.6920   69.2640 C.2   801  ANP801      0.3518
@<TRIPOS>BOND
     1    27    26    1
     2    28    26    2
     3    28    29    1
     4    26    25    1
     5    29    30    1
     6    25    24    2
     7    25    31    1
     8    24    23    1
     9    30    31    2
    10    31    22    1
    11    23    22    1
    12    22    21    1
    13    21    16    1
    14    21    19    1
    15    16    15    1
    16    19    20    1
    17    19    17    1
    18     6     5    2
    19    13    14    1
    20    13     9    1
    21    10     9    2
    22    15    17    1
    23    15    14    1
    24    17    18    1
    25    12     9    1
    26    12     5    1
    27     9    11    1
    28     5     8    1
    29     5     7    1
    30     8     1    1
    31     2     1    2
    32     1     4    1
    33     1     3    1
