@<TRIPOS>MOLECULE
4db7_Z25_A_1.pdb
 18 19 0 0 0
SMALL
GASTEIGER

@<TRIPOS>ATOM
      1  O3       -14.2740   28.5950    9.4070 O.co2 301  Z25301     -0.2456
      2  C9       -13.1090   28.1590    9.7350 C.2   301  Z25301      0.3653
      3  O4       -12.1650   29.0210    9.8450 O.co2 301  Z25301     -0.2456
      4  C8       -12.7590   26.6870    9.5810 C.3   301  Z25301      0.1205
      5  C7       -12.0800   26.3060    8.2930 C.3   301  Z25301      0.0629
      6  C5       -12.9500   25.7920    7.1560 C.2   301  Z25301      0.1220
      7  C6       -13.4960   26.6180    6.1350 C.2   301  Z25301      0.2332
      8  O2       -13.2260   27.9720    6.1200 O.2   301  Z25301     -0.2837
      9  C3       -14.3710   25.9900    5.1530 C.2   301  Z25301      0.2111
     10  C4       -14.9930   26.6730    4.0930 C.1   301  Z25301      0.2296
     11  O1       -14.7480   28.0100    3.9190 O.2   301  Z25301     -0.2077
     12  N4       -13.2850   24.4970    7.1560 N.2   301  Z25301     -0.1393
     13  N3       -14.1050   23.9170    6.2660 N.2   301  Z25301     -0.0802
     14  C2       -14.6830   24.6070    5.2790 C.1   301  Z25301      0.1356
     15  N2       -15.4970   23.9780    4.3800 N.2   301  Z25301     -0.2679
     16  C1       -16.0200   24.6750    3.3550 C.1   301  Z25301      0.2608
     17  N5       -16.8770   23.9900    2.4510 N.pl3 301  Z25301     -0.0220
     18  N1       -15.8270   26.0160    3.2330 N.2   301  Z25301     -0.2488
@<TRIPOS>BOND
     1    17    16    1
     2    18    16    2
     3    18    10    2
     4    16    15    2
     5    11    10    2
     6    10     9    1
     7    15    14    2
     8     9    14    1
     9     9     7    2
    10    14    13    2
    11     8     7    1
    12     7     6    1
    13    13    12    1
    14     6    12    2
    15     6     5    1
    16     5     4    1
    17     1     2   ar
    18     4     2    1
    19     2     3   ar
