@<TRIPOS>MOLECULE
4dbc_3QP_A_1.pdb
 24 24 0 0 0
SMALL
GASTEIGER

@<TRIPOS>ATOM
      1  C01      -37.4140   26.9180   -2.5280 C.3   506  3QP506      0.0344
      2  C02      -37.3370   26.3270   -3.8930 C.ar  506  3QP506      0.0173
      3  C03      -36.3380   25.4340   -4.2920 C.ar  506  3QP506      0.1975
      4  O04      -35.3440   25.0510   -3.3760 O.3   506  3QP506     -0.2867
      5  C05      -36.2390   24.8830   -5.5960 C.ar  506  3QP506      0.1129
      6  C06      -37.2600   25.1560   -6.5740 C.ar  506  3QP506      0.0168
      7  C07      -37.2180   24.4680   -7.9780 C.3   506  3QP506      0.1716
      8  O08      -37.7610   23.0750   -8.0250 O.3   506  3QP506     -0.3495
      9  P09      -38.3370   22.3830   -9.3720 P.3   506  3QP506     -0.0135
     10  O10      -37.2580   21.4040   -9.7410 O.co2 506  3QP506     -0.5770
     11  O11      -39.6220   21.7860   -9.0690 O.co2 506  3QP506     -0.5770
     12  O12      -38.5000   23.4790  -10.4060 O.2   506  3QP506     -0.6377
     13  C13      -38.2650   26.0500   -6.1380 C.ar  506  3QP506     -0.0018
     14  C14      -38.3330   26.6430   -4.8560 C.ar  506  3QP506     -0.0013
     15  C15      -35.1310   23.9320   -5.9970 C.2   506  3QP506      0.3613
     16  N16      -33.9260   24.0630   -5.4250 N.2   506  3QP506      0.0593
     17  C17      -32.8260   23.1550   -5.7280 C.3   506  3QP506      0.3683
     18  C18      -32.5640   22.8960   -7.2040 C.3   506  3QP506      0.1333
     19  C19      -32.5390   24.1680   -8.0200 C.2   506  3QP506      0.0579
     20  O20      -32.9470   24.1340   -9.2450 O.co2 506  3QP506     -0.5489
     21  O21      -31.8790   25.2080   -7.6580 O.co2 506  3QP506     -0.5489
     22  C22      -31.6710   23.7840   -5.0590 C.2   506  3QP506      0.1754
     23  O23      -31.8390   24.9270   -4.3310 O.co2 506  3QP506     -0.3011
     24  O24      -30.4600   23.2470   -5.1280 O.co2 506  3QP506     -0.8425
@<TRIPOS>UNITY_ATOM_ATTR
10 1
charge -1
11 1
charge -1
16 1
charge 1
21 1
charge -1
24 1
charge -1
@<TRIPOS>BOND
     1    12     9    2
     2    10     9    1
     3     9    11    1
     4     9     8    1
     5    20    19   ar
     6     8     7    1
     7    19    21   ar
     8    19    18    1
     9     7     6    1
    10    18    17    1
    11     6    13   ar
    12     6     5   ar
    13    13    14   ar
    14    15     5    1
    15    15    16    2
    16    17    16    1
    17    17    22    1
    18     5     3   ar
    19    24    22   ar
    20    22    23   ar
    21    14     2   ar
    22     3     2   ar
    23     3     4    1
    24     2     1    1
