@<TRIPOS>MOLECULE
4dbe_BMP_A_1.pdb
 22 23 0 0 0
SMALL
GASTEIGER

@<TRIPOS>ATOM
      1  P         40.2910   21.1700   56.2210 P.3   301  BMP301      0.5327
      2  OP1       40.8680   21.7750   55.0140 O.2   301  BMP301     -0.2224
      3  OP2       40.6990   21.7780   57.6610 O.3   301  BMP301     -0.1145
      4  OP3       38.7060   21.3380   56.1310 O.3   301  BMP301     -0.1145
      5  O5'       40.5440   19.5900   56.2330 O.3   301  BMP301     -0.2675
      6  C5'       40.3970   18.7980   55.0660 C.3   301  BMP301      0.1859
      7  C4'       40.4740   17.3210   55.4030 C.3   301  BMP301      0.1801
      8  O4'       40.3640   16.5530   54.1760 O.3   301  BMP301     -0.3319
      9  C3'       41.7770   16.8770   56.0700 C.3   301  BMP301      0.2158
     10  O3'       41.5260   15.7710   56.9330 O.3   301  BMP301     -0.2175
     11  C2'       42.6060   16.4070   54.8780 C.3   301  BMP301      0.2320
     12  O2'       43.6080   15.4740   55.2000 O.3   301  BMP301     -0.2157
     13  C1'       41.5310   15.7850   53.9820 C.3   301  BMP301      0.2425
     14  N1        41.8580   15.8030   52.5450 N.am  301  BMP301     -0.1473
     15  C2        42.1740   16.9470   51.9000 C.1   301  BMP301      0.2863
     16  O2        42.2230   18.0060   52.4940 O.2   301  BMP301     -0.1918
     17  N3        42.4700   16.9390   50.5840 N.2   301  BMP301     -0.2489
     18  C4        42.4310   15.7940   49.8630 C.1   301  BMP301      0.2018
     19  O4        42.6930   15.8090   48.6650 O.2   301  BMP301     -0.2129
     20  C5        42.0820   14.5900   50.5050 C.3   301  BMP301      0.2213
     21  C6        41.7910   14.6250   51.8470 C.2   301  BMP301      0.2591
     22  O1        41.4420   13.5050   52.4920 O.2   301  BMP301     -0.2725
@<TRIPOS>BOND
     1    19    18    2
     2    18    20    1
     3    18    17    2
     4    20    21    1
     5    17    15    2
     6    21    22    2
     7    21    14   am
     8    15    16    2
     9    15    14   am
    10    14    13    1
    11    13     8    1
    12    13    11    1
    13     8     7    1
    14    11    12    1
    15    11     9    1
    16     2     1    2
    17     6     7    1
    18     6     5    1
    19     7     9    1
    20     9    10    1
    21     4     1    1
    22     1     5    1
    23     1     3    1
