@<TRIPOS>MOLECULE
4dbk_BER_A_1.pdb
 25 29 0 0 0
SMALL
GASTEIGER

@<TRIPOS>ATOM
      1  C1        33.5180  -18.2380   -9.3920 C.2   203  BER203      0.0299
      2  C2        34.5880  -18.2340   -8.4730 C.2   203  BER203     -0.0045
      3  N1        32.1830  -18.2100   -8.8790 N.pl3 203  BER203     -0.2849
      4  C3        33.7110  -18.3030  -10.9360 C.3   203  BER203      0.0672
      5  C4        34.3670  -18.1940   -7.0820 C.2   203  BER203      0.0017
      6  C5        35.9030  -18.2780   -8.9590 C.3   203  BER203      0.0944
      7  C6        31.0790  -18.2130   -9.7650 C.3   203  BER203      0.1246
      8  C7        31.9660  -18.1550   -7.4840 C.2   203  BER203      0.0654
      9  C8        32.4880  -17.7160  -11.6370 C.ar  203  BER203     -0.0157
     10  C9        35.4490  -18.1900   -6.1870 C.2   203  BER203      0.0396
     11  C10       33.0560  -18.1450   -6.6090 C.2   203  BER203      0.0159
     12  C11       36.9720  -18.2650   -8.0830 C.2   203  BER203      0.1582
     13  C12       31.2250  -17.6760  -11.0570 C.ar  203  BER203      0.0314
     14  C13       32.6790  -17.2080  -12.9140 C.ar  203  BER203     -0.0008
     15  C14       36.7420  -18.2260   -6.6980 C.2   203  BER203      0.1726
     16  O1        38.2940  -18.2840   -8.3230 O.2   203  BER203     -0.4387
     17  C15       30.1530  -17.1060  -11.7590 C.ar  203  BER203      0.1697
     18  C16       31.6290  -16.6440  -13.6100 C.ar  203  BER203      0.0397
     19  O2        37.9560  -18.2150   -6.1110 O.2   203  BER203     -0.4350
     20  C17       38.7850  -17.6610   -7.1500 C.3   203  BER203      0.4291
     21  C18       30.3790  -16.6080  -13.0240 C.ar  203  BER203      0.1721
     22  O3        28.8630  -17.0230  -11.2750 O.3   203  BER203     -0.4686
     23  O4        29.3450  -16.0580  -13.6740 O.3   203  BER203     -0.4684
     24  C19       28.1250  -15.9790  -10.6730 C.3   203  BER203      0.2526
     25  C20       29.0270  -14.9140  -12.8170 C.3   203  BER203      0.2526
@<TRIPOS>BOND
     1    23    21    1
     2    23    25    1
     3    18    21   ar
     4    18    14   ar
     5    21    17   ar
     6    14     9   ar
     7    17    22    1
     8    17    13   ar
     9     9    13   ar
    10     9     4    1
    11    22    24    1
    12    13     7    1
    13     4     1    1
    14     7     3    1
    15     1     3    1
    16     1     2    2
    17     6     2    1
    18     6    12    1
    19     3     8    1
    20     2     5    1
    21    16    12    1
    22    16    20    1
    23    12    15    2
    24     8    11    2
    25    20    19    1
    26     5    11    1
    27     5    10    2
    28    15    10    1
    29    15    19    1
