@<TRIPOS>MOLECULE
4dbm_0J0_A_1.pdb
 29 33 0 0 0
SMALL
GASTEIGER

@<TRIPOS>ATOM
      1  C13      -25.2160   22.1490   -9.3570 C.3   302  0J0302      0.1418
      2  C15      -25.4770   22.4260   -6.8170 C.3   302  0J0302      0.0756
      3  C17      -25.9870   24.7180   -5.8880 C.3   302  0J0302     -0.0530
      4  C20      -26.6730   22.8920   -4.6530 C.3   302  0J0302     -0.0530
      5  C21      -26.4060   21.8900   -5.7140 C.3   302  0J0302     -0.0026
      6  C24      -27.5150   25.0130   -4.1410 C.3   302  0J0302     -0.0957
      7  C28      -21.8110   24.6070  -13.0760 C.ar  302  0J0302      0.2641
      8  O29      -21.6390   25.7430  -13.4920 O.2   302  0J0302     -0.2669
      9  N02      -20.6640   23.7910  -12.7260 N.ar  302  0J0302     -0.2933
     10  C01      -19.3580   24.3280  -12.8780 C.3   302  0J0302      0.1335
     11  C27      -23.2130   24.0450  -12.9240 C.ar  302  0J0302      0.0976
     12  C09      -23.4360   22.6870  -12.4240 C.ar  302  0J0302      0.1452
     13  C08      -22.2450   21.8520  -12.0680 C.ar  302  0J0302      0.0500
     14  C07      -22.3810   20.4330  -11.5460 C.ar  302  0J0302      0.0045
     15  C06      -21.1740   19.6180  -11.1940 C.ar  302  0J0302      0.0002
     16  C05      -19.8030   20.1840  -11.3530 C.ar  302  0J0302      0.0015
     17  C04      -19.6680   21.6170  -11.8740 C.ar  302  0J0302      0.0174
     18  C03      -20.8640   22.4270  -12.2260 C.ar  302  0J0302      0.0654
     19  O10      -24.7740   22.2750  -12.3150 O.3   302  0J0302     -0.4690
     20  C11      -25.2380   21.0230  -11.8350 C.3   302  0J0302      0.2496
     21  C12      -25.4630   21.0270  -10.3240 C.2   302  0J0302      0.1184
     22  N26      -25.9450   19.9420   -9.5310 N.2   302  0J0302     -0.1503
     23  N25      -26.0040   20.3620   -8.2070 N.pl3 302  0J0302     -0.0631
     24  N14      -25.5940   21.6070   -8.0490 N.3   302  0J0302     -0.1648
     25  C19      -25.4610   23.3810   -4.0960 C.3   302  0J0302     -0.0223
     26  C18      -24.9980   24.4210   -4.8840 C.3   302  0J0302     -0.0223
     27  N22      -27.0500   24.1220   -5.2050 N.4   302  0J0302      0.3898
     28  C23      -28.2540   24.0040   -6.0230 C.3   302  0J0302     -0.0957
     29  C16      -25.6410   23.9730   -7.1010 C.3   302  0J0302     -0.0026
@<TRIPOS>BOND
     1     8     7    2
     2     7    11   ar
     3     7     9   ar
     4    11    12   ar
     5    10     9    1
     6     9    18   ar
     7    12    19    1
     8    12    13   ar
     9    19    20    1
    10    18    13   ar
    11    18    17   ar
    12    13    14   ar
    13    17    16   ar
    14    20    21    1
    15    14    15   ar
    16    16    15   ar
    17    21    22    2
    18    21     1    1
    19    22    23    1
    20     1    24    1
    21    23    24    1
    22    24     2    1
    23    29     2    1
    24    29     3    1
    25     2     5    1
    26    28    27    1
    27     3    27    1
    28     3    26    1
    29     5     4    1
    30    27     4    1
    31    27     6    1
    32    26    25    1
    33     4    25    1
