@<TRIPOS>MOLECULE
4dbn_0JA_A_1.pdb
 38 43 0 0 0
SMALL
GASTEIGER

@<TRIPOS>ATOM
      1  F1        48.4610  -32.9140    9.6660 F     901  0JA901     -0.2028
      2  C2        47.6410  -33.9860    9.7350 C.ar  901  0JA901      0.1555
      3  C3        47.0020  -34.2890   10.9260 C.ar  901  0JA901      0.0341
      4  C4        46.1620  -35.3840   11.0090 C.ar  901  0JA901      0.0400
      5  C5        45.9420  -36.1670    9.8820 C.ar  901  0JA901      0.1496
      6  O6        45.1310  -37.2610    9.9720 O.3   901  0JA901     -0.4273
      7  C7        43.7770  -37.2890   10.0880 C.2   901  0JA901      0.2827
      8  C8        42.9300  -36.1960    9.8780 C.2   901  0JA901      0.0748
      9  C9        41.5670  -36.3620   10.0140 C.2   901  0JA901      0.0413
     10  C10       41.0350  -37.6370   10.3540 C.2   901  0JA901      0.1698
     11  N11       39.7500  -38.0590   10.5390 N.2   901  0JA901     -0.3755
     12  C12       39.5360  -39.2990   10.8620 C.2   901  0JA901      0.2395
     13  N13       38.2980  -39.9460   11.0440 N.am  901  0JA901     -0.1434
     14  C14       38.1850  -41.2760   11.3690 C.2   901  0JA901      0.2476
     15  O15       39.1630  -41.9490   11.5730 O.2   901  0JA901     -0.2729
     16  C16       36.8930  -42.0470   11.5200 C.3   901  0JA901      0.0787
     17  C17       36.1340  -42.0180   12.8450 C.3   901  0JA901      0.0096
     18  C18       35.5640  -41.3070   11.6150 C.3   901  0JA901      0.0096
     19  S19       41.0940  -40.1030   10.9430 S.3   901  0JA901     -0.0038
     20  C20       41.9700  -38.6530   10.5360 C.2   901  0JA901      0.1975
     21  N21       43.2730  -38.4580   10.4050 N.2   901  0JA901     -0.3580
     22  C22       46.5990  -35.8730    8.6830 C.ar  901  0JA901      0.0565
     23  C23       47.4460  -34.7640    8.5990 C.ar  901  0JA901      0.1041
     24  N24       48.1410  -34.3850    7.4350 N.am  901  0JA901     -0.1730
     25  C25       47.8050  -34.6940    6.1620 C.2   901  0JA901      0.2699
     26  O26       46.8380  -35.3890    5.9230 O.2   901  0JA901     -0.2680
     27  C27       48.6430  -34.2430    5.0290 C.ar  901  0JA901      0.0657
     28  C28       50.0310  -34.3910    5.1130 C.ar  901  0JA901      0.0054
     29  C29       50.8470  -34.0020    4.0680 C.ar  901  0JA901     -0.0001
     30  C30       50.2940  -33.4620    2.9190 C.ar  901  0JA901     -0.0025
     31  C31       48.9180  -33.3120    2.8070 C.ar  901  0JA901      0.0011
     32  C32       48.0910  -33.7000    3.8560 C.ar  901  0JA901      0.0590
     33 CL3        46.3770  -33.4980    3.6810 Cl    901  0JA901     -0.0824
     34  C34       48.3160  -32.7310    1.5430 C.3   901  0JA901      0.0988
     35  C35       48.9200  -33.1160    0.1900 C.3   901  0JA901      0.0196
     36  C36       47.5650  -33.6860    0.6110 C.3   901  0JA901      0.0196
     37  C37       47.7540  -31.3850    1.6720 C.1   901  0JA901      0.0752
     38  N38       47.3310  -30.3360    1.7710 N.1   901  0JA901     -0.1956
@<TRIPOS>BOND
     1    35    36    1
     2    35    34    1
     3    36    34    1
     4    34    37    1
     5    34    31    1
     6    37    38    3
     7    31    30   ar
     8    31    32   ar
     9    30    29   ar
    10    33    32    1
    11    32    27   ar
    12    29    28   ar
    13    27    28   ar
    14    27    25    1
    15    26    25    2
    16    25    24   am
    17    24    23    1
    18    23    22   ar
    19    23     2   ar
    20    22     5   ar
    21     1     2    1
    22     2     3   ar
    23     8     9    2
    24     8     7    1
    25     5     6    1
    26     5     4   ar
    27     6     7    1
    28     9    10    1
    29     7    21    2
    30    10    20    1
    31    10    11    2
    32    21    20    2
    33    20    19    1
    34    11    12    2
    35    12    19    1
    36    12    13    1
    37     3     4   ar
    38    13    14   am
    39    14    16    1
    40    14    15    2
    41    16    18    1
    42    16    17    1
    43    18    17    1
