@<TRIPOS>MOLECULE
4dbq_ADP_A_1.pdb
 27 29 0 0 0
SMALL
GASTEIGER

@<TRIPOS>ATOM
      1  PB        13.3290  -20.3620  -23.4590 P.3   901  ADP901      0.5373
      2  O1B       13.2690  -21.7600  -22.8710 O.3   901  ADP901     -0.1143
      3  O2B       11.9680  -19.7430  -23.7600 O.2   901  ADP901     -0.2221
      4  O3B       14.2910  -19.4200  -22.7370 O.3   901  ADP901     -0.1143
      5  PA        13.6050  -20.2860  -26.3290 P.3   901  ADP901      0.2231
      6  O1A       12.3050  -20.9520  -26.7440 O.2   901  ADP901     -0.5169
      7  O2A       13.7590  -18.7920  -26.2500 O.3   901  ADP901     -0.4370
      8  O3A       14.0460  -20.7940  -24.8670 O.3   901  ADP901     -0.2261
      9  O5'       14.7290  -20.8720  -27.3200 O.3   901  ADP901     -0.3111
     10  C5'       15.9780  -20.2050  -27.4150 C.3   901  ADP901      0.1813
     11  C4'       16.4670  -20.2970  -28.8430 C.3   901  ADP901      0.1821
     12  O4'       16.6800  -21.6510  -29.2580 O.3   901  ADP901     -0.3135
     13  C3'       15.4450  -19.7320  -29.8050 C.3   901  ADP901      0.2184
     14  O3'       15.7400  -18.3580  -29.9920 O.3   901  ADP901     -0.2174
     15  C2'       15.7300  -20.4930  -31.0680 C.3   901  ADP901      0.2570
     16  O2'       16.8570  -19.8450  -31.6420 O.3   901  ADP901     -0.2130
     17  C1'       16.2960  -21.8170  -30.6210 C.3   901  ADP901      0.3186
     18  N9        15.3230  -22.9270  -30.6350 N.pl3 901  ADP901     -0.1439
     19  C8        14.6920  -23.3990  -29.5390 C.3   901  ADP901      0.3377
     20  N7        13.8910  -24.4410  -29.8630 N.2   901  ADP901     -0.2095
     21  C5        14.0040  -24.6470  -31.1890 C.2   901  ADP901      0.2526
     22  C6        13.4400  -25.5940  -32.1680 C.2   901  ADP901      0.4393
     23  N6        12.5640  -26.5460  -31.7920 N.pl3 901  ADP901      0.2180
     24  N1        13.8200  -25.4860  -33.4470 N.2   901  ADP901      0.0021
     25  C2        14.6920  -24.5440  -33.8350 C.3   901  ADP901      0.5254
     26  N3        15.2370  -23.6410  -33.0050 N.2   901  ADP901     -0.0055
     27  C4        14.9460  -23.6460  -31.6930 C.2   901  ADP901      0.3518
@<TRIPOS>BOND
     1    25    24    1
     2    25    26    1
     3    24    22    2
     4    26    27    2
     5    22    23    1
     6    22    21    1
     7    27    21    1
     8    27    18    1
     9    16    15    1
    10    21    20    2
    11    15    17    1
    12    15    13    1
    13    18    17    1
    14    18    19    1
    15    17    12    1
    16    14    13    1
    17    20    19    1
    18    13    11    1
    19    12    11    1
    20    11    10    1
    21    10     9    1
    22     9     5    1
    23     6     5    2
    24     5     7    1
    25     5     8    1
    26     8     1    1
    27     3     1    2
    28     1     2    1
    29     1     4    1
