@<TRIPOS>MOLECULE
4dbr_ADP_A_1.pdb
 27 29 0 0 0
SMALL
GASTEIGER

@<TRIPOS>ATOM
      1  PB       -22.9280  -18.0980    9.6610 P.3   809  ADP809      0.5373
      2  O1B      -21.6330  -17.6230    9.1810 O.3   809  ADP809     -0.1143
      3  O2B      -23.7470  -19.0130    8.7870 O.2   809  ADP809     -0.2221
      4  O3B      -22.8230  -18.5530   11.1110 O.3   809  ADP809     -0.1143
      5  PA       -23.2160  -15.2710    9.3460 P.3   809  ADP809      0.2231
      6  O1A      -22.0290  -14.9710   10.1890 O.3   809  ADP809     -0.4370
      7  O2A      -23.1990  -15.1040    7.8340 O.2   809  ADP809     -0.5169
      8  O3A      -23.7890  -16.7490    9.6970 O.3   809  ADP809     -0.2261
      9  O5'      -24.4850  -14.4370    9.8920 O.3   809  ADP809     -0.3111
     10  C5'      -25.7210  -14.4050    9.1880 C.3   809  ADP809      0.1813
     11  C4'      -26.2870  -12.9860    9.1310 C.3   809  ADP809      0.1821
     12  O4'      -26.6530  -12.5110   10.4250 O.3   809  ADP809     -0.3135
     13  C3'      -25.2710  -11.9720    8.5930 C.3   809  ADP809      0.2184
     14  O3'      -25.3600  -11.8720    7.1810 O.3   809  ADP809     -0.2174
     15  C2'      -25.7000  -10.6720    9.2240 C.3   809  ADP809      0.2570
     16  O2'      -26.8520  -10.1620    8.5440 O.3   809  ADP809     -0.2130
     17  C1'      -26.2120  -11.1570   10.5580 C.3   809  ADP809      0.3186
     18  N9       -25.2450  -11.1140   11.6830 N.pl3 809  ADP809     -0.1439
     19  C8       -24.6230  -12.1640   12.2930 C.3   809  ADP809      0.3377
     20  N7       -23.8850  -11.7320   13.3570 N.2   809  ADP809     -0.2095
     21  C5       -24.0430  -10.3890   13.4290 C.2   809  ADP809      0.2526
     22  C6       -23.5480   -9.2910   14.2920 C.2   809  ADP809      0.4393
     23  N6       -22.7320   -9.5430   15.3460 N.pl3 809  ADP809      0.2180
     24  N1       -23.9500   -8.0250   13.9930 N.2   809  ADP809      0.0021
     25  C2       -24.7980   -7.7520   12.9740 C.3   809  ADP809      0.5254
     26  N3       -25.2860   -8.6940   12.1480 N.2   809  ADP809     -0.0055
     27  C4       -24.9410   -9.9970   12.3240 C.2   809  ADP809      0.3518
@<TRIPOS>BOND
     1    14    13    1
     2     7     5    2
     3    16    15    1
     4    13    11    1
     5    13    15    1
     6     3     1    2
     7    11    10    1
     8    11    12    1
     9     2     1    1
    10    10     9    1
    11    15    17    1
    12     5     8    1
    13     5     9    1
    14     5     6    1
    15     1     8    1
    16     1     4    1
    17    12    17    1
    18    17    18    1
    19    18    19    1
    20    18    27    1
    21    26    27    2
    22    26    25    1
    23    19    20    1
    24    27    21    1
    25    25    24    1
    26    20    21    2
    27    21    22    1
    28    24    22    2
    29    22    23    1
