@<TRIPOS>MOLECULE
4dbs_NAP_A_1.pdb
 48 52 0 0 0
SMALL
GASTEIGER

@<TRIPOS>ATOM
      1  PA        16.1980    8.8690   26.6680 P.3   401  NAP401      0.2189
      2  O1A       16.4540    9.3300   28.0470 O.3   401  NAP401     -0.4371
      3  O2A       14.6320    8.9720   26.3160 O.2   401  NAP401     -0.5170
      4  O5B       16.5750    7.3230   26.4590 O.3   401  NAP401     -0.3112
      5  C5B       17.9360    7.0980   26.8370 C.3   401  NAP401      0.1813
      6  C4B       18.3050    5.6620   26.4710 C.3   401  NAP401      0.1820
      7  O4B       17.2950    4.7880   26.9830 O.3   401  NAP401     -0.3136
      8  C3B       18.2580    5.4690   24.9480 C.3   401  NAP401      0.2157
      9  O3B       19.5530    5.7030   24.3940 O.3   401  NAP401     -0.2175
     10  C2B       17.7520    3.9980   24.7610 C.3   401  NAP401      0.2314
     11  O2B       18.7830    3.1220   24.2800 O.3   401  NAP401     -0.2630
     12  C1B       17.3540    3.5780   26.2090 C.3   401  NAP401      0.3158
     13  N9A       16.0440    2.9400   26.2980 N.pl3 401  NAP401     -0.1439
     14  C8A       14.8910    3.3170   25.6680 C.3   401  NAP401      0.3377
     15  N7A       13.9170    2.5240   26.0310 N.2   401  NAP401     -0.2095
     16  C5A       14.3880    1.6090   26.9220 C.2   401  NAP401      0.2526
     17  C6A       13.8280    0.5390   27.6380 C.2   401  NAP401      0.4393
     18  N6A       12.4850    0.2230   27.5140 N.pl3 401  NAP401      0.2180
     19  N1A       14.6190   -0.1640   28.4470 N.2   401  NAP401      0.0021
     20  C2A       15.9020    0.1270   28.5890 C.3   401  NAP401      0.5254
     21  N3A       16.4700    1.1220   27.9360 N.2   401  NAP401     -0.0055
     22  C4A       15.7520    1.8740   27.1040 C.2   401  NAP401      0.3518
     23  O3        17.1140    9.6220   25.5610 O.3   401  NAP401     -0.2703
     24  PN        17.1340   11.2260   25.3640 P.3   401  NAP401      0.2189
     25  O1N       17.7410   11.3710   23.9550 O.2   401  NAP401     -0.5170
     26  O2N       18.1010   11.9510   26.3200 O.3   401  NAP401     -0.4371
     27  O5D       15.6880   11.9460   25.4690 O.3   401  NAP401     -0.3112
     28  C5D       14.8160   11.4010   24.4800 C.3   401  NAP401      0.1813
     29  C4D       14.4750   12.4310   23.3850 C.3   401  NAP401      0.1799
     30  O4D       14.1670   13.7160   23.9760 O.3   401  NAP401     -0.3327
     31  C3D       15.6650   12.7130   22.4510 C.3   401  NAP401      0.2158
     32  O3D       15.7680   11.7180   21.4310 O.3   401  NAP401     -0.2175
     33  C2D       15.2340   14.0690   21.8720 C.3   401  NAP401      0.2309
     34  O2D       14.2370   13.8440   20.8650 O.3   401  NAP401     -0.2158
     35  C1D       14.6270   14.7770   23.1050 C.3   401  NAP401      0.2263
     36  N1N       15.6380   15.6140   23.7860 N.pl3 401  NAP401     -0.2787
     37  C2N       15.5270   16.9260   23.7360 C.3   401  NAP401      0.1244
     38  C3N       16.4830   17.7400   24.3370 C.2   401  NAP401      0.0544
     39  C7N       16.3450   19.2080   24.2840 C.2   401  NAP401      0.2818
     40  O7N       17.3120   19.9070   24.5050 O.2   401  NAP401     -0.2670
     41  N7N       15.1510   19.7600   23.9730 N.am  401  NAP401     -0.0839
     42  C4N       17.5690   17.1470   24.9970 C.2   401  NAP401      0.0033
     43  C5N       17.6410   15.7670   25.0250 C.2   401  NAP401      0.0157
     44  C6N       16.6480   15.0330   24.4010 C.2   401  NAP401      0.0633
     45  P2B       18.3420    2.3370   22.9160 P.3   401  NAP401      0.5328
     46  O1X       18.2730    3.2760   21.7770 O.2   401  NAP401     -0.2224
     47  O2X       19.4880    1.2530   22.6530 O.3   401  NAP401     -0.1145
     48  O3X       16.9310    1.5940   23.1060 O.3   401  NAP401     -0.1145
@<TRIPOS>BOND
     1    34    33    1
     2    32    31    1
     3    46    45    2
     4    33    31    1
     5    33    35    1
     6    31    29    1
     7    47    45    1
     8    45    48    1
     9    45    11    1
    10    35    36    1
    11    35    30    1
    12    29    30    1
    13    29    28    1
    14    37    36    1
    15    37    38    1
    16    36    44    1
    17    25    24    2
    18    41    39   am
    19    11    10    1
    20    39    38    1
    21    39    40    2
    22    38    42    2
    23     9     8    1
    24    44    43    2
    25    28    27    1
    26    10     8    1
    27    10    12    1
    28     8     6    1
    29    42    43    1
    30    24    27    1
    31    24    23    1
    32    24    26    1
    33    23     1    1
    34    14    15    1
    35    14    13    1
    36    15    16    2
    37    12    13    1
    38    12     7    1
    39    13    22    1
    40     3     1    2
    41     4     1    1
    42     4     5    1
    43     6     5    1
    44     6     7    1
    45     1     2    1
    46    16    22    1
    47    16    17    1
    48    22    21    2
    49    18    17    1
    50    17    19    2
    51    21    20    1
    52    19    20    1
