@<TRIPOS>MOLECULE
4dbs_0HV_A_1.pdb
 23 25 0 0 0
SMALL
GASTEIGER

@<TRIPOS>ATOM
      1  C01       21.1210   16.3540   21.9900 C.ar  402  0HV402      0.0067
      2  C02       22.3780   16.5070   22.4330 C.ar  402  0HV402      0.0015
      3  C03       22.6780   17.4730   23.3280 C.ar  402  0HV402      0.0165
      4  C04       21.7480   18.3260   23.8220 C.ar  402  0HV402      0.0707
      5  C05       20.4900   18.1450   23.3480 C.ar  402  0HV402      0.0231
      6  C06       20.1550   17.1780   22.4490 C.ar  402  0HV402      0.0811
      7  N07       22.2050   19.1500   24.7130 N.pl3 402  0HV402     -0.2125
      8  C08       21.8180   19.9120   25.6780 C.ar  402  0HV402      0.0705
      9  C09       20.5460   20.3340   25.8090 C.ar  402  0HV402      0.0182
     10  C10       20.1430   21.1590   26.7930 C.ar  402  0HV402      0.0254
     11  C11       20.9790   21.6290   27.7390 C.ar  402  0HV402      0.1429
     12  C12       22.2750   21.2200   27.6380 C.ar  402  0HV402      0.0237
     13  C13       22.6870   20.3810   26.6290 C.ar  402  0HV402      0.0169
     14  C14       23.1990   21.6330   28.5420 C.ar  402  0HV402      0.0017
     15  C15       24.4880   21.2680   28.5050 C.ar  402  0HV402      0.0001
     16  C16       24.8930   20.4520   27.5240 C.ar  402  0HV402      0.0000
     17  C17       23.9980   20.0290   26.6170 C.ar  402  0HV402      0.0013
     18  C18       18.8560   16.9900   22.0490 C.2   402  0HV402      0.3878
     19  O19       18.4310   15.8570   21.8950 O.co2 402  0HV402     -0.2406
     20  O20       17.9860   18.0100   21.8570 O.co2 402  0HV402     -0.2406
     21  N21       20.4820   22.4440   28.5760 N.pl3 402  0HV402      0.0577
     22  O22       21.0550   23.4770   29.1330 O.2   402  0HV402     -0.1261
     23  O23       19.2480   22.4030   29.0350 O.2   402  0HV402     -0.1261
@<TRIPOS>BOND
     1    20    18   ar
     2    19    18   ar
     3     1     2   ar
     4     1     6   ar
     5    18     6    1
     6     2     3   ar
     7     6     5   ar
     8     3     4   ar
     9     5     4   ar
    10     4     7    1
    11     7     8    1
    12     8     9   ar
    13     8    13   ar
    14     9    10   ar
    15    17    13   ar
    16    17    16   ar
    17    13    12   ar
    18    10    11   ar
    19    16    15   ar
    20    12    11   ar
    21    12    14   ar
    22    11    21    1
    23    15    14   ar
    24    21    23    2
    25    21    22    2
