@<TRIPOS>MOLECULE
4dbu_NAP_A_1.pdb
 48 52 0 0 0
SMALL
GASTEIGER

@<TRIPOS>ATOM
      1  PA        -0.9340   36.5770   26.8430 P.3   401  NAP401      0.2189
      2  O1A       -1.4360   35.8540   28.0330 O.3   401  NAP401     -0.4371
      3  O2A        0.6710   36.4730   26.8230 O.2   401  NAP401     -0.5170
      4  O5B       -1.3290   38.1350   26.9180 O.3   401  NAP401     -0.3112
      5  C5B       -2.7360   38.2410   26.6920 C.3   401  NAP401      0.1813
      6  C4B       -3.0780   39.7270   26.5650 C.3   401  NAP401      0.1820
      7  O4B       -2.0190   40.4980   27.1440 O.3   401  NAP401     -0.3136
      8  C3B       -3.1510   40.1550   25.0880 C.3   401  NAP401      0.2157
      9  O3B       -4.5130   40.2300   24.6540 O.3   401  NAP401     -0.2175
     10  C2B       -2.4780   41.5590   25.0550 C.3   401  NAP401      0.2314
     11  O2B       -3.4150   42.5660   24.6660 O.3   401  NAP401     -0.2630
     12  C1B       -2.0320   41.8010   26.5230 C.3   401  NAP401      0.3158
     13  N9A       -0.6960   42.4020   26.5980 N.pl3 401  NAP401     -0.1439
     14  C8A        0.4390   41.9340   26.0040 C.3   401  NAP401      0.3377
     15  N7A        1.4490   42.7020   26.3060 N.2   401  NAP401     -0.2095
     16  C5A        1.0300   43.7020   27.1180 C.2   401  NAP401      0.2526
     17  C6A        1.6530   44.7940   27.7480 C.2   401  NAP401      0.4393
     18  N6A        3.0100   45.0270   27.6050 N.pl3 401  NAP401      0.2180
     19  N1A        0.9090   45.6000   28.4970 N.2   401  NAP401      0.0021
     20  C2A       -0.3850   45.3860   28.6530 C.3   401  NAP401      0.5254
     21  N3A       -1.0090   44.3780   28.0850 N.2   401  NAP401     -0.0055
     22  C4A       -0.3500   43.5200   27.3150 C.2   401  NAP401      0.3518
     23  O3        -1.5120   35.9450   25.4720 O.3   401  NAP401     -0.2703
     24  PN        -1.7890   34.3600   25.6180 P.3   401  NAP401      0.2189
     25  O1N       -2.5900   33.8730   24.3870 O.2   401  NAP401     -0.5170
     26  O2N       -2.6070   34.0410   26.8920 O.3   401  NAP401     -0.4371
     27  O5D       -0.3850   33.5720   25.6770 O.3   401  NAP401     -0.3112
     28  C5D        0.4770   34.1540   24.7010 C.3   401  NAP401      0.1813
     29  C4D        0.8950   33.0780   23.7010 C.3   401  NAP401      0.1799
     30  O4D        0.9720   31.8000   24.3750 O.3   401  NAP401     -0.3327
     31  C3D       -0.2050   32.8920   22.6380 C.3   401  NAP401      0.2158
     32  O3D       -0.0630   33.8390   21.5750 O.3   401  NAP401     -0.2175
     33  C2D        0.0680   31.4500   22.1630 C.3   401  NAP401      0.2309
     34  O2D        1.0340   31.4130   21.1140 O.3   401  NAP401     -0.2158
     35  C1D        0.6040   30.7540   23.4360 C.3   401  NAP401      0.2263
     36  N1N       -0.4410   29.8750   23.9880 N.pl3 401  NAP401     -0.2787
     37  C2N       -0.2750   28.5640   23.9600 C.3   401  NAP401      0.1244
     38  C3N       -1.2620   27.7070   24.4630 C.2   401  NAP401      0.0544
     39  C7N       -1.0900   26.2370   24.4490 C.2   401  NAP401      0.2818
     40  O7N       -2.0250   25.5210   24.7490 O.2   401  NAP401     -0.2670
     41  N7N        0.1180   25.6910   24.2010 N.am  401  NAP401     -0.0839
     42  C4N       -2.4320   28.2620   24.9940 C.2   401  NAP401      0.0033
     43  C5N       -2.5620   29.6390   24.9990 C.2   401  NAP401      0.0157
     44  C6N       -1.5390   30.4180   24.4840 C.2   401  NAP401      0.0633
     45  P2B       -2.9960   43.1390   23.2200 P.3   401  NAP401      0.5328
     46  O1X       -2.8060   42.0080   22.2860 O.2   401  NAP401     -0.2224
     47  O2X       -4.1850   44.0730   22.6720 O.3   401  NAP401     -0.1145
     48  O3X       -1.6340   43.9960   23.3140 O.3   401  NAP401     -0.1145
@<TRIPOS>BOND
     1    34    33    1
     2    32    31    1
     3    33    31    1
     4    33    35    1
     5    46    45    2
     6    31    29    1
     7    47    45    1
     8    45    48    1
     9    45    11    1
    10    35    36    1
    11    35    30    1
    12    29    30    1
    13    29    28    1
    14    37    36    1
    15    37    38    1
    16    36    44    1
    17    41    39   am
    18    25    24    2
    19    39    38    1
    20    39    40    2
    21    38    42    2
    22    44    43    2
    23     9     8    1
    24    11    10    1
    25    28    27    1
    26    42    43    1
    27    10     8    1
    28    10    12    1
    29     8     6    1
    30    23    24    1
    31    23     1    1
    32    24    27    1
    33    24    26    1
    34    14    15    1
    35    14    13    1
    36    15    16    2
    37    12    13    1
    38    12     7    1
    39     6     5    1
    40     6     7    1
    41    13    22    1
    42     5     4    1
    43     3     1    2
    44     1     4    1
    45     1     2    1
    46    16    22    1
    47    16    17    1
    48    22    21    2
    49    18    17    1
    50    17    19    2
    51    21    20    1
    52    19    20    1
