@<TRIPOS>MOLECULE
4dbu_BT9_A_1.pdb
 20 21 0 0 0
SMALL
GASTEIGER

@<TRIPOS>ATOM
      1  C01       -5.9880   28.9580   21.6780 C.ar  402  BT9402      0.0067
      2  C02       -7.2890   28.4640   21.8220 C.ar  402  BT9402      0.0015
      3  C03       -7.5060   27.1970   22.3550 C.ar  402  BT9402      0.0165
      4  C04       -6.4210   26.3940   22.7530 C.ar  402  BT9402      0.0707
      5  C05       -5.1250   26.8970   22.6090 C.ar  402  BT9402      0.0231
      6  C06       -4.8990   28.1700   22.0730 C.ar  402  BT9402      0.0811
      7  N07       -6.7360   25.1440   23.3100 N.pl3 402  BT9402     -0.2125
      8  C08       -6.2990   24.5030   24.4810 C.ar  402  BT9402      0.0705
      9  C09       -6.4780   23.1110   24.5440 C.ar  402  BT9402      0.0164
     10  C10       -6.0830   22.3970   25.6740 C.ar  402  BT9402      0.0052
     11  C11       -5.5070   23.0520   26.7690 C.ar  402  BT9402      0.0715
     12  C12       -5.3300   24.4340   26.7070 C.ar  402  BT9402      0.0052
     13  C13       -5.7160   25.1510   25.5790 C.ar  402  BT9402      0.0164
     14  C14       -3.5000   28.6550   21.9290 C.2   402  BT9402      0.3878
     15  O15       -2.5850   27.8330   21.9600 O.co2 402  BT9402     -0.2406
     16  O16       -3.2170   29.9650   21.7480 O.co2 402  BT9402     -0.2406
     17  C17       -5.0820   22.2890   27.9890 C.3   402  BT9402      0.4186
     18  F18       -4.6980   21.0490   27.7340 F     402  BT9402     -0.1659
     19  F19       -6.0640   22.2540   28.8760 F     402  BT9402     -0.1659
     20  F20       -4.0700   22.9260   28.5560 F     402  BT9402     -0.1659
@<TRIPOS>BOND
     1     1     2   ar
     2     1     6   ar
     3    16    14   ar
     4     2     3   ar
     5    14    15   ar
     6    14     6    1
     7     6     5   ar
     8     3     4   ar
     9     5     4   ar
    10     4     7    1
    11     7     8    1
    12     8     9   ar
    13     8    13   ar
    14     9    10   ar
    15    13    12   ar
    16    10    11   ar
    17    12    11   ar
    18    11    17    1
    19    18    17    1
    20    17    20    1
    21    17    19    1
