@<TRIPOS>MOLECULE
4dbv_NDP_O_1.pdb
 48 52 0 0 0
SMALL
GASTEIGER

@<TRIPOS>ATOM
      1  PA        74.7790   39.4620   30.6050 P.3   336  NDP336      0.2189
      2  O1A       75.3680   38.2240   30.0710 O.3   336  NDP336     -0.4371
      3  O2A       73.6890   40.1270   29.8700 O.2   336  NDP336     -0.5170
      4  O5B       75.9260   40.5870   30.8580 O.3   336  NDP336     -0.3112
      5  C5B       77.2980   40.3350   31.2360 C.3   336  NDP336      0.1813
      6  C4B       78.1960   41.0570   30.2190 C.3   336  NDP336      0.1820
      7  O4B       79.5890   41.0600   30.6070 O.3   336  NDP336     -0.3136
      8  C3B       78.1970   40.4550   28.8290 C.3   336  NDP336      0.2157
      9  O3B       78.1630   41.4340   27.8060 O.3   336  NDP336     -0.2175
     10  C2B       79.5510   39.8010   28.7450 C.3   336  NDP336      0.2314
     11  O2B       80.0040   39.6000   27.4120 O.3   336  NDP336     -0.2630
     12  C1B       80.3910   40.7840   29.4600 C.3   336  NDP336      0.3158
     13  N9A       81.6660   40.2190   29.8930 N.pl3 336  NDP336     -0.1439
     14  C8A       81.9220   38.9590   30.2990 C.3   336  NDP336      0.3377
     15  N7A       83.1740   38.8570   30.7620 N.2   336  NDP336     -0.2095
     16  C5A       83.6650   40.0720   30.6140 C.2   336  NDP336      0.2526
     17  C6A       84.9570   40.4410   30.9500 C.2   336  NDP336      0.4393
     18  N6A       85.8100   39.5650   31.4440 N.pl3 336  NDP336      0.2180
     19  N1A       85.2820   41.7310   30.7360 N.2   336  NDP336      0.0021
     20  C2A       84.3740   42.5840   30.2360 C.3   336  NDP336      0.5254
     21  N3A       83.1160   42.2330   29.9070 N.2   336  NDP336     -0.0055
     22  C4A       82.7480   40.9550   30.0860 C.2   336  NDP336      0.3518
     23  O3        74.2470   39.2060   32.0570 O.3   336  NDP336     -0.2703
     24  PN        73.3360   40.0080   33.0710 P.3   336  NDP336      0.2189
     25  O1N       71.9610   39.4270   33.1230 O.3   336  NDP336     -0.4371
     26  O2N       73.4890   41.4490   32.7710 O.2   336  NDP336     -0.5170
     27  O5D       73.9700   39.8020   34.5110 O.3   336  NDP336     -0.3112
     28  C5D       75.2190   40.4210   34.8250 C.3   336  NDP336      0.1813
     29  C4D       75.4480   40.2790   36.3270 C.3   336  NDP336      0.1799
     30  O4D       74.4140   40.9530   37.0620 O.3   336  NDP336     -0.3327
     31  C3D       75.4190   38.8580   36.8660 C.3   336  NDP336      0.2158
     32  O3D       76.1480   38.8180   38.1100 O.3   336  NDP336     -0.2175
     33  C2D       73.9730   38.6520   37.2610 C.3   336  NDP336      0.2309
     34  O2D       73.8020   37.6270   38.2640 O.3   336  NDP336     -0.2158
     35  C1D       73.6740   40.0120   37.8430 C.3   336  NDP336      0.2263
     36  N1N       72.2380   40.3470   37.8320 N.pl3 336  NDP336     -0.2787
     37  C2N       71.3840   39.9490   36.7620 C.3   336  NDP336      0.1244
     38  C3N       70.0170   40.2600   36.7820 C.2   336  NDP336      0.0544
     39  C7N       69.0840   40.1110   35.5490 C.2   336  NDP336      0.2818
     40  O7N       67.8640   40.2140   35.7030 O.2   336  NDP336     -0.2670
     41  N7N       69.6150   39.6790   34.4020 N.am  336  NDP336     -0.0839
     42  C4N       69.5310   40.9260   37.9120 C.2   336  NDP336      0.0033
     43  C5N       70.3640   41.2930   38.9770 C.2   336  NDP336      0.0157
     44  C6N       71.7250   41.0200   38.9450 C.2   336  NDP336      0.0633
     45  P2B       80.0370   38.0640   26.8910 P.3   336  NDP336      0.5328
     46  O1X       81.1920   37.2210   27.6450 O.3   336  NDP336     -0.1145
     47  O2X       78.6300   37.3360   27.2030 O.3   336  NDP336     -0.1145
     48  O3X       80.2800   38.0570   25.4330 O.2   336  NDP336     -0.2224
@<TRIPOS>BOND
     1    48    45    2
     2    45    47    1
     3    45    11    1
     4    45    46    1
     5    11    10    1
     6     9     8    1
     7    10     8    1
     8    10    12    1
     9     8     6    1
    10    12    13    1
    11    12     7    1
    12     3     1    2
    13    13    22    1
    14    13    14    1
    15    21    22    2
    16    21    20    1
    17     2     1    1
    18    22    16    1
    19     6     7    1
    20     6     5    1
    21    20    19    1
    22    14    15    1
    23     1     4    1
    24     1    23    1
    25    16    15    2
    26    16    17    1
    27    19    17    2
    28     4     5    1
    29    17    18    1
    30    23    24    1
    31    26    24    2
    32    24    25    1
    33    24    27    1
    34    41    39   am
    35    27    28    1
    36    28    29    1
    37    39    40    2
    38    39    38    1
    39    29    31    1
    40    29    30    1
    41    37    38    1
    42    37    36    1
    43    38    42    2
    44    31    33    1
    45    31    32    1
    46    30    35    1
    47    33    35    1
    48    33    34    1
    49    36    35    1
    50    36    44    1
    51    42    43    1
    52    44    43    2
