@<TRIPOS>MOLECULE
4dbw_511_A_1.pdb
 24 26 0 0 0
SMALL
GASTEIGER

@<TRIPOS>ATOM
      1 CL1        20.1760   22.9760   29.1670 Cl    402  511402     -0.0822
      2  N01       22.0120   20.1370   23.0910 N.ar  402  511402     -0.2734
      3  C02       21.0790   19.1260   23.3740 C.ar  402  511402      0.0792
      4  O01       18.6810   15.6090   21.7360 O.co2 402  511402     -0.2453
      5  C03       21.3090   18.0360   22.5860 C.ar  402  511402      0.0082
      6  O02       18.6070   17.8440   21.6310 O.co2 402  511402     -0.2453
      7  C04       23.0840   17.5760   20.7770 C.ar  402  511402      0.0381
      8  O03       24.8370   17.4190   19.0840 O.3   402  511402     -0.4714
      9  C05       24.1730   18.0890   20.0860 C.ar  402  511402      0.1388
     10  O04       22.6070   22.3100   23.0870 O.2   402  511402     -0.2666
     11  C06       24.5880   19.4090   20.4270 C.ar  402  511402      0.0384
     12  C07       23.9660   20.1850   21.3900 C.ar  402  511402      0.0207
     13  C08       22.4330   18.3520   21.7570 C.ar  402  511402      0.0172
     14  C09       22.8560   19.6380   22.0810 C.ar  402  511402      0.0668
     15  C10       20.5580   16.7390   22.5880 C.3   402  511402      0.1419
     16  C11       19.2190   16.8320   21.8860 C.2   402  511402      0.3693
     17  C12       25.9490   18.0370   18.4830 C.3   402  511402      0.2525
     18  C13       22.0580   21.3960   23.7000 C.2   402  511402      0.2647
     19  C14       21.5260   21.7530   25.0440 C.ar  402  511402      0.0566
     20  C15       21.1190   23.0740   25.2860 C.ar  402  511402      0.0056
     21  C16       20.6870   23.4480   26.5550 C.ar  402  511402      0.0115
     22  C17       20.6730   22.5030   27.5880 C.ar  402  511402      0.0577
     23  C18       21.0790   21.1890   27.3570 C.ar  402  511402      0.0115
     24  C19       21.5160   20.8170   26.0830 C.ar  402  511402      0.0056
@<TRIPOS>BOND
     1    17     8    1
     2     8     9    1
     3     9    11   ar
     4     9     7   ar
     5    11    12   ar
     6     7    13   ar
     7    12    14   ar
     8     6    16   ar
     9     4    16   ar
    10    13    14   ar
    11    13     5   ar
    12    16    15    1
    13    14     2   ar
    14     5    15    1
    15     5     3   ar
    16    10    18    2
    17     2     3   ar
    18     2    18   am
    19    18    19    1
    20    19    20   ar
    21    19    24   ar
    22    20    21   ar
    23    24    23   ar
    24    21    22   ar
    25    23    22   ar
    26    22     1    1
