@<TRIPOS>MOLECULE
4dbw_NAP_A_1.pdb
 48 52 0 0 0
SMALL
GASTEIGER

@<TRIPOS>ATOM
      1  PA        16.6050    8.8760   26.5430 P.3   401  NAP401      0.2189
      2  O1A       16.8510    9.3090   27.9360 O.3   401  NAP401     -0.4371
      3  O2A       15.0600    9.0190   26.1440 O.2   401  NAP401     -0.5170
      4  O5B       16.9480    7.3150   26.3730 O.3   401  NAP401     -0.3112
      5  C5B       18.3270    7.0960   26.6870 C.3   401  NAP401      0.1813
      6  C4B       18.6900    5.6510   26.3080 C.3   401  NAP401      0.1820
      7  O4B       17.7020    4.7670   26.8370 O.3   401  NAP401     -0.3136
      8  C3B       18.6500    5.4280   24.7890 C.3   401  NAP401      0.2157
      9  O3B       19.9510    5.6240   24.2310 O.3   401  NAP401     -0.2175
     10  C2B       18.1580    3.9510   24.6270 C.3   401  NAP401      0.2314
     11  O2B       19.2120    3.1090   24.1440 O.3   401  NAP401     -0.2630
     12  C1B       17.7750    3.5450   26.0790 C.3   401  NAP401      0.3158
     13  N9A       16.4640    2.9140   26.1690 N.pl3 401  NAP401     -0.1439
     14  C8A       15.3280    3.2850   25.5090 C.3   401  NAP401      0.3377
     15  N7A       14.3440    2.5080   25.8720 N.2   401  NAP401     -0.2095
     16  C5A       14.7840    1.6080   26.7810 C.2   401  NAP401      0.2526
     17  C6A       14.1910    0.5610   27.5000 C.2   401  NAP401      0.4393
     18  N6A       12.8490    0.2660   27.3420 N.pl3 401  NAP401      0.2180
     19  N1A       14.9510   -0.1440   28.3320 N.2   401  NAP401      0.0021
     20  C2A       16.2330    0.1340   28.4920 C.3   401  NAP401      0.5254
     21  N3A       16.8290    1.1110   27.8360 N.2   401  NAP401     -0.0055
     22  C4A       16.1480    1.8640   26.9860 C.2   401  NAP401      0.3518
     23  O3        17.5900    9.6020   25.4760 O.3   401  NAP401     -0.2703
     24  PN        17.6300   11.2070   25.2470 P.3   401  NAP401      0.2189
     25  O1N       18.2440   11.3260   23.8410 O.2   401  NAP401     -0.5170
     26  O2N       18.5930   11.8980   26.2300 O.3   401  NAP401     -0.4371
     27  O5D       16.1830   11.9230   25.3070 O.3   401  NAP401     -0.3112
     28  C5D       15.3450   11.3850   24.2890 C.3   401  NAP401      0.1813
     29  C4D       14.9990   12.4330   23.2140 C.3   401  NAP401      0.1799
     30  O4D       14.6610   13.7180   23.8010 O.3   401  NAP401     -0.3327
     31  C3D       16.2020   12.7340   22.3020 C.3   401  NAP401      0.2158
     32  O3D       16.3660   11.7080   21.3270 O.3   401  NAP401     -0.2175
     33  C2D       15.7170   14.0530   21.6770 C.3   401  NAP401      0.2309
     34  O2D       14.7340   13.7760   20.6670 O.3   401  NAP401     -0.2158
     35  C1D       15.0850   14.7670   22.8950 C.3   401  NAP401      0.2263
     36  N1N       16.0750   15.6320   23.5620 N.pl3 401  NAP401     -0.2787
     37  C2N       15.9760   16.9430   23.4680 C.3   401  NAP401      0.1244
     38  C3N       16.9150   17.7750   24.0880 C.2   401  NAP401      0.0544
     39  C7N       16.7890   19.2420   24.0130 C.2   401  NAP401      0.2818
     40  O7N       17.7590   19.9460   24.2330 O.2   401  NAP401     -0.2670
     41  N7N       15.6050   19.7990   23.6650 N.am  401  NAP401     -0.0839
     42  C4N       17.9690   17.1940   24.8020 C.2   401  NAP401      0.0033
     43  C5N       18.0300   15.8150   24.8730 C.2   401  NAP401      0.0157
     44  C6N       17.0600   15.0630   24.2370 C.2   401  NAP401      0.0633
     45  P2B       18.7980    2.3050   22.7940 P.3   401  NAP401      0.5328
     46  O1X       18.7450    3.2080   21.6280 O.2   401  NAP401     -0.2224
     47  O2X       19.9610    1.2090   22.6010 O.3   401  NAP401     -0.1145
     48  O3X       17.3820    1.5880   23.0260 O.3   401  NAP401     -0.1145
@<TRIPOS>BOND
     1    34    33    1
     2    32    31    1
     3    46    45    2
     4    33    31    1
     5    33    35    1
     6    31    29    1
     7    47    45    1
     8    45    48    1
     9    45    11    1
    10    35    36    1
    11    35    30    1
    12    29    30    1
    13    29    28    1
    14    37    36    1
    15    37    38    1
    16    36    44    1
    17    41    39   am
    18    25    24    2
    19    39    38    1
    20    39    40    2
    21    38    42    2
    22    11    10    1
    23     9     8    1
    24    44    43    2
    25    28    27    1
    26    10     8    1
    27    10    12    1
    28     8     6    1
    29    42    43    1
    30    24    27    1
    31    24    23    1
    32    24    26    1
    33    23     1    1
    34    14    15    1
    35    14    13    1
    36    15    16    2
    37    12    13    1
    38    12     7    1
    39     3     1    2
    40    13    22    1
    41     6     5    1
    42     6     7    1
    43     4     1    1
    44     4     5    1
    45     1     2    1
    46    16    22    1
    47    16    17    1
    48    22    21    2
    49    18    17    1
    50    17    19    2
    51    21    20    1
    52    19    20    1
