@<TRIPOS>MOLECULE
4dc2_ADE_A_1.pdb
 10 11 0 0 0
SMALL
GASTEIGER

@<TRIPOS>ATOM
      1  N9         9.2960   -6.7070   17.9440 N.2   601  ADE601     -0.1914
      2  C8         9.3640   -7.7300   17.0800 C.3   601  ADE601      0.2618
      3  N7         8.8140   -7.3250   15.9220 N.2   601  ADE601     -0.2267
      4  C5         8.3990   -6.0430   16.0400 C.2   601  ADE601      0.2303
      5  C6         7.7700   -5.1250   15.1810 C.2   601  ADE601      0.4393
      6  N6         7.4030   -5.4690   13.8050 N.pl3 601  ADE601      0.2185
      7  N1         7.4850   -3.9010   15.6240 N.2   601  ADE601     -0.0265
      8  C2         7.7920   -3.5500   16.8790 C.3   601  ADE601      0.4008
      9  N3         8.3890   -4.3970   17.7250 N.2   601  ADE601     -0.1640
     10  C4         8.7070   -5.6470   17.3410 C.1   601  ADE601      0.0579
@<TRIPOS>BOND
     1     6     5    1
     2     5     7    2
     3     5     4    1
     4     7     8    1
     5     3     4    2
     6     3     2    1
     7     4    10    1
     8     8     9    1
     9     2     1    1
    10    10     9    2
    11    10     1    2
