@<TRIPOS>MOLECULE
4dc3_2FA_B_1.pdb
 20 22 0 0 0
SMALL
GASTEIGER

@<TRIPOS>ATOM
      1  O5'       13.7090  -18.1010   11.2570 O.3   401  2FA401     -0.2176
      2  C5'       14.7440  -17.7370   10.3490 C.3   401  2FA401      0.2142
      3  C4'       14.1810  -17.2630    9.0320 C.3   401  2FA401      0.1828
      4  O4'       13.4940  -16.0090    9.2340 O.3   401  2FA401     -0.3325
      5  C1'       13.6110  -15.2450    8.0660 C.3   401  2FA401      0.2293
      6  N9        13.3990  -13.8380    8.4030 N.pl3 401  2FA401     -0.2359
      7  C4        12.2700  -13.1210    8.0430 C.2   401  2FA401      0.2224
      8  N3        11.1710  -13.4470    7.3840 N.2   401  2FA401     -0.3001
      9  C2        10.2050  -12.5130    7.1810 C.1   401  2FA401      0.2998
     10  F          9.0980  -12.8640    6.5080 F     401  2FA401     -0.0976
     11  N1        10.3320  -11.2420    7.6330 N.2   401  2FA401     -0.2971
     12  C6        11.4000  -10.8590    8.2970 C.2   401  2FA401      0.2545
     13  N6        11.5300   -9.4140    8.8080 N.pl3 401  2FA401     -0.0903
     14  C5        12.4390  -11.8170    8.5300 C.2   401  2FA401      0.1707
     15  N7        13.6380  -11.7740    9.1520 N.2   401  2FA401     -0.2401
     16  C8        14.2170  -13.0260    9.0620 C.3   401  2FA401      0.2238
     17  C2'       15.0060  -15.5430    7.5290 C.3   401  2FA401      0.2310
     18  O2'       15.0890  -15.2820    6.1440 O.3   401  2FA401     -0.2158
     19  C3'       15.2100  -17.0180    7.9170 C.3   401  2FA401      0.2159
     20  O3'       14.9140  -17.8530    6.7980 O.3   401  2FA401     -0.2175
@<TRIPOS>BOND
     1    18    17    1
     2    10     9    1
     3    20    19    1
     4     9     8    2
     5     9    11    2
     6     8     7    2
     7    17    19    1
     8    17     5    1
     9    11    12    2
    10    19     3    1
    11     7     6    1
    12     7    14    1
    13     5     6    1
    14     5     4    1
    15    12    14    1
    16    12    13    1
    17     6    16    1
    18    14    15    2
    19     3     4    1
    20     3     2    1
    21    16    15    1
    22     2     1    1
