@<TRIPOS>MOLECULE
4dc3_ADN_A_1.pdb
 19 21 0 0 0
SMALL
GASTEIGER

@<TRIPOS>ATOM
      1  O5'       21.6660  -22.6290  -28.5630 O.3   401  ADN401     -0.2176
      2  C5'       21.5040  -21.5890  -27.6050 C.3   401  ADN401      0.2143
      3  C4'       22.1190  -21.9620  -26.2790 C.3   401  ADN401      0.1851
      4  O4'       23.5540  -22.0220  -26.4250 O.3   401  ADN401     -0.3134
      5  C3'       21.8380  -20.9910  -25.1230 C.3   401  ADN401      0.2186
      6  O3'       21.1990  -21.6890  -24.0550 O.3   401  ADN401     -0.2174
      7  C2'       23.2320  -20.5210  -24.6750 C.3   401  ADN401      0.2570
      8  O2'       23.3820  -20.3720  -23.2780 O.3   401  ADN401     -0.2130
      9  C1'       24.1440  -21.6140  -25.2200 C.3   401  ADN401      0.3186
     10  N9        25.5070  -21.1600  -25.5030 N.pl3 401  ADN401     -0.1439
     11  C8        25.8630  -20.0210  -26.1700 C.3   401  ADN401      0.3377
     12  N7        27.2180  -19.9450  -26.2260 N.2   401  ADN401     -0.2095
     13  C5        27.7410  -21.0510  -25.5810 C.2   401  ADN401      0.2526
     14  C6        29.0720  -21.5300  -25.3090 C.2   401  ADN401      0.4393
     15  N6        30.2090  -20.8030  -25.7430 N.pl3 401  ADN401      0.2180
     16  N1        29.2220  -22.6900  -24.6280 N.2   401  ADN401      0.0021
     17  C2        28.1380  -23.4160  -24.1970 C.3   401  ADN401      0.5254
     18  N3        26.8810  -22.9940  -24.4360 N.2   401  ADN401     -0.0055
     19  C4        26.6540  -21.8140  -25.1250 C.2   401  ADN401      0.3518
@<TRIPOS>BOND
     1     1     2    1
     2     2     3    1
     3     4     3    1
     4     4     9    1
     5     3     5    1
     6    12    11    1
     7    12    13    2
     8    11    10    1
     9    15    14    1
    10    13    14    1
    11    13    19    1
    12    10     9    1
    13    10    19    1
    14    14    16    2
    15     9     7    1
    16    19    18    2
    17     5     7    1
    18     5     6    1
    19     7     8    1
    20    16    17    1
    21    18    17    1
