@<TRIPOS>MOLECULE
4dc7_HEM_A_1.pdb
 43 50 0 0 0
SMALL
GASTEIGER

@<TRIPOS>ATOM
      1  CHA       -0.6510    4.3030   16.3390 C.2   201  HEM201      0.0000
      2  CHB       -4.1690    1.1340   15.2710 C.2   201  HEM201      0.0000
      3  CHC       -0.8700   -2.1060   13.9080 C.2   201  HEM201      0.0000
      4  CHD        2.6370    1.0440   14.9740 C.2   201  HEM201      0.0000
      5  C1A       -1.9120    3.7160   16.1540 C.2   201  HEM201      0.0000
      6  C2A       -3.1420    4.3760   16.4560 C.2   201  HEM201      0.0000
      7  C3A       -4.1430    3.5130   16.1760 C.2   201  HEM201      0.0000
      8  C4A       -3.5000    2.2900   15.6780 C.2   201  HEM201      0.0000
      9  CMA       -5.6520    3.6900   16.3180 C.3   201  HEM201      0.0000
     10  CAA       -3.3070    5.8090   17.0000 C.3   201  HEM201      0.0000
     11  CBA       -3.7680    6.7110   15.8290 C.3   201  HEM201      0.0000
     12  CGA       -2.8540    6.8140   14.6200 C.2   201  HEM201      0.0000
     13  O1A       -1.6730    7.2090   14.7290 O.co2 201  HEM201      0.0000
     14  O2A       -3.3650    6.4510   13.5030 O.co2 201  HEM201      0.0000
     15  C1B       -3.6120   -0.0090   14.8110 C.ar  201  HEM201      0.0000
     16  C2B       -4.3230   -1.1750   14.4120 C.ar  201  HEM201      0.0000
     17  C3B       -3.4220   -2.0910   14.0250 C.ar  201  HEM201      0.0000
     18  C4B       -2.0830   -1.4780   14.1900 C.ar  201  HEM201      0.0000
     19  CMB       -5.8560   -1.2800   14.4500 C.3   201  HEM201      0.0000
     20  CAB       -3.6380   -3.5320   13.4970 C.3   201  HEM201      0.0000
     21  CBB       -4.5320   -4.4450   14.4260 C.3   201  HEM201      0.0000
     22  C1C        0.3900   -1.5260   14.0800 C.2   201  HEM201      0.0000
     23  C2C        1.6180   -2.2140   13.8080 C.2   201  HEM201      0.0000
     24  C3C        2.6210   -1.3300   14.1070 C.2   201  HEM201      0.0000
     25  C4C        1.9780   -0.1150   14.5580 C.2   201  HEM201      0.0000
     26  CMC        1.6980   -3.6420   13.2970 C.3   201  HEM201      0.0000
     27  CAC        4.1580   -1.4490   14.0380 C.3   201  HEM201      0.0000
     28  CBC        4.7620   -2.7930   14.4900 C.3   201  HEM201      0.0000
     29  C1D        2.0700    2.1820   15.4250 C.ar  201  HEM201      0.0000
     30  C2D        2.7570    3.4090   15.9000 C.ar  201  HEM201      0.0000
     31  C3D        1.8640    4.3160   16.2930 C.ar  201  HEM201      0.0000
     32  C4D        0.5440    3.6800   16.0560 C.ar  201  HEM201      0.0000
     33  CMD        4.3270    3.4980   15.9100 C.3   201  HEM201      0.0000
     34  CAD        2.1440    5.6570   16.8580 C.3   201  HEM201      0.0000
     35  CBD        2.2520    5.4550   18.4090 C.3   201  HEM201      0.0000
     36  CGD        2.4450    6.6600   19.2940 C.2   201  HEM201      0.0000
     37  O1D        1.4940    7.3070   19.7820 O.co2 201  HEM201      0.0000
     38  O2D        3.6550    6.9520   19.4980 O.co2 201  HEM201      0.0000
     39  NA        -2.1140    2.4550   15.6700 N.2   201  HEM201      0.0000
     40  NB        -2.2140   -0.1890   14.6710 N.ar  201  HEM201      0.0000
     41  NC         0.6130   -0.2750   14.5300 N.2   201  HEM201      0.0000
     42  ND         0.7050    2.4280   15.5540 N.ar  201  HEM201      0.0000
     43 FE         -0.7500    1.1210   15.0800 Fe    201  HEM201      0.0000
@<TRIPOS>BOND
     1    26    23    1
     2    20    17    1
     3    20    21    1
     4    14    12   ar
     5    23    22    1
     6    23    24    2
     7     3    22    2
     8     3    18    1
     9    17    18   ar
    10    17    16   ar
    11    27    24    1
    12    27    28    1
    13    22    41    1
    14    24    25    1
    15    18    40   ar
    16    16    19    1
    17    16    15   ar
    18    41    25    2
    19    41    43    1
    20    25     4    1
    21    12    13   ar
    22    12    11    1
    23    40    15   ar
    24    40    43    1
    25    15     2    1
    26     4    29    2
    27    43    42    1
    28    43    39    1
    29     2     8    2
    30    29    42   ar
    31    29    30   ar
    32    42    32   ar
    33    39     8    1
    34    39     5    2
    35     8     7    1
    36    11    10    1
    37    30    33    1
    38    30    31   ar
    39    32    31   ar
    40    32     1    2
    41     5     1    1
    42     5     6    1
    43     7     9    1
    44     7     6    2
    45    31    34    1
    46     6    10    1
    47    34    35    1
    48    35    36    1
    49    36    38   ar
    50    36    37   ar
