@<TRIPOS>MOLECULE
4dc8_HEM_A_1.pdb
 43 50 0 0 0
SMALL
GASTEIGER

@<TRIPOS>ATOM
      1  CHA       -0.6450    4.1260   16.3470 C.2   201  HEM201      0.0000
      2  CHB       -4.1580    0.9530   15.2780 C.2   201  HEM201      0.0000
      3  CHC       -0.8570   -2.2850   13.9230 C.2   201  HEM201      0.0000
      4  CHD        2.6470    0.8590   14.9870 C.2   201  HEM201      0.0000
      5  C1A       -1.9040    3.5370   16.1620 C.2   201  HEM201      0.0000
      6  C2A       -3.1350    4.1980   16.4610 C.2   201  HEM201      0.0000
      7  C3A       -4.1350    3.3350   16.1810 C.2   201  HEM201      0.0000
      8  C4A       -3.4900    2.1080   15.6850 C.2   201  HEM201      0.0000
      9  CMA       -5.6440    3.5110   16.3190 C.3   201  HEM201      0.0000
     10  CAA       -3.2970    5.6360   17.0040 C.3   201  HEM201      0.0000
     11  CBA       -3.7560    6.5420   15.8330 C.3   201  HEM201      0.0000
     12  CGA       -2.8380    6.6410   14.6290 C.2   201  HEM201      0.0000
     13  O1A       -1.6610    7.0310   14.7460 O.co2 201  HEM201      0.0000
     14  O2A       -3.3450    6.2800   13.5110 O.co2 201  HEM201      0.0000
     15  C1B       -3.6000   -0.1910   14.8200 C.ar  201  HEM201      0.0000
     16  C2B       -4.3080   -1.3520   14.4190 C.ar  201  HEM201      0.0000
     17  C3B       -3.4100   -2.2680   14.0350 C.ar  201  HEM201      0.0000
     18  C4B       -2.0700   -1.6580   14.2020 C.ar  201  HEM201      0.0000
     19  CMB       -5.8410   -1.4510   14.4550 C.3   201  HEM201      0.0000
     20  CAB       -3.6260   -3.7070   13.5050 C.3   201  HEM201      0.0000
     21  CBB       -4.5230   -4.6170   14.4280 C.3   201  HEM201      0.0000
     22  C1C        0.4010   -1.7110   14.0950 C.2   201  HEM201      0.0000
     23  C2C        1.6300   -2.4030   13.8240 C.2   201  HEM201      0.0000
     24  C3C        2.6330   -1.5190   14.1220 C.2   201  HEM201      0.0000
     25  C4C        1.9870   -0.3010   14.5720 C.2   201  HEM201      0.0000
     26  CMC        1.7080   -3.8340   13.3140 C.3   201  HEM201      0.0000
     27  CAC        4.1680   -1.6390   14.0540 C.3   201  HEM201      0.0000
     28  CBC        4.7710   -2.9980   14.4620 C.3   201  HEM201      0.0000
     29  C1D        2.0770    2.0000   15.4360 C.ar  201  HEM201      0.0000
     30  C2D        2.7650    3.2280   15.9070 C.ar  201  HEM201      0.0000
     31  C3D        1.8720    4.1390   16.2990 C.ar  201  HEM201      0.0000
     32  C4D        0.5490    3.5020   16.0660 C.ar  201  HEM201      0.0000
     33  CMD        4.3340    3.3170   15.9150 C.3   201  HEM201      0.0000
     34  CAD        2.1550    5.4830   16.8600 C.3   201  HEM201      0.0000
     35  CBD        2.2960    5.2770   18.4050 C.3   201  HEM201      0.0000
     36  CGD        2.4540    6.4810   19.2950 C.2   201  HEM201      0.0000
     37  O1D        1.4860    7.1130   19.7700 O.co2 201  HEM201      0.0000
     38  O2D        3.6550    6.7870   19.5200 O.co2 201  HEM201      0.0000
     39  NA        -2.1040    2.2740   15.6800 N.2   201  HEM201      0.0000
     40  NB        -2.2030   -0.3710   14.6830 N.ar  201  HEM201      0.0000
     41  NC         0.6240   -0.4600   14.5450 N.2   201  HEM201      0.0000
     42  ND         0.7100    2.2470   15.5650 N.ar  201  HEM201      0.0000
     43 FE         -0.7430    0.9370   15.0930 Fe    201  HEM201      0.0000
@<TRIPOS>BOND
     1    26    23    1
     2    20    17    1
     3    20    21    1
     4    14    12   ar
     5    23    22    1
     6    23    24    2
     7     3    22    2
     8     3    18    1
     9    17    18   ar
    10    17    16   ar
    11    27    24    1
    12    27    28    1
    13    22    41    1
    14    24    25    1
    15    18    40   ar
    16    16    19    1
    17    16    15   ar
    18    41    25    2
    19    41    43    1
    20    25     4    1
    21    12    13   ar
    22    12    11    1
    23    40    15   ar
    24    40    43    1
    25    15     2    1
    26     4    29    2
    27    43    42    1
    28    43    39    1
    29     2     8    2
    30    29    42   ar
    31    29    30   ar
    32    42    32   ar
    33    39     8    1
    34    39     5    2
    35     8     7    1
    36    11    10    1
    37    30    33    1
    38    30    31   ar
    39    32    31   ar
    40    32     1    2
    41     5     1    1
    42     5     6    1
    43     7     9    1
    44     7     6    2
    45    31    34    1
    46     6    10    1
    47    34    35    1
    48    35    36    1
    49    36    38   ar
    50    36    37   ar
