@<TRIPOS>MOLECULE
4dcb_C8E_A_1.pdb
 21 20 0 0 0
SMALL
GASTEIGER

@<TRIPOS>ATOM
      1  C1        -4.5370   26.5530   51.8270 C.3   407  C8E407      0.0000
      2  C2        -5.2830   27.5660   52.6920 C.3   407  C8E407      0.0000
      3  C3        -6.7470   27.7310   52.2830 C.3   407  C8E407      0.0000
      4  C4        -6.9930   29.0270   51.5150 C.3   407  C8E407      0.0000
      5  C5        -8.2550   28.9510   50.6640 C.3   407  C8E407      0.0001
      6  C6        -7.9800   29.2740   49.2040 C.3   407  C8E407      0.0026
      7  C7        -8.7240   28.3090   48.2770 C.3   407  C8E407      0.0321
      8  C8        -8.0000   28.0890   46.9500 C.3   407  C8E407      0.1423
      9  O9        -8.0370   26.7170   46.5940 O.3   407  C8E407     -0.3511
     10  C10       -6.7700   26.0930   46.6950 C.3   407  C8E407      0.1741
     11  C11       -6.9530   24.5900   46.7880 C.3   407  C8E407      0.1742
     12  O12       -5.7560   23.9480   47.1840 O.3   407  C8E407     -0.3484
     13  C13       -5.7620   23.5940   48.5490 C.3   407  C8E407      0.1742
     14  C14       -4.8050   22.4370   48.8180 C.3   407  C8E407      0.1742
     15  O15       -5.4970   21.4420   49.5440 O.3   407  C8E407     -0.3484
     16  C16       -4.6530   20.6550   50.3580 C.3   407  C8E407      0.1742
     17  C17       -4.9430   19.1740   50.1360 C.3   407  C8E407      0.1742
     18  O18       -4.0290   18.3730   50.8650 O.3   407  C8E407     -0.3483
     19  C19       -4.3520   18.2160   52.2320 C.3   407  C8E407      0.1777
     20  C20       -4.4160   16.7330   52.5820 C.3   407  C8E407      0.2140
     21  O21       -3.4980   16.4260   53.6120 O.3   407  C8E407     -0.2176
@<TRIPOS>BOND
     1     9    10    1
     2     9     8    1
     3    10    11    1
     4    11    12    1
     5     8     7    1
     6    12    13    1
     7     7     6    1
     8    13    14    1
     9    14    15    1
    10     6     5    1
    11    15    16    1
    12    17    16    1
    13    17    18    1
    14     5     4    1
    15    18    19    1
    16     4     3    1
    17     1     2    1
    18    19    20    1
    19     3     2    1
    20    20    21    1
