@<TRIPOS>MOLECULE
4dcd_K36_A_1.pdb
 29 30 0 0 0
SMALL
GASTEIGER

@<TRIPOS>ATOM
      1  C7         8.3580    8.9300   32.8330 C.3   202  K36202      0.2368
      2  O8         9.5160    9.6110   32.3290 O.3   202  K36202     -0.4285
      3  C9         9.7440    9.6310   30.9030 C.2   202  K36202      0.4218
      4  O10        8.8820    9.2600   30.1120 O.2   202  K36202     -0.2245
      5  C1         7.3630    9.9550   33.3240 C.ar  202  K36202      0.0213
      6  C2         6.7390   10.7680   32.3970 C.ar  202  K36202     -0.0007
      7  C3         5.8070   11.7100   32.8180 C.ar  202  K36202     -0.0002
      8  C4         5.5330   11.8480   34.1740 C.ar  202  K36202     -0.0000
      9  C5         6.1710   11.0450   35.1070 C.ar  202  K36202     -0.0002
     10  C6         7.0900   10.0890   34.6820 C.ar  202  K36202     -0.0007
     11  N11       10.9600   10.1030   30.5080 N.am  202  K36202     -0.1611
     12  C12       11.5580    9.8310   29.2040 C.3   202  K36202      0.1761
     13  C17       11.4120    8.4740   28.5740 C.2   202  K36202      0.2614
     14  O18       11.7510    7.4950   29.2320 O.2   202  K36202     -0.2715
     15  C13       12.8660   10.5580   28.8820 C.3   202  K36202      0.0312
     16  C14       12.9150   11.9880   29.4130 C.3   202  K36202      0.0022
     17  C15       14.3590   12.4210   29.6240 C.3   202  K36202      0.0001
     18  C16       12.2040   12.9390   28.4730 C.3   202  K36202      0.0001
     19  N19       10.9900    8.3640   27.2770 N.am  202  K36202     -0.2030
     20  C20       10.8250    7.0390   26.6400 C.3   202  K36202      0.1293
     21  C21       11.4550    6.9850   25.2520 C.3   202  K36202      0.2036
     22  O22       12.8680    7.1640   25.3480 O.3   202  K36202     -0.2185
     23  C24        9.3380    6.7400   26.4790 C.3   202  K36202      0.0409
     24  C25        8.6370    6.6300   27.8090 C.3   202  K36202      0.1101
     25  C26        9.1520    5.5270   28.7220 C.3   202  K36202      0.0438
     26  C27        7.9130    5.0260   29.4520 C.3   202  K36202      0.1387
     27  N28        6.7920    5.3270   28.5580 N.2   202  K36202     -0.2063
     28  C29        7.2240    6.2170   27.6280 C.1   202  K36202      0.1250
     29  O30        6.4860    6.5880   26.7230 O.2   202  K36202     -0.2271
@<TRIPOS>BOND
     1    21    22    1
     2    21    20    1
     3    23    20    1
     4    23    24    1
     5    20    19    1
     6    29    28    2
     7    19    13   am
     8    28    24    1
     9    28    27    2
    10    24    25    1
    11    18    16    1
    12    27    26    1
    13    13    12    1
    14    13    14    2
    15    25    26    1
    16    15    12    1
    17    15    16    1
    18    12    11    1
    19    16    17    1
    20     4     3    2
    21    11     3   am
    22     3     2    1
    23     2     1    1
    24     6     7   ar
    25     6     5   ar
    26     7     8   ar
    27     1     5    1
    28     5    10   ar
    29     8     9   ar
    30    10     9   ar
