@<TRIPOS>MOLECULE
4dce_0JF_A_1.pdb
 36 39 0 0 0
SMALL
GASTEIGER

@<TRIPOS>ATOM
      1  C24        5.7780   20.0630   37.4190 C.3   1501  0JF1501     0.2526
      2  O2         6.7920   20.2780   36.4240 O.3   1501  0JF1501    -0.4682
      3  C5         8.0910   19.9970   36.7930 C.ar  1501  0JF1501     0.1768
      4  C6         8.4030   19.1410   37.8670 C.ar  1501  0JF1501     0.0576
      5  C4         9.1290   20.5870   36.0580 C.ar  1501  0JF1501     0.2061
      6  O3         8.8370   21.4130   35.0050 O.3   1501  0JF1501    -0.4654
      7  C25        8.9520   22.8190   35.3160 C.3   1501  0JF1501     0.2528
      8  C3        10.4600   20.3150   36.3880 C.ar  1501  0JF1501     0.1768
      9  O4        11.4790   20.8840   35.6780 O.3   1501  0JF1501    -0.4682
     10  C26       12.2860   19.9240   35.0050 C.3   1501  0JF1501     0.2526
     11  C2        10.7500   19.4770   37.4630 C.ar  1501  0JF1501     0.0576
     12  C1         9.7370   18.8850   38.2110 C.ar  1501  0JF1501     0.0888
     13  N5        10.1260   18.0740   39.2170 N.pl3 1501  0JF1501    -0.1355
     14  C16        9.5180   17.8520   40.3880 C.1   1501  0JF1501     0.1709
     15  N2         8.3640   18.4550   40.6980 N.2   1501  0JF1501    -0.3207
     16  N1        10.0820   16.9970   41.2680 N.2   1501  0JF1501    -0.1683
     17  C15        9.5190   16.7260   42.4390 C.2   1501  0JF1501     0.1158
     18  C14        8.3260   17.3460   42.7860 C.2   1501  0JF1501     0.0701
     19  C13        7.7610   18.2350   41.8740 C.2   1501  0JF1501     0.1978
     20  N3         6.5550   18.8740   42.1530 N.pl3 1501  0JF1501    -0.2823
     21  C19        5.8990   18.6890   43.4560 C.3   1501  0JF1501     0.1022
     22  C18        5.8290   19.6840   41.1440 C.3   1501  0JF1501     0.0932
     23  C17        4.5050   18.9450   40.8470 C.3   1501  0JF1501     0.0220
     24  C21        3.7670   18.5090   42.1330 C.3   1501  0JF1501     0.0126
     25  C20        4.6800   17.8110   43.1630 C.3   1501  0JF1501     0.0980
     26  C22        3.9550   17.5690   44.4730 C.2   1501  0JF1501     0.2429
     27  O1         3.5330   18.5180   45.1350 O.2   1501  0JF1501    -0.2733
     28  N4         3.8510   16.2840   44.8220 N.am  1501  0JF1501    -0.2005
     29  C23        3.1940   15.8620   46.0700 C.3   1501  0JF1501     0.1415
     30  C7         3.0010   14.3550   46.0190 C.ar  1501  0JF1501    -0.0006
     31  C8         1.7090   13.8350   45.9450 C.ar  1501  0JF1501    -0.0029
     32  C9         1.5250   12.4520   45.8880 C.ar  1501  0JF1501    -0.0045
     33  C10        2.6290   11.6060   45.9060 C.ar  1501  0JF1501    -0.0219
     34  C27        2.4250   10.0930   45.8450 C.3   1501  0JF1501     0.0310
     35  C11        3.9140   12.1350   45.9830 C.ar  1501  0JF1501    -0.0045
     36  C12        4.1060   13.5130   46.0400 C.ar  1501  0JF1501    -0.0029
@<TRIPOS>BOND
     1    10     9    1
     2     6     7    1
     3     6     5    1
     4     9     8    1
     5     5     8   ar
     6     5     3   ar
     7     8    11   ar
     8     2     3    1
     9     2     1    1
    10     3     4   ar
    11    11    12   ar
    12     4    12   ar
    13    12    13    1
    14    13    14    1
    15    14    15    2
    16    14    16    2
    17    15    19    2
    18    23    22    1
    19    23    24    1
    20    22    20    1
    21    16    17    1
    22    19    20    1
    23    19    18    1
    24    24    25    1
    25    20    21    1
    26    17    18    2
    27    25    21    1
    28    25    26    1
    29    26    28   am
    30    26    27    2
    31    28    29    1
    32    34    33    1
    33    32    33   ar
    34    32    31   ar
    35    33    35   ar
    36    31    30   ar
    37    35    36   ar
    38    30    36   ar
    39    30    29    1
