@<TRIPOS>MOLECULE
4dcf_PG4_A_1.pdb
 13 12 0 0 0
SMALL
GASTEIGER

@<TRIPOS>ATOM
      1  O1        15.1840    4.0230    5.3930 O.3   201  PG4201     -0.2176
      2  C1        14.4240    2.9660    4.7830 C.3   201  PG4201      0.2140
      3  C2        15.2680    1.6860    4.7120 C.3   201  PG4201      0.1777
      4  O2        15.3330    1.0970    6.0140 O.3   201  PG4201     -0.3483
      5  C3        14.4400   -0.0200    6.1180 C.3   201  PG4201      0.1742
      6  C4        13.5290    0.1450    7.3480 C.3   201  PG4201      0.1742
      7  O3        12.5350   -0.8940    7.4170 O.3   201  PG4201     -0.3484
      8  C5        12.0580   -1.3030    6.1160 C.3   201  PG4201      0.1742
      9  C6        10.5670   -0.9980    5.9350 C.3   201  PG4201      0.1742
     10  O4         9.7950   -1.8500    6.7920 O.3   201  PG4201     -0.3483
     11  C7         8.8140   -2.5740    6.0450 C.3   201  PG4201      0.1777
     12  C8         7.4580   -2.4810    6.7490 C.3   201  PG4201      0.2140
     13  O5         6.4300   -2.4660    5.7470 O.3   201  PG4201     -0.2176
@<TRIPOS>BOND
     1     3     2    1
     2     3     4    1
     3     2     1    1
     4    13    12    1
     5     9     8    1
     6     9    10    1
     7     4     5    1
     8    11    12    1
     9    11    10    1
    10     8     7    1
    11     5     6    1
    12     6     7    1
