@<TRIPOS>MOLECULE
4dcg_SAH_A_1.pdb
 30 32 0 0 0
SMALL
GASTEIGER

@<TRIPOS>ATOM
      1  N         -4.1200   12.7800   24.0710 N.3   400  SAH400     -0.2362
      2  CA        -4.2080   11.7770   25.1220 C.3   400  SAH400      0.1728
      3  CB        -2.8750   11.0170   25.2280 C.3   400  SAH400      0.0403
      4  CG        -2.5130   10.2910   23.9290 C.3   400  SAH400      0.0596
      5  SD        -1.2200    9.0770   24.0770 S.3   400  SAH400     -0.1375
      6  C         -4.6100   12.3960   26.4720 C.2   400  SAH400      0.3800
      7  O         -5.0660   13.5580   26.4810 O.co2 400  SAH400     -0.2441
      8  OXT       -4.4710   11.7130   27.5080 O.co2 400  SAH400     -0.2441
      9  C5'       -1.2830    8.4740   22.3820 C.3   400  SAH400      0.0899
     10  C4'       -2.5650    7.7560   22.0060 C.3   400  SAH400      0.1629
     11  O4'       -2.5730    7.6530   20.5470 O.3   400  SAH400     -0.3154
     12  C3'       -2.7150    6.3850   22.5880 C.3   400  SAH400      0.2132
     13  O3'       -3.8700    6.3140   23.5480 O.3   400  SAH400     -0.2176
     14  C2'       -2.9460    5.5750   21.3900 C.3   400  SAH400      0.2171
     15  O2'       -3.8580    4.4300   21.6580 O.3   400  SAH400     -0.3762
     16  C1'       -3.4610    6.5250   20.4030 C.3   400  SAH400      0.3149
     17  N9        -3.3960    6.0680   18.9820 N.pl3 400  SAH400     -0.1440
     18  C8        -2.2940    5.5570   18.2730 C.3   400  SAH400      0.3377
     19  N7        -2.6960    5.2810   16.9310 N.2   400  SAH400     -0.2098
     20  C5        -4.0490    5.6410   16.8940 C.2   400  SAH400      0.2438
     21  C6        -5.0200    5.5940   15.8840 C.2   400  SAH400      0.3428
     22  N6        -4.7690    5.1440   14.6390 N.pl3 400  SAH400     -0.2449
     23  N1        -6.2670    5.9910   16.1650 N.2   400  SAH400     -0.0059
     24  C2        -6.5340    6.4090   17.3740 C.3   400  SAH400      0.5252
     25  N3        -5.7400    6.5010   18.3860 N.2   400  SAH400     -0.0055
     26  C4        -4.4800    6.1010   18.0960 C.2   400  SAH400      0.3515
     27  HN1       -4.3370   12.4550   23.1720 H     400  SAH400      0.1419
     28 HO2'       -3.5390    3.6920   21.1320 H     400  SAH400      0.2107
     29 HN61       -3.8360    4.8260   14.4140 H     400  SAH400      0.2885
     30 HN62       -5.4690    5.1140   13.9040 H     400  SAH400      0.2885
@<TRIPOS>BOND
     1    30    22    1
     2    29    22    1
     3    22    21    1
     4    21    23    2
     5    21    20    1
     6    23    24    1
     7    20    19    2
     8    20    26    1
     9    19    18    1
    10    24    25    1
    11    26    25    2
    12    26    17    1
    13    18    17    1
    14    17    16    1
    15    16    11    1
    16    16    14    1
    17    11    10    1
    18    28    15    1
    19    14    15    1
    20    14    12    1
    21    10     9    1
    22    10    12    1
    23     9     5    1
    24    12    13    1
    25    27     1    1
    26     4     5    1
    27     4     3    1
    28     1     2    1
    29     2     3    1
    30     2     6    1
    31     6     7   ar
    32     6     8   ar
