@<TRIPOS>MOLECULE
4dcg_MG7_A_1.pdb
 21 23 0 0 0
SMALL
GASTEIGER

@<TRIPOS>ATOM
      1  N9        16.9280   11.7950   21.9340 N.pl3 401  MG7401     -0.2454
      2  C8        16.1630   12.7130   22.5810 C.3   401  MG7401      0.1735
      3  N7        16.3490   14.0330   22.1040 N.3   401  MG7401     -0.2343
      4  C5        17.3070   13.8220   21.1000 C.3   401  MG7401      0.2475
      5  C6        17.8780   14.7980   20.2520 C.1   401  MG7401      0.2145
      6  O6        17.5350   16.1890   20.2890 O.2   401  MG7401     -0.2115
      7  N1        18.8430   14.2530   19.2920 N.2   401  MG7401     -0.2526
      8  C2        19.1510   12.8920   19.2370 C.1   401  MG7401      0.2525
      9  N2        20.0320   12.5000   18.2960 N.pl3 401  MG7401     -0.0226
     10  N3        18.5830   11.9850   20.0660 N.2   401  MG7401     -0.3118
     11  C4        17.6780   12.4940   20.9690 C.2   401  MG7401      0.2086
     12  O5'       20.9130   10.6670   22.8500 O.3   401  MG7401     -0.2176
     13  C5'       20.2720    9.4970   23.4280 C.3   401  MG7401      0.2142
     14  C4'       18.7590    9.1830   23.0460 C.3   401  MG7401      0.1828
     15  O4'       17.8430   10.2470   23.3760 O.3   401  MG7401     -0.3325
     16  C1'       16.8890   10.3810   22.3140 C.3   401  MG7401      0.2287
     17  CN7       15.4970   15.1560   22.4650 C.3   401  MG7401      0.0924
     18  C2'       17.1990    9.4140   21.3180 C.3   401  MG7401      0.2310
     19  O2'       16.1050    8.5060   21.5590 O.3   401  MG7401     -0.2158
     20  C3'       18.5980    9.0160   21.6280 C.3   401  MG7401      0.2159
     21  O3'       18.9740    7.6120   21.3290 O.3   401  MG7401     -0.2175
@<TRIPOS>BOND
     1     9     8    1
     2     8     7    2
     3     8    10    2
     4     7     5    2
     5    10    11    2
     6     5     6    2
     7     5     4    1
     8    11     4    1
     9    11     1    1
    10     4     3    1
    11    18    19    1
    12    18    20    1
    13    18    16    1
    14    21    20    1
    15    20    14    1
    16     1    16    1
    17     1     2    1
    18     3    17    1
    19     3     2    1
    20    16    15    1
    21    12    13    1
    22    14    15    1
    23    14    13    1
