@<TRIPOS>MOLECULE
4dch_4DC_A_1.pdb
 25 27 0 0 0
SMALL
GASTEIGER

@<TRIPOS>ATOM
      1  C1         4.4280   -8.3590   -3.2520 C.ar  502  4DC502     -0.0137
      2  C2         4.3060   -7.8230   -4.5300 C.ar  502  4DC502     -0.0025
      3  C3         3.0710   -7.3720   -4.9860 C.ar  502  4DC502      0.0180
      4  C4         1.9460   -7.4780   -4.1770 C.ar  502  4DC502      0.1057
      5  C5         2.0660   -8.0070   -2.8950 C.ar  502  4DC502      0.0180
      6  C6         3.3080   -8.4440   -2.4310 C.ar  502  4DC502     -0.0025
      7  N7         7.1400  -10.7620   -2.3680 N.am  502  4DC502     -0.1540
      8  C8         5.8920  -10.2310   -2.2810 C.2   502  4DC502      0.2509
      9  O9         4.9030  -10.8350   -1.8420 O.2   502  4DC502     -0.2726
     10  C10        5.7820   -8.8090   -2.7570 C.3   502  4DC502      0.1008
     11  C11        6.3180   -7.9220   -1.5990 C.3   502  4DC502      0.0136
     12  C12        6.4920   -6.4350   -1.9010 C.3   502  4DC502      0.0008
     13  C13        6.9650   -5.6900   -0.6370 C.3   502  4DC502      0.0000
     14  C14        8.3560   -5.1290   -0.9870 C.3   502  4DC502      0.0000
     15  C15        8.8190   -5.8120   -2.2540 C.3   502  4DC502      0.0000
     16  C16        7.5340   -6.1880   -2.9930 C.3   502  4DC502      0.0000
     17  C17        7.4360  -12.0070   -1.8920 C.ar  502  4DC502      0.1859
     18  S18        6.3440  -12.9090   -0.9370 S.2   502  4DC502     -0.0491
     19  C19        7.5070  -14.1740   -0.6540 C.ar  502  4DC502      0.0588
     20  C20        8.6860  -13.8180   -1.3300 C.ar  502  4DC502      0.1079
     21  N21        8.6350  -12.6250   -2.0050 N.ar  502  4DC502     -0.2209
     22  S22        0.4730   -6.9820   -4.7520 S.O2  502  4DC502      0.0104
     23  C23        0.6760   -5.6910   -5.7460 C.3   502  4DC502      0.1816
     24  O24       -0.0980   -8.1120   -5.4640 O.2   502  4DC502     -0.1686
     25  O25       -0.4460   -6.6640   -3.7080 O.2   502  4DC502     -0.1686
@<TRIPOS>BOND
     1    23    22    1
     2    24    22    2
     3     3     2   ar
     4     3     4   ar
     5    22     4    1
     6    22    25    2
     7     2     1   ar
     8     4     5   ar
     9     1    10    1
    10     1     6   ar
    11    16    15    1
    12    16    12    1
    13     5     6   ar
    14    10     8    1
    15    10    11    1
    16     7     8   am
    17     7    17    1
    18     8     9    2
    19    15    14    1
    20    21    17   ar
    21    21    20   ar
    22    12    11    1
    23    12    13    1
    24    17    18   ar
    25    20    19   ar
    26    14    13    1
    27    18    19   ar
