@<TRIPOS>MOLECULE
4dch_GLC_A_1.pdb
 12 12 0 0 0
SMALL
GASTEIGER

@<TRIPOS>ATOM
      1  C1        23.7690   -4.4390   12.1080 C.3   501  GLC501      0.3024
      2  C2        23.3020   -5.8460   11.7260 C.3   501  GLC501      0.2434
      3  C3        22.2300   -5.7630   10.6190 C.3   501  GLC501      0.2199
      4  C4        21.1430   -4.7540   11.0210 C.3   501  GLC501      0.2144
      5  C5        21.7390   -3.3790   11.4400 C.3   501  GLC501      0.1836
      6  C6        20.6900   -2.3590   11.9070 C.3   501  GLC501      0.2142
      7  O1        24.5090   -3.8300   11.0520 O.3   501  GLC501     -0.1869
      8  O2        24.4010   -6.6290   11.2610 O.3   501  GLC501     -0.2148
      9  O3        21.6970   -7.0650   10.3230 O.3   501  GLC501     -0.2174
     10  O4        20.2520   -4.5740    9.9210 O.3   501  GLC501     -0.2176
     11  O5        22.7070   -3.5560   12.4800 O.3   501  GLC501     -0.3236
     12  O6        20.0420   -2.9230   13.0290 O.3   501  GLC501     -0.2176
@<TRIPOS>BOND
     1    10     4    1
     2     9     3    1
     3     3     4    1
     4     3     2    1
     5     4     5    1
     6     7     1    1
     7     8     2    1
     8     5     6    1
     9     5    11    1
    10     2     1    1
    11     6    12    1
    12     1    11    1
