@<TRIPOS>MOLECULE
4dcj_III_C_1.pdb
 35 34 0 0 0
SMALL
GASTEIGER

@<TRIPOS>ATOM
      1  C         22.9050    8.7330   45.7620 C.2   501  ACE501      0.2423
      2  O         23.0650    7.5560   45.4130 O.2   501  ACE501     -0.2733
      3  CH3       23.0620    9.1470   47.2220 C.3   501  ACE501      0.0964
      4  N         22.6400    9.7110   44.9010 N.am  502  ASP502     -0.1972
      5  CA        22.3700    9.3870   43.4710 C.3   502  ASP502      0.1839
      6  C         23.6610    9.0640   42.7360 C.2   502  ASP502      0.2622
      7  O         24.6340    9.8180   42.8020 O.2   502  ASP502     -0.2715
      8  CB        21.6750   10.5550   42.7690 C.3   502  ASP502      0.1450
      9  CG        20.3210   10.8710   43.3690 C.2   502  ASP502      0.3671
     10  OD1       19.6200    9.9200   43.7730 O.co2 502  ASP502     -0.2456
     11  OD2       19.9540   12.0630   43.4220 O.co2 502  ASP502     -0.2456
     12  N         23.6670    7.9360   42.0360 N.am  503  GLU503     -0.1963
     13  CA        24.8390    7.5120   41.2780 C.3   503  GLU503      0.1733
     14  C         24.3670    7.1020   39.8930 C.2   503  GLU503      0.2616
     15  O         23.1880    6.7930   39.7250 O.2   503  GLU503     -0.2715
     16  CB        25.5030    6.3210   41.9550 C.3   503  GLU503      0.0429
     17  CG        25.7470    6.5200   43.4330 C.3   503  GLU503      0.1163
     18  CD        26.5140    5.3740   44.0490 C.2   503  GLU503      0.3649
     19  OE1       26.4950    4.2600   43.4850 O.co2 503  GLU503     -0.2457
     20  OE2       27.1300    5.5910   45.1130 O.co2 503  GLU503     -0.2457
     21  N         25.2720    7.1030   38.9150 N.am  504  VAL504     -0.1963
     22  CA        24.8900    6.7100   37.5730 C.3   504  VAL504      0.1727
     23  C         25.3630    5.3180   37.2470 C.2   504  VAL504      0.2613
     24  O         26.3400    4.8480   37.8720 O.2   504  VAL504     -0.2715
     25  CB        25.4540    7.6610   36.4850 C.3   504  VAL504      0.0290
     26  CG1       24.9340    9.0740   36.7170 C.3   504  VAL504      0.0023
     27  CG2       26.9710    7.6260   36.4970 C.3   504  VAL504      0.0023
     28  C         25.2920    3.4200   34.7330 C.3   505  ASJ505      0.2041
     29  N         24.4200    4.4290   36.7810 N.am  505  ASJ505     -0.2025
     30  O         25.4340    2.2300   33.9480 O.3   505  ASJ505     -0.2185
     31  CA        24.5980    3.1470   36.0670 C.3   505  ASJ505      0.1395
     32  CB        23.2550    2.4320   35.9250 C.3   505  ASJ505      0.1383
     33  CG        22.9010    1.7160   37.2340 C.2   505  ASJ505      0.3667
     34  OD1       23.8320    1.5960   38.0670 O.co2 505  ASJ505     -0.2456
     35  OD2       21.6980    1.4940   37.4540 O.co2 505  ASJ505     -0.2456
@<TRIPOS>BOND
     1    30    28    1
     2    28    31    1
     3    32    31    1
     4    32    33    1
     5    31    29    1
     6    25    27    1
     7    25    26    1
     8    25    22    1
     9    29    23   am
    10    33    35   ar
    11    33    34   ar
    12    23    22    1
    13    23    24    2
    14    22    21    1
    15    21    14   am
    16    15    14    2
    17    14    13    1
    18    13    16    1
    19    13    12    1
    20    16    17    1
    21    12     6   am
    22     6     7    2
    23     6     5    1
    24     8     9    1
    25     8     5    1
    26     9    11   ar
    27     9    10   ar
    28    17    18    1
    29     5     4    1
    30    19    18   ar
    31    18    20   ar
    32     4     1   am
    33     2     1    2
    34     1     3    1
