@<TRIPOS>MOLECULE
4dcm_SAM_A_1.pdb
 27 29 0 0 0
SMALL
GASTEIGER

@<TRIPOS>ATOM
      1  N         43.4610   -5.3960   45.9200 N.3   401  SAM401     -0.1208
      2  CA        43.0830   -6.4420   46.8680 C.3   401  SAM401      0.1952
      3  C         42.9830   -7.7920   46.1690 C.2   401  SAM401      0.3819
      4  O         42.8260   -8.8280   46.8180 O.co2 401  SAM401     -0.2441
      5  OXT       43.0670   -7.8720   44.9400 O.co2 401  SAM401     -0.2441
      6  CB        41.7740   -6.1160   47.5790 C.3   401  SAM401      0.0414
      7  CG        40.5380   -5.9690   46.6930 C.3   401  SAM401      0.0503
      8  SD        39.0060   -5.7540   47.6570 S.3   401  SAM401     -0.1761
      9  CE        37.8660   -6.8390   46.7610 C.3   401  SAM401      0.0590
     10  C5'       38.3570   -4.1470   47.1120 C.3   401  SAM401      0.0806
     11  C4'       38.9650   -2.9600   47.8540 C.3   401  SAM401      0.1622
     12  O4'       38.4810   -1.7330   47.3400 O.3   401  SAM401     -0.3153
     13  C3'       38.6480   -2.9610   49.3410 C.3   401  SAM401      0.2168
     14  O3'       39.8860   -2.9790   50.0190 O.3   401  SAM401     -0.2175
     15  C2'       37.9250   -1.6470   49.5880 C.3   401  SAM401      0.2569
     16  O2'       38.2880   -1.0340   50.8080 O.3   401  SAM401     -0.2130
     17  C1'       38.3600   -0.8080   48.3980 C.3   401  SAM401      0.3185
     18  N9        37.3780    0.2030   48.0060 N.pl3 401  SAM401     -0.1439
     19  C8        36.0120    0.0870   48.0530 C.3   401  SAM401      0.3377
     20  N7        35.4810    1.2410   47.5820 N.2   401  SAM401     -0.2095
     21  C5        36.4850    2.0840   47.2420 C.2   401  SAM401      0.2526
     22  C6        36.4940    3.3770   46.7210 C.2   401  SAM401      0.4393
     23  N6        35.3530    4.0170   46.4630 N.pl3 401  SAM401      0.2180
     24  N1        37.7020    3.9950   46.4700 N.2   401  SAM401      0.0021
     25  C2        38.8850    3.3360   46.7360 C.3   401  SAM401      0.5254
     26  N3        38.8680    2.0510   47.2550 N.2   401  SAM401     -0.0055
     27  C4        37.6870    1.4380   47.5050 C.2   401  SAM401      0.3518
@<TRIPOS>BOND
     1     5     3   ar
     2     1     2    1
     3     3     4   ar
     4     3     2    1
     5    23    22    1
     6    24    22    2
     7    24    25    1
     8     7     6    1
     9     7     8    1
    10    22    21    1
    11    25    26    1
    12     9     8    1
    13     2     6    1
    14    10     8    1
    15    10    11    1
    16    21    27    1
    17    21    20    2
    18    26    27    2
    19    12    11    1
    20    12    17    1
    21    27    18    1
    22    20    19    1
    23    11    13    1
    24    18    19    1
    25    18    17    1
    26    17    15    1
    27    13    15    1
    28    13    14    1
    29    15    16    1
