@<TRIPOS>MOLECULE
4dcn_GNP_A_1.pdb
 32 34 0 0 0
SMALL
GASTEIGER

@<TRIPOS>ATOM
      1  PG       -22.7000   51.6090  -10.8290 P.3   202  GNP202      0.4884
      2  O1G      -22.6360   52.5860  -11.9710 O.2   202  GNP202     -0.2331
      3  O2G      -21.7450   50.4450  -10.9100 O.3   202  GNP202     -0.1240
      4  O3G      -22.5340   52.4660   -9.6000 O.3   202  GNP202     -0.1240
      5  N3B      -24.1680   51.0130  -10.7300 N.3   202  GNP202     -0.0163
      6  PB       -24.8370   50.1050  -11.8490 P.3   202  GNP202      0.4669
      7  O1B      -25.2410   50.9260  -13.0130 O.2   202  GNP202     -0.2351
      8  O2B      -23.8830   49.0000  -12.0880 O.3   202  GNP202     -0.1253
      9  O3A      -26.1350   49.5160  -11.2790 O.3   202  GNP202     -0.2360
     10  PA       -26.3720   48.0320  -10.9760 P.3   202  GNP202      0.2220
     11  O1A      -26.4440   47.2980  -12.2550 O.2   202  GNP202     -0.5170
     12  O2A      -25.3980   47.5350   -9.9800 O.3   202  GNP202     -0.4370
     13  O5'      -27.8020   47.9070  -10.3110 O.3   202  GNP202     -0.3111
     14  C5'      -28.0030   48.3330   -8.9650 C.3   202  GNP202      0.1813
     15  C4'      -29.3800   47.9550   -8.4470 C.3   202  GNP202      0.1799
     16  O4'      -30.3980   48.6740   -9.1880 O.3   202  GNP202     -0.3326
     17  C3'      -29.7730   46.4880   -8.5890 C.3   202  GNP202      0.2158
     18  O3'      -29.2500   45.7110   -7.5200 O.3   202  GNP202     -0.2175
     19  C2'      -31.2950   46.5770   -8.5210 C.3   202  GNP202      0.2310
     20  O2'      -31.7870   46.6900   -7.1950 O.3   202  GNP202     -0.2158
     21  C1'      -31.5590   47.8650   -9.3020 C.3   202  GNP202      0.2293
     22  N9       -31.8790   47.6450  -10.7170 N.pl3 202  GNP202     -0.2354
     23  C8       -30.9990   47.5070  -11.7670 C.3   202  GNP202      0.2246
     24  N7       -31.5790   47.3240  -12.9210 N.2   202  GNP202     -0.2322
     25  C5       -32.9340   47.3390  -12.6220 C.2   202  GNP202      0.2182
     26  C6       -34.0580   47.1860  -13.4680 C.1   202  GNP202      0.2372
     27  O6       -34.0710   47.0080  -14.6900 O.2   202  GNP202     -0.2069
     28  N1       -35.2640   47.2630  -12.7700 N.2   202  GNP202     -0.2485
     29  C2       -35.3690   47.4630  -11.4130 C.1   202  GNP202      0.2531
     30  N2       -36.6100   47.5110  -10.9080 N.pl3 202  GNP202     -0.0226
     31  N3       -34.3220   47.6060  -10.6060 N.2   202  GNP202     -0.3074
     32  C4       -33.1380   47.5330  -11.2720 C.2   202  GNP202      0.2300
@<TRIPOS>BOND
     1    27    26    2
     2    26    28    2
     3    26    25    1
     4     7     6    2
     5    24    25    2
     6    24    23    1
     7    28    29    2
     8    25    32    1
     9    11    10    2
    10     8     6    1
    11     2     1    2
    12     6     9    1
    13     6     5    1
    14    23    22    1
    15    29    30    1
    16    29    31    2
    17     9    10    1
    18    32    22    1
    19    32    31    2
    20    10    13    1
    21    10    12    1
    22     3     1    1
    23     1     5    1
    24     1     4    1
    25    22    21    1
    26    13    14    1
    27    21    16    1
    28    21    19    1
    29    16    15    1
    30    14    15    1
    31    17    19    1
    32    17    15    1
    33    17    18    1
    34    19    20    1
