@<TRIPOS>MOLECULE
4dco_III_C_1.pdb
 35 34 0 0 0
SMALL
GASTEIGER

@<TRIPOS>ATOM
      1  C         23.1570    8.7140   45.6630 C.2   501  ACE501      0.2423
      2  O         23.2420    7.5480   45.2810 O.2   501  ACE501     -0.2733
      3  CH3       23.3410    9.0760   47.1390 C.3   501  ACE501      0.0964
      4  N         22.9270    9.7390   44.8390 N.am  502  ASP502     -0.1972
      5  CA        22.6910    9.4890   43.3860 C.3   502  ASP502      0.1839
      6  C         23.9840    9.1760   42.6480 C.2   502  ASP502      0.2622
      7  O         24.9520    9.9410   42.7060 O.2   502  ASP502     -0.2715
      8  CB        22.0180   10.6970   42.7300 C.3   502  ASP502      0.1450
      9  CG        20.6150   10.9340   43.2500 C.2   502  ASP502      0.3671
     10  OD1       19.9250    9.9430   43.5640 O.co2 502  ASP502     -0.2456
     11  OD2       20.1960   12.1060   43.3300 O.co2 502  ASP502     -0.2456
     12  N         23.9890    8.0440   41.9540 N.am  503  GLU503     -0.1963
     13  CA        25.1520    7.6180   41.1940 C.3   503  GLU503      0.1733
     14  C         24.6880    7.1090   39.8440 C.2   503  GLU503      0.2616
     15  O         23.5100    6.7940   39.6550 O.2   503  GLU503     -0.2715
     16  CB        25.8870    6.4810   41.9110 C.3   503  GLU503      0.0429
     17  CG        26.0120    6.6550   43.4170 C.3   503  GLU503      0.1163
     18  CD        26.8420    5.5630   44.0650 C.2   503  GLU503      0.3649
     19  OE1       26.8480    4.4220   43.5520 O.co2 503  GLU503     -0.2457
     20  OE2       27.4810    5.8460   45.1000 O.co2 503  GLU503     -0.2457
     21  N         25.6170    7.0430   38.9010 N.am  504  VAL504     -0.1963
     22  CA        25.2980    6.5200   37.5930 C.3   504  VAL504      0.1727
     23  C         26.0230    5.1850   37.4590 C.2   504  VAL504      0.2613
     24  O         26.0170    4.4470   38.4510 O.2   504  VAL504     -0.2715
     25  CB        25.7590    7.4670   36.4460 C.3   504  VAL504      0.0290
     26  CG1       25.0620    8.8140   36.5580 C.3   504  VAL504      0.0023
     27  CG2       27.2680    7.6410   36.4790 C.3   504  VAL504      0.0023
     28  C         25.7570    3.2650   34.3520 C.3   505  ASJ505      0.2041
     29  N         25.8780    4.6240   36.2660 N.am  505  ASJ505     -0.2025
     30  O         25.3680    2.0350   33.7370 O.3   505  ASJ505     -0.2185
     31  CA        25.4490    3.2800   35.8500 C.3   505  ASJ505      0.1395
     32  CB        23.9490    3.0730   36.0850 C.3   505  ASJ505      0.1383
     33  CG        23.6510    1.9580   37.0950 C.2   505  ASJ505      0.3667
     34  OD1       24.5720    1.6330   37.8740 O.co2 505  ASJ505     -0.2456
     35  OD2       22.4580    1.6030   37.2180 O.co2 505  ASJ505     -0.2456
@<TRIPOS>BOND
     1    30    28    1
     2    28    31    1
     3    31    32    1
     4    31    29    1
     5    32    33    1
     6    29    23   am
     7    25    27    1
     8    25    26    1
     9    25    22    1
    10    33    35   ar
    11    33    34   ar
    12    23    22    1
    13    23    24    2
    14    22    21    1
    15    21    14   am
    16    15    14    2
    17    14    13    1
    18    13    16    1
    19    13    12    1
    20    16    17    1
    21    12     6   am
    22     6     7    2
    23     6     5    1
    24     8     9    1
    25     8     5    1
    26     9    11   ar
    27     9    10   ar
    28     5     4    1
    29    17    18    1
    30    19    18   ar
    31    18    20   ar
    32     4     1   am
    33     2     1    2
    34     1     3    1
