@<TRIPOS>MOLECULE
4dcp_III_C_1.pdb
 35 34 0 0 0
SMALL
GASTEIGER

@<TRIPOS>ATOM
      1  C         22.9120    8.5870   45.8220 C.2   501  ACE501      0.2423
      2  O         23.1770    7.4480   45.4410 O.2   501  ACE501     -0.2733
      3  CH3       22.9610    8.9450   47.3090 C.3   501  ACE501      0.0964
      4  N         22.7580    9.6160   44.9860 N.am  502  ASP502     -0.1972
      5  CA        22.5380    9.3640   43.5290 C.3   502  ASP502      0.1839
      6  C         23.8500    9.0680   42.8050 C.2   502  ASP502      0.2622
      7  O         24.8070    9.8450   42.8840 O.2   502  ASP502     -0.2715
      8  CB        21.8640   10.5690   42.8710 C.3   502  ASP502      0.1450
      9  CG        20.4620   10.8160   43.3970 C.2   502  ASP502      0.3671
     10  OD1       19.7590    9.8290   43.6970 O.co2 502  ASP502     -0.2456
     11  OD2       20.0590   11.9930   43.4980 O.co2 502  ASP502     -0.2456
     12  N         23.8880    7.9390   42.1020 N.am  503  GLU503     -0.1963
     13  CA        25.0730    7.5310   41.3500 C.3   503  GLU503      0.1733
     14  C         24.6350    7.1050   39.9520 C.2   503  GLU503      0.2616
     15  O         23.4570    6.8100   39.7280 O.2   503  GLU503     -0.2715
     16  CB        25.7670    6.3550   42.0420 C.3   503  GLU503      0.0429
     17  CG        25.9410    6.5290   43.5460 C.3   503  GLU503      0.1163
     18  CD        26.7370    5.4060   44.1770 C.2   503  GLU503      0.3649
     19  OE1       26.7390    4.2830   43.6300 O.co2 503  GLU503     -0.2457
     20  OE2       27.3550    5.6480   45.2340 O.co2 503  GLU503     -0.2457
     21  N         25.5750    7.0770   39.0150 N.am  504  VAL504     -0.1963
     22  CA        25.2500    6.6710   37.6600 C.3   504  VAL504      0.1727
     23  C         25.7010    5.2580   37.3620 C.2   504  VAL504      0.2613
     24  O         26.3010    4.6610   38.2820 O.2   504  VAL504     -0.2715
     25  CB        25.8880    7.5910   36.5910 C.3   504  VAL504      0.0290
     26  CG1       25.3250    8.9900   36.7030 C.3   504  VAL504      0.0023
     27  CG2       27.4070    7.5950   36.7400 C.3   504  VAL504      0.0023
     28  C         25.5590    3.3720   34.6280 C.3   505  ASJ505      0.2041
     29  N         24.7900    4.5070   36.6450 N.am  505  ASJ505     -0.2025
     30  O         25.6470    2.1480   33.8920 O.3   505  ASJ505     -0.2185
     31  CA        24.9270    3.1860   36.0080 C.3   505  ASJ505      0.1395
     32  CB        23.5900    2.4430   35.9540 C.3   505  ASJ505      0.1383
     33  CG        23.3120    1.7700   37.3010 C.2   505  ASJ505      0.3667
     34  OD1       24.3050    1.5070   38.0130 O.co2 505  ASJ505     -0.2456
     35  OD2       22.1460    1.3670   37.5040 O.co2 505  ASJ505     -0.2456
@<TRIPOS>BOND
     1    30    28    1
     2    28    31    1
     3    32    31    1
     4    32    33    1
     5    31    29    1
     6    25    26    1
     7    25    27    1
     8    25    22    1
     9    29    23   am
    10    33    35   ar
    11    33    34   ar
    12    23    22    1
    13    23    24    2
    14    22    21    1
    15    21    14   am
    16    15    14    2
    17    14    13    1
    18    13    16    1
    19    13    12    1
    20    16    17    1
    21    12     6   am
    22     6     7    2
    23     6     5    1
    24     8     9    1
    25     8     5    1
    26     9    11   ar
    27     9    10   ar
    28     5     4    1
    29    17    18    1
    30    19    18   ar
    31    18    20   ar
    32     4     1   am
    33     2     1    2
    34     1     3    1
