@<TRIPOS>MOLECULE
4dcs_GDP_A_1.pdb
 28 30 0 0 0
SMALL
GASTEIGER

@<TRIPOS>ATOM
      1  PB       -14.1270   -8.5680  -33.7830 P.3   501  GDP501      0.5373
      2  O1B      -14.3870   -7.1050  -34.0250 O.3   501  GDP501     -0.1143
      3  O2B      -12.8860   -9.0490  -34.4980 O.2   501  GDP501     -0.2221
      4  O3B      -14.2200   -8.9980  -32.3420 O.3   501  GDP501     -0.1143
      5  O3A      -15.3160   -9.3420  -34.5400 O.3   501  GDP501     -0.2261
      6  PA       -16.6060   -9.9890  -33.8310 P.3   501  GDP501      0.2231
      7  O1A      -16.2960  -11.2950  -33.1390 O.2   501  GDP501     -0.5169
      8  O2A      -17.3480   -8.9170  -33.0590 O.3   501  GDP501     -0.4370
      9  O5'      -17.4690  -10.3900  -35.1320 O.3   501  GDP501     -0.3111
     10  C5'      -17.8500   -9.4520  -36.1420 C.3   501  GDP501      0.1813
     11  C4'      -18.9820  -10.0460  -36.9740 C.3   501  GDP501      0.1799
     12  O4'      -18.4970  -11.1360  -37.7710 O.3   501  GDP501     -0.3326
     13  C3'      -20.0910  -10.6060  -36.0910 C.3   501  GDP501      0.2158
     14  O3'      -21.3500  -10.3140  -36.6900 O.3   501  GDP501     -0.2175
     15  C2'      -19.9010  -12.1080  -36.1490 C.3   501  GDP501      0.2310
     16  O2'      -21.1360  -12.8100  -35.9960 O.3   501  GDP501     -0.2158
     17  C1'      -19.2920  -12.3110  -37.5300 C.3   501  GDP501      0.2293
     18  N9       -18.4950  -13.5580  -37.5360 N.pl3 501  GDP501     -0.2354
     19  C8       -17.5200  -13.8770  -36.6610 C.3   501  GDP501      0.2246
     20  N7       -17.0000  -15.0980  -36.9440 N.2   501  GDP501     -0.2322
     21  C5       -17.6400  -15.5800  -38.0240 C.2   501  GDP501      0.2182
     22  C6       -17.5720  -16.8090  -38.8480 C.1   501  GDP501      0.2372
     23  O6       -16.7650  -17.7250  -38.5940 O.2   501  GDP501     -0.2069
     24  N1       -18.4230  -16.9180  -39.8780 N.2   501  GDP501     -0.2485
     25  C2       -19.3140  -15.9570  -40.2010 C.1   501  GDP501      0.2531
     26  N2       -20.1210  -16.1570  -41.2780 N.pl3 501  GDP501     -0.0226
     27  N3       -19.4130  -14.7970  -39.4920 N.2   501  GDP501     -0.3074
     28  C4       -18.6290  -14.5630  -38.4110 C.2   501  GDP501      0.2300
@<TRIPOS>BOND
     1    26    25    1
     2    25    24    2
     3    25    27    2
     4    24    22    2
     5    27    28    2
     6    22    23    2
     7    22    21    1
     8    28    21    1
     9    28    18    1
    10    21    20    2
    11    12    17    1
    12    12    11    1
    13    18    17    1
    14    18    19    1
    15    17    15    1
    16    11    10    1
    17    11    13    1
    18    20    19    1
    19    14    13    1
    20    15    13    1
    21    15    16    1
    22    10     9    1
    23     9     6    1
    24     5     6    1
    25     5     1    1
    26     3     1    2
    27     2     1    1
    28     6     7    2
    29     6     8    1
    30     1     4    1
