@<TRIPOS>MOLECULE
4dct_GDP_A_1.pdb
 28 30 0 0 0
SMALL
GASTEIGER

@<TRIPOS>ATOM
      1  PB       -14.0660   -8.7000  -34.0790 P.3   501  GDP501      0.5373
      2  O1B      -14.3370   -7.2910  -34.5380 O.3   501  GDP501     -0.1143
      3  O2B      -12.8300   -9.2970  -34.6800 O.2   501  GDP501     -0.2221
      4  O3B      -14.2410   -8.9150  -32.5890 O.3   501  GDP501     -0.1143
      5  O3A      -15.2240   -9.5540  -34.7590 O.3   501  GDP501     -0.2261
      6  PA       -16.5630   -9.9060  -33.9510 P.3   501  GDP501      0.2231
      7  O1A      -16.3300  -11.1150  -33.0590 O.3   501  GDP501     -0.4370
      8  O2A      -17.1210   -8.6120  -33.3830 O.2   501  GDP501     -0.5169
      9  O5'      -17.5150  -10.3880  -35.1490 O.3   501  GDP501     -0.3111
     10  C5'      -17.8310   -9.5220  -36.2360 C.3   501  GDP501      0.1813
     11  C4'      -18.9910  -10.1290  -37.0140 C.3   501  GDP501      0.1799
     12  O4'      -18.5510  -11.2400  -37.8020 O.3   501  GDP501     -0.3326
     13  C3'      -20.0840  -10.6360  -36.0830 C.3   501  GDP501      0.2158
     14  O3'      -21.3080   -9.9970  -36.4350 O.3   501  GDP501     -0.2175
     15  C2'      -20.1880  -12.1280  -36.3260 C.3   501  GDP501      0.2310
     16  O2'      -21.5620  -12.5280  -36.4260 O.3   501  GDP501     -0.2158
     17  C1'      -19.4510  -12.3400  -37.6430 C.3   501  GDP501      0.2293
     18  N9       -18.6890  -13.6090  -37.6670 N.pl3 501  GDP501     -0.2354
     19  C8       -17.7780  -14.0120  -36.7590 C.3   501  GDP501      0.2246
     20  N7       -17.2570  -15.2240  -37.0820 N.2   501  GDP501     -0.2322
     21  C5       -17.8390  -15.6130  -38.2320 C.2   501  GDP501      0.2182
     22  C6       -17.7480  -16.7910  -39.1300 C.1   501  GDP501      0.2372
     23  O6       -16.9680  -17.7290  -38.8640 O.2   501  GDP501     -0.2069
     24  N1       -18.5250  -16.8130  -40.2280 N.2   501  GDP501     -0.2485
     25  C2       -19.3720  -15.7980  -40.5360 C.1   501  GDP501      0.2531
     26  N2       -20.1210  -15.8810  -41.6650 N.pl3 501  GDP501     -0.0226
     27  N3       -19.5050  -14.6860  -39.7580 N.2   501  GDP501     -0.3074
     28  C4       -18.7820  -14.5430  -38.6160 C.2   501  GDP501      0.2300
@<TRIPOS>BOND
     1    26    25    1
     2    25    24    2
     3    25    27    2
     4    24    22    2
     5    27    28    2
     6    22    23    2
     7    22    21    1
     8    28    21    1
     9    28    18    1
    10    21    20    2
    11    12    17    1
    12    12    11    1
    13    18    17    1
    14    18    19    1
    15    17    15    1
    16    20    19    1
    17    11    10    1
    18    11    13    1
    19    14    13    1
    20    16    15    1
    21    15    13    1
    22    10     9    1
    23     9     6    1
    24     5     1    1
    25     5     6    1
    26     3     1    2
    27     2     1    1
    28     1     4    1
    29     6     8    2
    30     6     7    1
