@<TRIPOS>MOLECULE
4dcu_GDP_A_1.pdb
 28 30 0 0 0
SMALL
GASTEIGER

@<TRIPOS>ATOM
      1  PB       -14.3680   -8.9890  -33.9980 P.3   501  GDP501      0.5373
      2  O1B      -14.7430   -7.5740  -34.3740 O.3   501  GDP501     -0.1143
      3  O2B      -13.0700   -9.4140  -34.6330 O.2   501  GDP501     -0.2221
      4  O3B      -14.4540   -9.3390  -32.5350 O.3   501  GDP501     -0.1143
      5  O3A      -15.4660   -9.9110  -34.7030 O.3   501  GDP501     -0.2261
      6  PA       -16.7740  -10.4700  -33.9640 P.3   501  GDP501      0.2231
      7  O1A      -16.4620  -11.7130  -33.1740 O.3   501  GDP501     -0.4370
      8  O2A      -17.4360   -9.2900  -33.2860 O.2   501  GDP501     -0.5169
      9  O5'      -17.6140  -10.9130  -35.2530 O.3   501  GDP501     -0.3111
     10  C5'      -18.0410   -9.9530  -36.2190 C.3   501  GDP501      0.1813
     11  C4'      -19.2420  -10.5050  -36.9810 C.3   501  GDP501      0.1799
     12  O4'      -18.8590  -11.5820  -37.8470 O.3   501  GDP501     -0.3326
     13  C3'      -20.2880  -11.0580  -36.0280 C.3   501  GDP501      0.2158
     14  O3'      -21.5870  -10.7630  -36.5440 O.3   501  GDP501     -0.2175
     15  C2'      -20.0650  -12.5510  -36.0740 C.3   501  GDP501      0.2310
     16  O2'      -21.2620  -13.2700  -35.7680 O.3   501  GDP501     -0.2158
     17  C1'      -19.5720  -12.7750  -37.4980 C.3   501  GDP501      0.2293
     18  N9       -18.7070  -13.9780  -37.5530 N.pl3 501  GDP501     -0.2354
     19  C8       -17.7170  -14.2820  -36.6910 C.3   501  GDP501      0.2246
     20  N7       -17.1370  -15.4640  -37.0030 N.2   501  GDP501     -0.2322
     21  C5       -17.7450  -15.9330  -38.0980 C.2   501  GDP501      0.2182
     22  C6       -17.6260  -17.1250  -38.9630 C.1   501  GDP501      0.2372
     23  O6       -16.7750  -17.9990  -38.7330 O.2   501  GDP501     -0.2069
     24  N1       -18.4600  -17.2510  -40.0030 N.2   501  GDP501     -0.2485
     25  C2       -19.3930  -16.3230  -40.2940 C.1   501  GDP501      0.2531
     26  N2       -20.1880  -16.5190  -41.3750 N.pl3 501  GDP501     -0.0226
     27  N3       -19.5590  -15.2010  -39.5480 N.2   501  GDP501     -0.3074
     28  C4       -18.7900  -14.9560  -38.4550 C.2   501  GDP501      0.2300
@<TRIPOS>BOND
     1    26    25    1
     2    25    24    2
     3    25    27    2
     4    24    22    2
     5    27    28    2
     6    22    23    2
     7    22    21    1
     8    28    21    1
     9    28    18    1
    10    21    20    2
    11    12    17    1
    12    12    11    1
    13    18    17    1
    14    18    19    1
    15    17    15    1
    16    20    19    1
    17    11    10    1
    18    11    13    1
    19    14    13    1
    20    10     9    1
    21    15    13    1
    22    15    16    1
    23     9     6    1
    24     5     1    1
    25     5     6    1
    26     3     1    2
    27     2     1    1
    28     1     4    1
    29     6     8    2
    30     6     7    1
