@<TRIPOS>MOLECULE
4dcx_L2D_A_1.pdb
 31 38 0 0 0
SMALL
GASTEIGER

@<TRIPOS>ATOM
      1  CAK       -1.3840   -6.6840  -31.3440 C.2   630  L2D630      0.0000
      2  CAG       -0.5720   -7.7260  -31.7520 C.2   630  L2D630      0.0000
      3  CAE       -0.1740   -7.8160  -33.0790 C.2   630  L2D630      0.0000
      4  CAI       -0.5990   -6.8570  -33.9810 C.3   630  L2D630      0.0000
      5  NAU       -1.3790   -5.8800  -33.5650 N.pl3 630  L2D630      0.0000
      6  CAY       -1.7970   -5.7640  -32.2930 C.2   630  L2D630      0.0000
      7  CAS       -2.6870   -4.5710  -31.9350 C.3   630  L2D630      0.0000
      8  N         -2.9330   -4.0310  -33.2480 N.4   630  L2D630      0.0000
      9  CA        -3.9520   -4.9310  -33.8780 C.3   630  L2D630      0.0000
     10  C         -3.9600   -4.9290  -35.4390 C.2   630  L2D630      0.0000
     11  OXT       -2.9160   -4.5690  -36.0500 O.3   630  L2D630      0.0000
     12  O         -4.9700   -5.4200  -36.0020 O.2   630  L2D630      0.0000
     13  CBA       -3.2740   -2.6070  -33.0640 C.3   630  L2D630      0.0000
     14  CAO       -4.7160   -2.4640  -32.5510 C.3   630  L2D630      0.0000
     15  CAM       -5.0150   -0.9800  -32.3880 C.3   630  L2D630      0.0000
     16  CAN       -4.8610   -0.2580  -33.7410 C.3   630  L2D630      0.0000
     17  CAP       -3.4230   -0.4580  -34.2370 C.3   630  L2D630      0.0000
     18  CBB       -3.1640   -1.9570  -34.3990 C.3   630  L2D630      0.0000
     19  NBD       -1.7650   -2.1450  -34.8670 N.4   630  L2D630      0.0000
     20  CAR       -0.8770   -1.3420  -33.9950 C.3   630  L2D630      0.0000
     21  CAX        0.2490   -2.1910  -33.3720 C.2   630  L2D630      0.0000
     22  OAD        0.1410   -3.4400  -33.3810 O.3   630  L2D630      0.0000
     23  OAB        1.1950   -1.5670  -32.8540 O.2   630  L2D630      0.0000
     24  CAT       -1.5930   -1.6750  -36.2530 C.3   630  L2D630      0.0000
     25  CAZ       -0.3010   -2.3190  -36.7450 C.3   630  L2D630      0.0000
     26  CAL        0.5750   -1.6580  -37.5960 C.2   630  L2D630      0.0000
     27  CAH        1.7300   -2.3140  -38.0020 C.2   630  L2D630      0.0000
     28  CAF        1.9610   -3.6150  -37.5620 C.2   630  L2D630      0.0000
     29  CAJ        1.0390   -4.2280  -36.7250 C.2   630  L2D630      0.0000
     30  NAV       -0.0440   -3.5690  -36.3490 N.pl3 630  L2D630      0.0000
     31 FE         -1.3600   -4.1340  -34.6760 Fe    630  L2D630      0.0000
@<TRIPOS>BOND
     1    27    26    2
     2    27    28    1
     3    26    25    1
     4    28    29    2
     5    25    30    1
     6    25    24    1
     7    29    30    1
     8    30    31    1
     9    24    19    1
    10    11    10    1
    11    11    31    1
    12    12    10    2
    13    10     9    1
    14    19    31    1
    15    19    18    1
    16    19    20    1
    17    31     5    1
    18    31    22    1
    19    31     8    1
    20    18    17    1
    21    18    13    1
    22    17    16    1
    23    20    21    1
    24     4     5    1
    25     4     3    1
    26     9     8    1
    27    16    15    1
    28     5     6    1
    29    22    21    1
    30    21    23    2
    31     8    13    1
    32     8     7    1
    33     3     2    2
    34    13    14    1
    35    14    15    1
    36     6     7    1
    37     6     1    2
    38     2     1    1
