@<TRIPOS>MOLECULE
4dcy_L2M_A_1.pdb
 28 34 0 0 0
SMALL
GASTEIGER

@<TRIPOS>ATOM
      1  N1        -1.9630   -2.1130  -34.4620 N.4   629  L2M629      0.0000
      2 FE1        -1.5610   -4.0540  -34.7650 Fe    629  L2M629      0.0000
      3  C1        -0.8160   -1.2310  -34.1780 C.3   629  L2M629      0.0000
      4  O1        -5.1130   -6.0280  -36.0780 O.2   629  L2M629      0.0000
      5  O2        -3.1330   -5.0570  -36.0260 O.3   629  L2M629      0.0000
      6  C2         1.0390   -2.1200  -38.2670 C.2   629  L2M629      0.0000
      7  C3        -0.2520   -8.0800  -32.9490 C.2   629  L2M629      0.0000
      8  C4         0.1720   -1.0450  -38.4070 C.2   629  L2M629      0.0000
      9  C5        -0.7500   -7.9380  -31.6610 C.2   629  L2M629      0.0000
     10  C6         0.7460   -3.1130  -37.3370 C.3   629  L2M629      0.0000
     11  C7        -0.5730   -7.1240  -33.9090 C.3   629  L2M629      0.0000
     12  C8        -0.9650   -0.9870  -37.6180 C.2   629  L2M629      0.0000
     13  C9        -1.5590   -6.8530  -31.3660 C.2   629  L2M629      0.0000
     14  C10       -4.7440   -0.4410  -32.6250 C.3   629  L2M629      0.0000
     15  C11       -5.7520   -1.5460  -32.6820 C.3   629  L2M629      0.0000
     16  C12       -3.6750   -0.6340  -33.6860 C.3   629  L2M629      0.0000
     17  C13       -5.0740   -2.8920  -32.4480 C.3   629  L2M629      0.0000
     18  C14       -4.1170   -5.5280  -33.9240 C.3   629  L2M629      0.0000
     19  C15       -2.4460   -1.9460  -35.8370 C.3   629  L2M629      0.0000
     20  C16       -2.7220   -4.6980  -32.0920 C.3   629  L2M629      0.0000
     21  N2        -0.3460   -3.0370  -36.5930 N.pl3 629  L2M629      0.0000
     22  N3        -1.3430   -6.0940  -33.5980 N.pl3 629  L2M629      0.0000
     23  C17       -4.1390   -5.5110  -35.4690 C.2   629  L2M629      0.0000
     24  C18       -1.2070   -2.0130  -36.7180 C.2   629  L2M629      0.0000
     25  C19       -1.8520   -5.9330  -32.3660 C.2   629  L2M629      0.0000
     26  C20       -2.9890   -1.9670  -33.4320 C.3   629  L2M629      0.0000
     27  C21       -4.0240   -3.0910  -33.5380 C.3   629  L2M629      0.0000
     28  N4        -3.3450   -4.3820  -33.3640 N.4   629  L2M629      0.0000
@<TRIPOS>BOND
     1     8     6    2
     2     8    12    1
     3     6    10    1
     4    12    24    2
     5    10    21    1
     6    24    21    1
     7    24    19    1
     8    21     2    1
     9     4    23    2
    10     5    23    1
    11     5     2    1
    12    19     1    1
    13    23    18    1
    14     2     1    1
    15     2    22    1
    16     2    28    1
    17     1     3    1
    18     1    26    1
    19    18    28    1
    20    11    22    1
    21    11     7    1
    22    16    26    1
    23    16    14    1
    24    22    25    1
    25    27    26    1
    26    27    28    1
    27    27    17    1
    28    28    20    1
    29     7     9    2
    30    15    14    1
    31    15    17    1
    32    25    20    1
    33    25    13    2
    34     9    13    1
