@<TRIPOS>MOLECULE
4dd8_BAT_A_1.pdb
 32 33 0 0 0
SMALL
GASTEIGER

@<TRIPOS>ATOM
      1  C1        12.7190   -8.0820   -3.3220 C.3   1000  BAT1000     0.0651
      2  C2        11.9250   -9.0820   -2.5360 C.2   1000  BAT1000     0.0878
      3  C3        12.9130   -8.6360   -4.7140 C.3   1000  BAT1000     0.0694
      4  C4        14.8110  -10.4650   -5.6040 C.ar  1000  BAT1000     0.0546
      5  C5        15.1740   -9.5620   -6.5780 C.ar  1000  BAT1000     0.0132
      6  C6        16.3430   -9.9420   -7.2850 C.ar  1000  BAT1000     0.0080
      7  C7        16.8560  -11.1340   -6.8340 C.ar  1000  BAT1000     0.0359
      8  C8        11.9150   -6.8020   -3.3890 C.3   1000  BAT1000     0.0850
      9  C9        11.7610   -6.2370   -1.9990 C.3   1000  BAT1000     0.0096
     10  C10       10.8600   -5.0280   -2.0280 C.3   1000  BAT1000     0.0005
     11  C11        9.5310   -5.3880   -2.6400 C.3   1000  BAT1000     0.0000
     12  C12       10.6460   -4.5340   -0.6210 C.3   1000  BAT1000     0.0000
     13  C13       12.6770   -5.8150   -4.2240 C.2   1000  BAT1000     0.2417
     14  C14       12.5370   -4.5420   -6.3010 C.3   1000  BAT1000     0.1770
     15  C15       12.0070   -3.2120   -5.8760 C.2   1000  BAT1000     0.2616
     16  C16       12.7210   -0.9780   -5.2450 C.3   1000  BAT1000     0.1386
     17  C17       11.9730   -4.8050   -7.6770 C.3   1000  BAT1000     0.0574
     18  C18       12.3010   -6.1950   -8.0820 C.ar  1000  BAT1000    -0.0200
     19  C19       11.3030   -7.1300   -8.2030 C.ar  1000  BAT1000    -0.0042
     20  C20       11.6090   -8.4150   -8.5770 C.ar  1000  BAT1000    -0.0003
     21  C21       12.9120   -8.7650   -8.8330 C.ar  1000  BAT1000    -0.0000
     22  C22       13.9110   -7.8300   -8.7160 C.ar  1000  BAT1000    -0.0003
     23  C23       13.6050   -6.5460   -8.3390 C.ar  1000  BAT1000    -0.0042
     24  N1        12.4330   -9.2530   -1.2480 N.am  1000  BAT1000    -0.2029
     25  N2        11.9750   -5.4670   -5.3510 N.am  1000  BAT1000    -0.1974
     26  N3        13.0230   -2.3210   -5.6510 N.am  1000  BAT1000    -0.2021
     27  O1        10.9480   -9.6650   -2.9750 O.2   1000  BAT1000    -0.5395
     28  O2        11.5290   -9.8290   -0.3620 O.3   1000  BAT1000    -0.4026
     29  O3        13.7810   -5.3900   -3.9150 O.2   1000  BAT1000    -0.2733
     30  O4        10.8120   -2.9730   -5.7770 O.2   1000  BAT1000    -0.2715
     31  S1        13.4480  -10.3490   -4.5400 S.3   1000  BAT1000    -0.1068
     32  S2        15.9120  -11.7840   -5.5590 S.2   1000  BAT1000    -0.0802
@<TRIPOS>BOND
     1    21    22   ar
     2    21    20   ar
     3    22    23   ar
     4    20    19   ar
     5    23    18   ar
     6    19    18   ar
     7    18    17    1
     8    17    14    1
     9     6     7   ar
    10     6     5   ar
    11     7    32   ar
    12     5     4   ar
    13    14    15    1
    14    14    25    1
    15    15    30    2
    16    15    26   am
    17    26    16    1
    18     4    32   ar
    19     4    31    1
    20    25    13   am
    21     3    31    1
    22     3     1    1
    23    13    29    2
    24    13     8    1
    25     8     1    1
    26     8     9    1
    27     1     2    1
    28    27     2    2
    29    11    10    1
    30     2    24   am
    31    10     9    1
    32    10    12    1
    33    24    28    1
