@<TRIPOS>MOLECULE
4ddh_MS0_A_1.pdb
 15 16 0 0 0
SMALL
GASTEIGER

@<TRIPOS>ATOM
      1  O1        13.7020   10.7090   -0.2550 O.2   403  MS0403     -0.4506
      2  C2        14.0050   10.4070   -1.5960 C.ar  403  MS0403      0.1482
      3  C3        15.3560   10.3320   -1.6540 C.ar  403  MS0403      0.0344
      4  C4        15.8300   10.5680   -0.3940 C.ar  403  MS0403      0.0297
      5  C5        14.8210   10.7670    0.4550 C.ar  403  MS0403      0.1758
      6  C7        17.2920   10.4820    0.1670 C.3   403  MS0403      0.1436
      7  C10       18.3400   11.3560   -0.3500 C.2   403  MS0403      0.3693
      8  O11       19.4430   10.7840   -0.4650 O.co2 403  MS0403     -0.2453
      9  O12       18.0820   12.5780   -0.5290 O.co2 403  MS0403     -0.2453
     10  C14       15.9590   10.0810   -2.8400 C.ar  403  MS0403      0.0059
     11  C16       15.2110    9.8890   -4.0070 C.ar  403  MS0403      0.0371
     12  C18       13.8230    9.9560   -3.9350 C.ar  403  MS0403      0.1418
     13  C19       13.2070   10.2490   -2.6910 C.ar  403  MS0403      0.0743
     14  O21       13.1030    9.7450   -5.0770 O.3   403  MS0403     -0.4713
     15  C22       11.6750    9.5860   -4.8550 C.3   403  MS0403      0.2525
@<TRIPOS>BOND
     1    14    15    1
     2    14    12    1
     3    11    12   ar
     4    11    10   ar
     5    12    13   ar
     6    10     3   ar
     7    13     2   ar
     8     3     2   ar
     9     3     4   ar
    10     2     1   ar
    11     9     7   ar
    12     8     7   ar
    13     4     6    1
    14     4     5   ar
    15     7     6    1
    16     1     5   ar
