@<TRIPOS>MOLECULE
4ddj_LDA_A_1.pdb
 16 15 0 0 0
SMALL
GASTEIGER

@<TRIPOS>ATOM
      1  N1        10.0490    8.0590    3.9380 N.4   101  LDA101      0.4277
      2  O1        10.6790    8.8890    3.2260 O.3   101  LDA101     -0.2898
      3  CM1        9.8690    8.6390    5.2750 C.3   101  LDA101     -0.0454
      4  CM2        8.7300    7.8210    3.3370 C.3   101  LDA101     -0.0454
      5  C1        10.6680    6.7510    3.9900 C.3   101  LDA101     -0.0278
      6  C2        12.0640    6.7430    4.6080 C.3   101  LDA101     -0.0173
      7  C3        12.4940    5.2890    4.7600 C.3   101  LDA101     -0.0020
      8  C4        13.7090    5.1690    5.6600 C.3   101  LDA101     -0.0001
      9  C5        14.8900    4.6700    4.8440 C.3   101  LDA101     -0.0000
     10  C6        15.9140    5.7780    4.6010 C.3   101  LDA101     -0.0000
     11  C7        17.3030    5.3940    5.1040 C.3   101  LDA101      0.0000
     12  C8        18.3930    6.0680    4.2800 C.3   101  LDA101      0.0000
     13  C9        19.8190    5.7700    4.7380 C.3   101  LDA101      0.0000
     14  C10       20.7920    6.6670    3.9730 C.3   101  LDA101      0.0000
     15  C11       22.2330    6.1580    3.9450 C.3   101  LDA101      0.0000
     16  C12       23.0780    6.6210    5.1300 C.3   101  LDA101      0.0000
@<TRIPOS>BOND
     1     2     1    1
     2     4     1    1
     3     1     5    1
     4     1     3    1
     5    15    14    1
     6    15    16    1
     7    14    13    1
     8     5     6    1
     9    12    13    1
    10    12    11    1
    11    10     9    1
    12    10    11    1
    13     6     7    1
    14     7     8    1
    15     9     8    1
