@<TRIPOS>MOLECULE
4ddk_0HN_A_1.pdb
 12 13 0 0 0
SMALL
GASTEIGER

@<TRIPOS>ATOM
      1  OAA      -15.3860   -0.3440   -0.1040 O.co2 401  0HN401     -0.2406
      2  CAI      -15.7330   -0.2650    1.0980 C.2   401  0HN401      0.3879
      3  OAB      -16.9060    0.1570    1.3230 O.co2 401  0HN401     -0.2406
      4  CAJ      -14.8400   -0.5650    2.1750 C.ar  401  0HN401      0.0830
      5  CAE      -13.4970   -0.9630    2.0130 C.ar  401  0HN401      0.0468
      6  CAL      -12.6960   -1.2190    3.0980 C.ar  401  0HN401      0.1766
      7  OAH      -11.3870   -1.6300    3.1160 O.3   401  0HN401     -0.4346
      8  CAF      -11.0330   -1.8330    4.5400 C.3   401  0HN401      0.4294
      9  OAG      -12.1840   -1.3570    5.3410 O.3   401  0HN401     -0.4346
     10  CAK      -13.1700   -1.0910    4.3850 C.ar  401  0HN401      0.1764
     11  CAD      -14.4410   -0.6870    4.5850 C.ar  401  0HN401      0.0404
     12  CAC      -15.2870   -0.4210    3.5050 C.ar  401  0HN401      0.0099
@<TRIPOS>BOND
     1     1     2   ar
     2     2     3   ar
     3     2     4    1
     4     5     4   ar
     5     5     6   ar
     6     4    12   ar
     7     6     7    1
     8     6    10   ar
     9     7     8    1
    10    12    11   ar
    11    10    11   ar
    12    10     9    1
    13     8     9    1
