@<TRIPOS>MOLECULE
4ddl_0JQ_A_1.pdb
 31 34 0 0 0
SMALL
GASTEIGER

@<TRIPOS>ATOM
      1  C11       13.9930   85.8360   36.8520 C.3   1010  0JQ1010     0.2521
      2  O2        14.0270   86.5200   38.1130 O.2   1010  0JQ1010    -0.4723
      3  C9        13.1380   87.4590   38.3380 C.2   1010  0JQ1010     0.1558
      4  C5        12.2280   87.8650   37.4010 C.3   1010  0JQ1010     0.1143
      5  C6        13.1810   88.0670   39.5590 C.2   1010  0JQ1010     0.1683
      6  O1        14.1010   87.6500   40.4190 O.2   1010  0JQ1010    -0.4687
      7  C10       13.9110   88.1760   41.7460 C.3   1010  0JQ1010     0.2526
      8  C3        12.3080   89.0760   39.8570 C.2   1010  0JQ1010     0.0374
      9  C1        11.3440   89.4310   38.9490 C.2   1010  0JQ1010     0.0060
     10  C2        11.3520   88.8840   37.6970 C.2   1010  0JQ1010     0.0850
     11  N1        10.4740   89.2930   36.8020 N.2   1010  0JQ1010    -0.1525
     12  N2         9.7030   90.1800   37.0580 N.2   1010  0JQ1010    -0.1508
     13  C7         9.6660   90.7980   38.2020 C.2   1010  0JQ1010     0.1039
     14  C4        10.5840   90.5290   39.1750 C.3   1010  0JQ1010     0.0889
     15  C8        10.5120   91.1180   40.4100 C.2   1010  0JQ1010     0.0144
     16  C12       10.2510   90.4350   41.5520 C.2   1010  0JQ1010    -0.0180
     17  C13       10.0980   91.1000   42.7380 C.3   1010  0JQ1010     0.1268
     18  C16        9.9010   90.3180   44.0250 C.3   1010  0JQ1010     0.0174
     19  C15       10.3680   92.4530   40.4940 C.3   1010  0JQ1010     0.2855
     20  N3        10.3120   93.0790   41.6180 N.2   1010  0JQ1010    -0.0646
     21  C14       10.1100   92.4650   42.7470 C.2   1010  0JQ1010     0.2984
     22  N4        10.0090   93.2130   43.8970 N.pl3 1010  0JQ1010    -0.1942
     23  C24        9.6660   94.6040   43.8560 C.3   1010  0JQ1010     0.2021
     24  C23        9.4430   95.2150   45.2330 C.3   1010  0JQ1010     0.0534
     25  C20       10.7570   92.7470   45.0370 C.3   1010  0JQ1010     0.2021
     26  C21       10.4160   93.4030   46.3550 C.3   1010  0JQ1010     0.0534
     27  C22       10.5700   94.8770   46.1980 C.3   1010  0JQ1010     0.0363
     28  C18       10.4340   95.6790   47.5010 C.3   1010  0JQ1010     0.1270
     29  C17       11.2050   95.1190   48.6510 C.3   1010  0JQ1010     0.0329
     30  C19        8.9970   95.8000   47.9260 C.3   1010  0JQ1010     0.0329
     31  O3        10.8170   96.9940   47.1790 O.3   1010  0JQ1010    -0.2257
@<TRIPOS>BOND
     1    11    12    1
     2    11    10    2
     3     1     2    1
     4    12    13    2
     5     4    10    1
     6     4     3    1
     7    10     9    1
     8     2     3    1
     9    13    14    1
    10     3     5    2
    11     9    14    1
    12     9     8    2
    13    14    15    1
    14     5     8    1
    15     5     6    1
    16    15    19    1
    17    15    16    2
    18     6     7    1
    19    19    20    1
    20    16    17    1
    21    20    21    2
    22    17    21    1
    23    17    18    1
    24    21    22    1
    25    23    22    1
    26    23    24    1
    27    22    25    1
    28    25    26    1
    29    24    27    1
    30    27    26    1
    31    27    28    1
    32    31    28    1
    33    28    30    1
    34    28    29    1
