@<TRIPOS>MOLECULE
4ddm_0HO_A_1.pdb
 12 13 0 0 0
SMALL
GASTEIGER

@<TRIPOS>ATOM
      1  OAA       15.4630   11.4810    2.0480 O.co2 406  0HO406     -0.2406
      2  CAI       15.1360   11.7620    3.2270 C.2   406  0HO406      0.3878
      3  OAB       15.2630   12.9170    3.6320 O.co2 406  0HO406     -0.2406
      4  CAJ       14.7450   10.7480    4.1030 C.ar  406  0HO406      0.0814
      5  CAE       14.4470   11.0470    5.4150 C.ar  406  0HO406      0.0279
      6  CAL       14.1300   10.1160    6.2960 C.ar  406  0HO406      0.1091
      7  NAG       13.8090   10.3290    7.5720 N.ar  406  0HO406     -0.1901
      8  SAH       13.5130    8.8480    8.2560 S.2   406  0HO406      0.1165
      9  NAF       13.7650    7.9700    6.9130 N.ar  406  0HO406     -0.1901
     10  CAK       14.0920    8.8160    5.9140 C.ar  406  0HO406      0.1088
     11  CAD       14.4050    8.4840    4.6680 C.ar  406  0HO406      0.0216
     12  CAC       14.7420    9.4220    3.7010 C.ar  406  0HO406      0.0082
@<TRIPOS>BOND
     1     1     2   ar
     2     2     3   ar
     3     2     4    1
     4    12     4   ar
     5    12    11   ar
     6     4     5   ar
     7    11    10   ar
     8     5     6   ar
     9    10     6   ar
    10    10     9   ar
    11     6     7   ar
    12     9     8   ar
    13     7     8   ar
