@<TRIPOS>MOLECULE
4ddn_AMG_A_1.pdb
 13 13 0 0 0
SMALL
GASTEIGER

@<TRIPOS>ATOM
      1  C1        29.5610   37.9070   15.7590 C.3   200  AMG200      0.2695
      2  C2        28.1140   38.4040   15.9760 C.3   200  AMG200      0.2406
      3  C3        28.0610   39.9170   16.0800 C.3   200  AMG200      0.2198
      4  C4        28.9590   40.4200   17.2240 C.3   200  AMG200      0.2144
      5  C5        30.4320   39.8830   16.9160 C.3   200  AMG200      0.1835
      6  C6        31.3970   40.3760   17.9870 C.3   200  AMG200      0.2142
      7  C7        31.3780   37.9120   14.1970 C.3   200  AMG200      0.1769
      8  O1        30.0460   38.4080   14.4620 O.3   200  AMG200     -0.3259
      9  O2        27.2910   38.0010   14.8690 O.3   200  AMG200     -0.2149
     10  O3        26.6940   40.3300   16.3170 O.3   200  AMG200     -0.2174
     11  O4        28.4440   39.9100   18.4860 O.3   200  AMG200     -0.2176
     12  O5        30.4080   38.3870   16.8610 O.3   200  AMG200     -0.3256
     13  O6        31.1710   39.8170   19.2680 O.3   200  AMG200     -0.2176
@<TRIPOS>BOND
     1     7     8    1
     2     8     1    1
     3     9     2    1
     4     1     2    1
     5     1    12    1
     6     2     3    1
     7     3    10    1
     8     3     4    1
     9    12     5    1
    10     5     4    1
    11     5     6    1
    12     4    11    1
    13     6    13    1
