@<TRIPOS>MOLECULE
4ddr_MMV_A_1.pdb
 26 27 0 0 0
SMALL
GASTEIGER

@<TRIPOS>ATOM
      1  C1        26.5640   12.4010   -2.2950 C.2   202  MMV202      0.2435
      2  N2        26.1840   12.2520   -3.5770 N.2   202  MMV202     -0.3090
      3  C3        27.0830   12.3140   -4.6310 C.1   202  MMV202      0.2420
      4  N4        28.4050   12.5270   -4.3650 N.2   202  MMV202     -0.3317
      5  C5        28.9110   12.6950   -3.0660 C.2   202  MMV202      0.1356
      6  C6        27.9380   12.6340   -1.9730 C.3   202  MMV202      0.2341
      7  N7        25.7110   12.3370   -1.3230 N.pl3 202  MMV202     -0.0939
      8  N8        26.6260   12.1600   -5.8920 N.pl3 202  MMV202     -0.0232
      9  C9        30.3170   12.9050   -2.9120 C.3   202  MMV202      0.0585
     10  C10       30.6960   14.3310   -3.4960 C.3   202  MMV202      0.0076
     11  O11       28.2580   12.7760   -0.6330 O.3   202  MMV202     -0.3414
     12  C12       28.3380   14.1600   -0.2020 C.3   202  MMV202      0.1471
     13  C13       28.4630   14.0980    1.3590 C.3   202  MMV202      0.0794
     14  C14       29.7830   13.3430    1.7620 C.3   202  MMV202      0.2080
     15  O15       30.9550   14.0500    1.1990 O.3   202  MMV202     -0.4757
     16  C16       32.2940   13.6050    1.3780 C.ar  202  MMV202      0.1345
     17  C17       33.3180   14.4490    0.7490 C.ar  202  MMV202      0.0123
     18  C18       34.7120   14.0210    0.9150 C.ar  202  MMV202     -0.0013
     19  C19       35.0650   12.8200    1.6610 C.ar  202  MMV202     -0.0001
     20  C20       34.0730   12.0070    2.2620 C.ar  202  MMV202      0.0031
     21  C21       32.6750   12.3890    2.1310 C.ar  202  MMV202      0.0366
     22  C22       32.9160   15.6760   -0.0200 C.3   202  MMV202      0.0412
     23  C23       34.0140   16.5930   -0.7250 C.3   202  MMV202      0.1188
     24  C24       34.6770   16.1070   -2.1030 C.2   202  MMV202      0.3652
     25  O25       35.6160   16.8390   -2.5480 O.co2 202  MMV202     -0.2456
     26  O26       34.3060   15.0330   -2.6590 O.co2 202  MMV202     -0.2456
@<TRIPOS>BOND
     1     8     3    1
     2     3     4    2
     3     3     2    2
     4     4     5    2
     5     2     1    2
     6    10     9    1
     7     5     9    1
     8     5     6    1
     9    26    24   ar
    10    25    24   ar
    11     1     6    1
    12     1     7    1
    13    24    23    1
    14     6    11    1
    15    23    22    1
    16    11    12    1
    17    12    13    1
    18    22    17    1
    19    17    18   ar
    20    17    16   ar
    21    18    19   ar
    22    15    16    1
    23    15    14    1
    24    13    14    1
    25    16    21   ar
    26    19    20   ar
    27    21    20   ar
