@<TRIPOS>MOLECULE
4ddr_NDP_A_1.pdb
 48 52 0 0 0
SMALL
GASTEIGER

@<TRIPOS>ATOM
      1  PA        26.1680    8.1450    8.9190 P.3   201  NDP201      0.2189
      2  O1A       24.8830    7.6060    8.4850 O.3   201  NDP201     -0.4371
      3  O2A       26.4780    9.3970    8.2390 O.2   201  NDP201     -0.5170
      4  O5B       26.1490    8.4230   10.4650 O.3   201  NDP201     -0.3112
      5  C5B       25.7640    7.3000   11.3060 C.3   201  NDP201      0.1813
      6  C4B       25.5530    7.9910   12.6550 C.3   201  NDP201      0.1820
      7  O4B       24.6300    9.0750   12.4960 O.3   201  NDP201     -0.3136
      8  C3B       24.8990    7.1590   13.7940 C.3   201  NDP201      0.2157
      9  O3B       26.0050    6.5540   14.5290 O.3   201  NDP201     -0.2175
     10  C2B       23.9240    8.1820   14.4540 C.3   201  NDP201      0.2314
     11  O2B       24.8680    8.8130   15.3530 O.3   201  NDP201     -0.2630
     12  C1B       23.4510    9.0770   13.2900 C.3   201  NDP201      0.3158
     13  N9A       22.3320    8.5110   12.5130 N.pl3 201  NDP201     -0.1439
     14  C8A       22.1410    7.8630   11.3080 C.3   201  NDP201      0.3377
     15  N7A       20.8120    7.6390   11.0580 N.2   201  NDP201     -0.2095
     16  C5A       20.1620    8.1860   12.0970 C.2   201  NDP201      0.2526
     17  C6A       18.8290    8.3340   12.4350 C.2   201  NDP201      0.4393
     18  N6A       17.8950    7.8490   11.5980 N.pl3 201  NDP201      0.2180
     19  N1A       18.4670    8.9710   13.5930 N.2   201  NDP201      0.0021
     20  C2A       19.3570    9.5010   14.4960 C.3   201  NDP201      0.5254
     21  N3A       20.6750    9.3770   14.2000 N.2   201  NDP201     -0.0055
     22  C4A       21.0930    8.7270   13.0130 C.2   201  NDP201      0.3518
     23  O3        27.3700    7.1190    8.7370 O.3   201  NDP201     -0.2703
     24  PN        27.7890    6.0960    7.6050 P.3   201  NDP201      0.2189
     25  O1N       26.6880    5.3230    7.0170 O.2   201  NDP201     -0.5170
     26  O2N       28.7940    5.2450    8.2570 O.3   201  NDP201     -0.4371
     27  O5D       28.3850    6.8320    6.3120 O.3   201  NDP201     -0.3112
     28  C5D       29.5440    7.7120    6.5130 C.3   201  NDP201      0.1813
     29  C4D       30.5420    7.1550    5.4320 C.3   201  NDP201      0.1799
     30  O4D       30.0500    7.1250    4.0660 O.3   201  NDP201     -0.3327
     31  C3D       31.8430    7.9540    5.3560 C.3   201  NDP201      0.2158
     32  O3D       32.8580    7.0100    4.8920 O.3   201  NDP201     -0.2175
     33  C2D       31.5420    9.0150    4.2730 C.3   201  NDP201      0.2309
     34  O2D       32.7490    9.4630    3.6500 O.3   201  NDP201     -0.2158
     35  C1D       30.6520    8.2330    3.3140 C.3   201  NDP201      0.2263
     36  N1N       29.5150    8.9140    2.6110 N.pl3 201  NDP201     -0.2787
     37  C2N       29.5970    8.7070    1.0990 C.3   201  NDP201      0.1244
     38  C3N       28.5540    9.2140    0.3120 C.2   201  NDP201      0.0544
     39  C7N       28.5740    8.9750   -1.2010 C.2   201  NDP201      0.2818
     40  O7N       27.6170    9.3930   -1.8770 O.2   201  NDP201     -0.2670
     41  N7N       29.5620    8.3240   -1.7970 N.am  201  NDP201     -0.0839
     42  C4N       27.4240    9.9660    1.0100 C.2   201  NDP201      0.0033
     43  C5N       27.4000   10.1750    2.5180 C.2   201  NDP201      0.0157
     44  C6N       28.3970    9.6570    3.2800 C.2   201  NDP201      0.0633
     45  P2B       24.6810    8.6620   16.9210 P.3   201  NDP201      0.5328
     46  O1X       23.2520    8.5870   17.4010 O.3   201  NDP201     -0.1145
     47  O2X       25.3810    7.3830   17.2710 O.2   201  NDP201     -0.2224
     48  O3X       25.4580    9.7650   17.6050 O.3   201  NDP201     -0.1145
@<TRIPOS>BOND
     1    40    39    2
     2    41    39   am
     3    39    38    1
     4    38    42    2
     5    38    37    1
     6    42    43    1
     7    37    36    1
     8    43    44    2
     9    36    44    1
    10    36    35    1
    11    35    30    1
    12    35    33    1
    13    34    33    1
    14    30    29    1
    15    33    31    1
    16    32    31    1
    17    31    29    1
    18    29    28    1
    19    27    28    1
    20    27    24    1
    21    25    24    2
    22    24    26    1
    23    24    23    1
    24     3     1    2
    25     2     1    1
    26    23     1    1
    27     1     4    1
    28     4     5    1
    29    15    14    1
    30    15    16    2
    31     5     6    1
    32    14    13    1
    33    18    17    1
    34    16    17    1
    35    16    22    1
    36    17    19    2
    37     7     6    1
    38     7    12    1
    39    13    22    1
    40    13    12    1
    41     6     8    1
    42    22    21    2
    43    12    10    1
    44    19    20    1
    45     8    10    1
    46     8     9    1
    47    21    20    1
    48    10    11    1
    49    11    45    1
    50    45    47    2
    51    45    46    1
    52    45    48    1
