@<TRIPOS>MOLECULE
4dds_0J7_A_1.pdb
 26 29 0 0 0
SMALL
GASTEIGER

@<TRIPOS>ATOM
      1  O26       -9.2330   55.6610   13.5100 O.2   301  0J7301     -0.2680
      2  C13       -8.7990   55.8140   12.3560 C.2   301  0J7301      0.2690
      3  N12       -7.7420   55.1140   11.9120 N.am  301  0J7301     -0.1754
      4  C8        -6.9370   54.2790   12.7340 C.ar  301  0J7301      0.0743
      5  C7        -5.5800   54.1940   12.3660 C.ar  301  0J7301      0.0267
      6  C9        -7.4130   53.5870   13.8670 C.ar  301  0J7301      0.0166
      7  C10       -6.4720   52.8850   14.6180 C.ar  301  0J7301      0.0020
      8  C11       -5.1060   52.8230   14.2610 C.ar  301  0J7301      0.0102
      9  C6        -4.6530   53.4540   13.1030 C.ar  301  0J7301      0.0672
     10  C5        -3.2170   53.4210   12.6940 C.1   301  0J7301      0.0806
     11  N4        -2.1730   53.0750   13.4960 N.2   301  0J7301     -0.0711
     12  N3        -0.9840   53.1370   12.7530 N.2   301  0J7301     -0.0129
     13  N2        -1.3510   53.4880   11.4480 N.2   301  0J7301     -0.0129
     14  N1        -2.7300   53.6020   11.4300 N.2   301  0J7301     -0.0711
     15  C14       -9.5620   56.7340   11.4250 C.ar  301  0J7301      0.0560
     16  C19       -9.1970   56.9220   10.1020 C.ar  301  0J7301      0.0046
     17  C18       -9.9310   57.7660    9.2680 C.ar  301  0J7301      0.0008
     18  C17      -11.0320   58.4690    9.7450 C.ar  301  0J7301      0.0100
     19  C16      -11.3930   58.3110   11.0700 C.ar  301  0J7301      0.0623
     20  C15      -10.6620   57.4550   11.9070 C.ar  301  0J7301      0.0146
     21  C20      -12.6070   59.0070   11.6010 C.1   301  0J7301      0.0311
     22  N25      -13.1660   60.0330   10.9160 N.2   301  0J7301     -0.1928
     23  C24      -14.2560   60.6510   11.3520 C.2   301  0J7301      0.1070
     24  C23      -14.8090   60.2420   12.5420 C.2   301  0J7301      0.0222
     25  C22      -14.2490   59.1930   13.2380 C.3   301  0J7301      0.1641
     26  N21      -13.1520   58.5890   12.7630 N.2   301  0J7301     -0.2151
@<TRIPOS>BOND
     1    17    18   ar
     2    17    16   ar
     3    18    19   ar
     4    16    15   ar
     5    22    23    1
     6    22    21    2
     7    19    21    1
     8    19    20   ar
     9    23    24    2
    10    15    20   ar
    11    15     2    1
    12    14    13    1
    13    14    10    2
    14    13    12    2
    15    21    26    2
    16     3     2   am
    17     3     4    1
    18     2     1    2
    19     5     4   ar
    20     5     9   ar
    21    24    25    1
    22    10     9    1
    23    10    11    2
    24     4     6   ar
    25    12    11    1
    26    26    25    1
    27     9     8   ar
    28     6     7   ar
    29     8     7   ar
