@<TRIPOS>MOLECULE
4ddy_DN6_A_1.pdb
 24 26 0 0 0
SMALL
GASTEIGER

@<TRIPOS>ATOM
      1  F24      -11.6650   60.6230   12.0830 F     301  DN6301     -0.1659
      2  C7       -12.3940   59.5840   11.6020 C.3   301  DN6301      0.4186
      3  F22      -13.2820   59.8910   10.6590 F     301  DN6301     -0.1659
      4  F23      -13.0950   59.0460   12.5880 F     301  DN6301     -0.1659
      5  C6       -11.4100   58.5750   11.0490 C.ar  301  DN6301      0.0716
      6  C1       -11.1870   58.5210    9.6860 C.ar  301  DN6301      0.0039
      7  C5       -10.6660   57.7330   11.8940 C.ar  301  DN6301      0.0084
      8  C4        -9.7500   56.7960   11.3880 C.ar  301  DN6301      0.0553
      9  C3        -9.5550   56.7830    9.9860 C.ar  301  DN6301      0.0046
     10  C2       -10.2940   57.6200    9.1320 C.ar  301  DN6301      0.0001
     11  C8        -8.9580   55.9070   12.3460 C.2   301  DN6301      0.2690
     12  O21       -9.3930   55.8160   13.5050 O.2   301  DN6301     -0.2680
     13  N9        -7.8410   55.2870   11.8990 N.am  301  DN6301     -0.1754
     14  C10       -6.9980   54.5020   12.7140 C.ar  301  DN6301      0.0743
     15  C15       -7.4730   53.7920   13.8030 C.ar  301  DN6301      0.0166
     16  C14       -6.5480   53.0840   14.5770 C.ar  301  DN6301      0.0020
     17  C13       -5.2130   53.0540   14.2180 C.ar  301  DN6301      0.0102
     18  C12       -4.7610   53.7190   13.1030 C.ar  301  DN6301      0.0672
     19  C11       -5.6600   54.4710   12.3580 C.ar  301  DN6301      0.0267
     20  C16       -3.4010   53.6620   12.7650 C.1   301  DN6301      0.0806
     21  N20       -2.8540   54.2250   11.6950 N.2   301  DN6301     -0.0711
     22  N19       -1.4790   54.0080   11.6210 N.2   301  DN6301     -0.0129
     23  N18       -1.1950   53.2680   12.7760 N.2   301  DN6301     -0.0129
     24  N17       -2.3690   53.0960   13.4750 N.2   301  DN6301     -0.0711
@<TRIPOS>BOND
     1    10     6   ar
     2    10     9   ar
     3     6     5   ar
     4     9     8   ar
     5     3     2    1
     6     5     2    1
     7     5     7   ar
     8     8     7   ar
     9     8    11    1
    10     2     1    1
    11     2     4    1
    12    22    21    1
    13    22    23    2
    14    21    20    2
    15    13    11   am
    16    13    14    1
    17    11    12    2
    18    19    14   ar
    19    19    18   ar
    20    14    15   ar
    21    20    18    1
    22    20    24    2
    23    23    24    1
    24    18    17   ar
    25    15    16   ar
    26    17    16   ar
