@<TRIPOS>MOLECULE
4de0_0JB_A_1.pdb
 23 26 0 0 0
SMALL
GASTEIGER

@<TRIPOS>ATOM
      1  O14       -9.1470   55.4140   13.7360 O.2   300  0JB300     -0.2680
      2  C13       -8.7480   55.4880   12.5700 C.2   300  0JB300      0.2705
      3  C15       -9.4750   56.3480   11.5940 C.ar  300  0JB300      0.0741
      4  C20       -9.1390   56.3710   10.2410 C.ar  300  0JB300      0.0999
      5  N21       -8.2370   55.6640    9.4730 N.2   300  0JB300     -0.2426
      6  C22       -8.3690   56.1060    8.2130 C.3   300  0JB300      0.2508
      7  N23       -9.3720   57.0080    8.1210 N.2   300  0JB300     -0.2428
      8  C19       -9.8570   57.2290    9.3730 C.ar  300  0JB300      0.0956
      9  C18      -10.8600   58.0700    9.8600 C.ar  300  0JB300      0.0203
     10  C17      -11.1520   58.0240   11.2230 C.ar  300  0JB300      0.0018
     11  C16      -10.4630   57.1860   12.0650 C.ar  300  0JB300      0.0062
     12  N12       -7.6610   54.8670   12.1230 N.am  300  0JB300     -0.1754
     13  C8        -6.7920   54.0590   12.8850 C.ar  300  0JB300      0.0743
     14  C7        -5.4480   53.9970   12.5080 C.ar  300  0JB300      0.0267
     15  C9        -7.2520   53.3060   13.9800 C.ar  300  0JB300      0.0166
     16  C10       -6.3210   52.5660   14.7040 C.ar  300  0JB300      0.0020
     17  C11       -4.9760   52.5130   14.3840 C.ar  300  0JB300      0.0102
     18  C6        -4.5590   53.2480   13.2730 C.ar  300  0JB300      0.0672
     19  C2        -3.1510   53.2120   12.8680 C.1   300  0JB300      0.0806
     20  N3        -2.1460   52.8870   13.6680 N.2   300  0JB300     -0.0711
     21  N4        -0.9980   52.9330   12.9520 N.2   300  0JB300     -0.0129
     22  N5        -1.2920   53.3310   11.6900 N.2   300  0JB300     -0.0129
     23  N1        -2.6780   53.4730   11.6370 N.2   300  0JB300     -0.0711
@<TRIPOS>BOND
     1     7     6    1
     2     7     8    2
     3     6     5    1
     4     8     9   ar
     5     8     4   ar
     6     5     4    2
     7     9    10   ar
     8     4     3   ar
     9    10    11   ar
    10     3    11   ar
    11     3     2    1
    12    23    22    1
    13    23    19    2
    14    22    21    2
    15    12     2   am
    16    12    13    1
    17    14    13   ar
    18    14    18   ar
    19     2     1    2
    20    19    18    1
    21    19    20    2
    22    13    15   ar
    23    21    20    1
    24    18    17   ar
    25    15    16   ar
    26    17    16   ar
