@<TRIPOS>MOLECULE
4de1_0J6_A_1.pdb
 23 26 0 0 0
SMALL
GASTEIGER

@<TRIPOS>ATOM
      1  O14       -9.2120   55.4320   13.8030 O.2   301  0J6301     -0.2723
      2  C13       -8.8880   55.5960   12.6160 C.2   301  0J6301      0.2533
      3  C15       -9.6930   56.5100   11.7420 C.3   301  0J6301      0.1225
      4  C20      -10.7160   57.2500   12.3480 C.2   301  0J6301     -0.0098
      5  C19      -11.4270   58.1590   11.5830 C.2   301  0J6301      0.0369
      6  C23      -12.5210   59.0220   11.9410 C.2   301  0J6301      0.1233
      7  N22      -12.8350   59.6840   10.8070 N.2   301  0J6301     -0.1464
      8  N21      -11.9970   59.2600    9.7730 N.2   301  0J6301     -0.1479
      9  C18      -11.1310   58.3200   10.2380 C.2   301  0J6301      0.1038
     10  C17      -10.1190   57.5960    9.6180 C.2   301  0J6301      0.0172
     11  C16       -9.3780   56.7000   10.3770 C.2   301  0J6301     -0.0113
     12  N12       -7.8040   54.9990   12.1030 N.am  301  0J6301     -0.1786
     13  C8        -6.9440   54.1610   12.8240 C.ar  301  0J6301      0.0741
     14  C7        -5.6020   54.1490   12.4580 C.ar  301  0J6301      0.0267
     15  C9        -7.4000   53.3290   13.8610 C.ar  301  0J6301      0.0166
     16  C10       -6.4710   52.5690   14.5680 C.ar  301  0J6301      0.0020
     17  C11       -5.1160   52.5580   14.2430 C.ar  301  0J6301      0.0102
     18  C6        -4.7140   53.3440   13.1770 C.ar  301  0J6301      0.0672
     19  C2        -3.2930   53.3440   12.8090 C.1   301  0J6301      0.0806
     20  N3        -2.8080   53.6280   11.5880 N.2   301  0J6301     -0.0711
     21  N4        -1.4420   53.4520   11.6620 N.2   301  0J6301     -0.0129
     22  N5        -1.1290   53.0620   12.9220 N.2   301  0J6301     -0.0129
     23  N1        -2.2780   53.0180   13.6300 N.2   301  0J6301     -0.0711
@<TRIPOS>BOND
     1    10     9    1
     2    10    11    2
     3     8     9    2
     4     8     7    1
     5     9     5    1
     6    11     3    1
     7     7     6    2
     8     5     6    1
     9     5     4    2
    10    20    21    1
    11    20    19    2
    12    21    22    2
    13     3     4    1
    14     3     2    1
    15    12     2   am
    16    12    13    1
    17    14    13   ar
    18    14    18   ar
    19     2     1    2
    20    19    18    1
    21    19    23    2
    22    13    15   ar
    23    22    23    1
    24    18    17   ar
    25    15    16   ar
    26    17    16   ar
