@<TRIPOS>MOLECULE
4de2_DN3_A_1.pdb
 24 26 0 0 0
SMALL
GASTEIGER

@<TRIPOS>ATOM
      1  O14       -9.2570   55.8220   13.5960 O.2   301  DN3301     -0.2680
      2  C13       -8.8590   55.9810   12.4460 C.2   301  DN3301      0.2690
      3  C15       -9.6340   56.8840   11.5140 C.ar  301  DN3301      0.0551
      4  C16       -9.2810   56.9990   10.1710 C.ar  301  DN3301      0.0046
      5  C17       -9.9640   57.9060    9.3610 C.ar  301  DN3301     -0.0001
      6  C18      -11.0130   58.6660    9.8650 C.ar  301  DN3301     -0.0029
      7  C19      -11.2930   58.6230   11.2310 C.ar  301  DN3301     -0.0060
      8  C21      -12.4100   59.4660   11.8250 C.3   301  DN3301      0.0992
      9  N22      -13.6880   58.9840   11.2650 N.3   301  DN3301     -0.2665
     10  C23      -13.9840   57.6630   11.8460 C.3   301  DN3301      0.0899
     11  C24      -14.7930   59.9020   11.5810 C.3   301  DN3301      0.0899
     12  C20      -10.6200   57.7150   12.0380 C.ar  301  DN3301      0.0017
     13  N12       -7.7600   55.3740   11.9800 N.am  301  DN3301     -0.1754
     14  C10       -6.9040   54.5610   12.7580 C.ar  301  DN3301      0.0743
     15  C11       -5.5580   54.5190   12.4080 C.ar  301  DN3301      0.0267
     16  C6        -4.6570   53.7620   13.1500 C.ar  301  DN3301      0.0672
     17  C7        -5.0900   53.0350   14.2540 C.ar  301  DN3301      0.0102
     18  C8        -6.4250   53.0920   14.6240 C.ar  301  DN3301      0.0020
     19  C9        -7.3410   53.8320   13.8640 C.ar  301  DN3301      0.0166
     20  C2        -3.2280   53.7180   12.7620 C.1   301  DN3301      0.0806
     21  N1        -2.7510   53.9830   11.5290 N.2   301  DN3301     -0.0711
     22  N5        -1.3720   53.8130   11.5380 N.2   301  DN3301     -0.0129
     23  N4        -1.0230   53.4450   12.8380 N.2   301  DN3301     -0.0129
     24  N3        -2.2040   53.3760   13.5800 N.2   301  DN3301     -0.0711
@<TRIPOS>BOND
     1     5     6   ar
     2     5     4   ar
     3     6     7   ar
     4     4     3   ar
     5     7     8    1
     6     7    12   ar
     7     9    11    1
     8     9     8    1
     9     9    10    1
    10     3    12   ar
    11     3     2    1
    12    21    22    1
    13    21    20    2
    14    22    23    2
    15    13     2   am
    16    13    14    1
    17    15    14   ar
    18    15    16   ar
    19     2     1    2
    20    14    19   ar
    21    20    16    1
    22    20    24    2
    23    23    24    1
    24    16    17   ar
    25    19    18   ar
    26    17    18   ar
