@<TRIPOS>MOLECULE
4de3_DN8_A_1.pdb
 21 23 0 0 0
SMALL
GASTEIGER

@<TRIPOS>ATOM
      1  O21       -8.8980   55.8690   13.4010 O.2   301  DN8301     -0.2680
      2  C7        -8.6180   55.8480   12.1980 C.2   301  DN8301      0.2690
      3  C4        -9.3210   56.8030   11.2640 C.ar  301  DN8301      0.0559
      4  C3        -9.0510   56.7520    9.8870 C.ar  301  DN8301      0.0046
      5  C2        -9.6910   57.6170    9.0100 C.ar  301  DN8301      0.0007
      6  C5       -10.2150   57.7410   11.7670 C.ar  301  DN8301      0.0113
      7  C6       -10.8420   58.6270   10.8870 C.ar  301  DN8301      0.0347
      8 BR1       -12.0240   59.9130   11.5790 Br    301  DN8301     -0.0490
      9  C1       -10.5960   58.5780    9.5220 C.ar  301  DN8301      0.0067
     10  N8        -7.7270   55.0220   11.6640 N.am  301  DN8301     -0.1754
     11  C9        -6.7450   54.3770   12.4450 C.ar  301  DN8301      0.0743
     12  C14       -7.1350   53.7290   13.6200 C.ar  301  DN8301      0.0166
     13  C13       -6.1890   53.0690   14.4150 C.ar  301  DN8301      0.0020
     14  C12       -4.8380   52.9950   14.0690 C.ar  301  DN8301      0.0102
     15  C11       -4.4380   53.6120   12.8800 C.ar  301  DN8301      0.0672
     16  C10       -5.3880   54.2990   12.0990 C.ar  301  DN8301      0.0267
     17  C15       -3.0910   53.5560   12.5310 C.1   301  DN8301      0.0806
     18  N19       -2.5220   53.9710   11.4090 N.2   301  DN8301     -0.0711
     19  N18       -1.1770   53.7360   11.4080 N.2   301  DN8301     -0.0129
     20  N17       -0.8980   53.1040   12.5660 N.2   301  DN8301     -0.0129
     21  N16       -2.1100   53.0170   13.2490 N.2   301  DN8301     -0.0711
@<TRIPOS>BOND
     1     5     9   ar
     2     5     4   ar
     3     9     7   ar
     4     4     3   ar
     5     7     8    1
     6     7     6   ar
     7     3     6   ar
     8     3     2    1
     9    19    18    1
    10    19    20    2
    11    18    17    2
    12    10     2   am
    13    10    11    1
    14    16    11   ar
    15    16    15   ar
    16     2     1    2
    17    11    12   ar
    18    17    15    1
    19    17    21    2
    20    20    21    1
    21    15    14   ar
    22    12    13   ar
    23    14    13   ar
