@<TRIPOS>MOLECULE
4de4_EPE_A_1.pdb
 15 15 0 0 0
SMALL
GASTEIGER

@<TRIPOS>ATOM
      1  N1        10.0030   26.3780   -2.7890 N.3   401  EPE401     -0.2689
      2  C2        11.2130   27.1800   -3.0140 C.3   401  EPE401      0.0897
      3  C3        11.1240   27.8160   -4.3970 C.3   401  EPE401      0.0897
      4  N4         9.8240   28.3990   -4.6870 N.3   401  EPE401     -0.2681
      5  C5         8.6200   27.7660   -4.1720 C.3   401  EPE401      0.0897
      6  C6         8.8190   27.2420   -2.7570 C.3   401  EPE401      0.0897
      7  C7         9.7290   29.2940   -5.8280 C.3   401  EPE401      0.1081
      8  C8         8.3020   29.5240   -6.3080 C.3   401  EPE401      0.1993
      9  O8         7.9520   28.5270   -7.2420 O.3   401  EPE401     -0.2189
     10  C9        10.0820   25.4680   -1.6300 C.3   401  EPE401      0.0939
     11  C10       11.3160   25.7220   -0.7660 C.3   401  EPE401      0.1225
     12  S         10.9430   26.5720    0.7880 S.3   401  EPE401     -0.1946
     13  O1S       10.7370   25.5880    1.8460 O.3   401  EPE401     -0.3074
     14  O2S       12.0710   27.4300    1.1370 O.3   401  EPE401     -0.3074
     15  O3S        9.7360   27.3790    0.6300 O.3   401  EPE401     -0.3074
@<TRIPOS>BOND
     1     9     8    1
     2     8     7    1
     3     7     4    1
     4     4     3    1
     5     4     5    1
     6     3     2    1
     7     5     6    1
     8     2     1    1
     9     1     6    1
    10     1    10    1
    11    10    11    1
    12    11    12    1
    13    15    12    1
    14    12    14    1
    15    12    13    1
