@<TRIPOS>MOLECULE
4de5_0JD_A_1.pdb
 13 14 0 0 0
SMALL
GASTEIGER

@<TRIPOS>ATOM
      1  OAA       15.2280   12.9710    3.6940 O.co2 401  0JD401     -0.2415
      2  CAJ       15.3800   11.8060    3.3390 C.2   401  0JD401      0.4079
      3  OAB       15.8230   11.4450    2.2320 O.co2 401  0JD401     -0.2415
      4  CAM       15.0580   10.7040    4.3430 C.3   401  0JD401      0.3111
      5  OAI       14.2590   11.1700    5.4440 O.3   401  0JD401     -0.4610
      6  CAL       14.0760   10.1990    6.3820 C.ar  401  0JD401      0.1730
      7  CAF       13.8250   10.5260    7.7170 C.ar  401  0JD401      0.0401
      8  CAD       13.6270    9.5360    8.6710 C.ar  401  0JD401      0.0033
      9  CAC       13.6890    8.2210    8.2310 C.ar  401  0JD401      0.0033
     10  CAE       13.9110    7.8690    6.9060 C.ar  401  0JD401      0.0400
     11  CAK       14.1070    8.8650    5.9650 C.ar  401  0JD401      0.1724
     12  OAH       14.3430    8.5640    4.6360 O.3   401  0JD401     -0.4679
     13  CAG       14.2560    9.6310    3.7000 C.3   401  0JD401      0.2606
@<TRIPOS>BOND
     1     3     2   ar
     2     2     1   ar
     3     2     4    1
     4    13     4    1
     5    13    12    1
     6     4     5    1
     7    12    11    1
     8     5     6    1
     9    11     6   ar
    10    11    10   ar
    11     6     7   ar
    12    10     9   ar
    13     7     8   ar
    14     9     8   ar
