@<TRIPOS>MOLECULE
4de6_ACD_A_1.pdb
 22 21 0 0 0
SMALL
GASTEIGER

@<TRIPOS>ATOM
      1  C1         0.5520  -33.5520  -61.4020 C.2   201  ACD201      0.3649
      2  C2         1.1970  -34.8080  -60.8190 C.3   201  ACD201      0.1144
      3  C3         0.1400  -35.6380  -60.0830 C.3   201  ACD201      0.0165
      4  C4         0.2760  -35.4440  -58.5680 C.3   201  ACD201      0.0263
      5  C5         0.4780  -36.8010  -57.8770 C.2   201  ACD201     -0.0304
      6  C6         0.1800  -36.9480  -56.5680 C.2   201  ACD201     -0.0260
      7  C7        -0.4250  -35.7680  -55.8030 C.3   201  ACD201      0.0513
      8  C8         0.3870  -35.4640  -54.5350 C.2   201  ACD201     -0.0257
      9  C9         0.7630  -34.1800  -54.2840 C.2   201  ACD201     -0.0257
     10  C10        0.3960  -33.0630  -55.2790 C.3   201  ACD201      0.0513
     11  C11       -0.5900  -32.0990  -54.6150 C.2   201  ACD201     -0.0257
     12  C12       -0.7480  -30.8150  -55.0420 C.2   201  ACD201     -0.0257
     13  C13        0.0330  -30.2310  -56.2310 C.3   201  ACD201      0.0513
     14  C14       -0.1320  -28.6960  -56.1940 C.2   201  ACD201     -0.0260
     15  C15       -0.0840  -27.9220  -57.3190 C.2   201  ACD201     -0.0304
     16  C16        0.1310  -28.5150  -58.7170 C.3   201  ACD201      0.0257
     17  C17       -0.2160  -27.4470  -59.7740 C.3   201  ACD201      0.0047
     18  C18        0.1210  -27.9670  -61.1780 C.3   201  ACD201      0.0003
     19  C19       -0.3990  -26.9950  -62.2460 C.3   201  ACD201      0.0000
     20  C20        0.0190  -27.4920  -63.6330 C.3   201  ACD201      0.0000
     21  O1         1.2180  -32.9030  -62.2360 O.co2 201  ACD201     -0.2457
     22  O2        -0.5920  -33.2600  -60.9930 O.co2 201  ACD201     -0.2457
@<TRIPOS>BOND
     1    20    19    1
     2    19    18    1
     3    21     1   ar
     4     1    22   ar
     5     1     2    1
     6    18    17    1
     7     2     3    1
     8     3     4    1
     9    17    16    1
    10    16    15    1
    11     4     5    1
    12     5     6    2
    13    15    14    2
    14     6     7    1
    15    13    14    1
    16    13    12    1
    17     7     8    1
    18    10    11    1
    19    10     9    1
    20    12    11    2
    21     8     9    2
