@<TRIPOS>MOLECULE
4de7_UDP_A_1.pdb
 16 17 0 0 0
SMALL
GASTEIGER

@<TRIPOS>ATOM
      1  N1        14.9640  -13.4290   23.5530 N.am  401  UDP401     -0.1996
      2  C2        15.6200  -14.4670   24.1900 C.1   401  UDP401      0.2802
      3  N3        14.8950  -15.4770   24.7910 N.2   401  UDP401     -0.2497
      4  C4        13.5170  -15.4470   24.7600 C.1   401  UDP401      0.1941
      5  C5        12.8680  -14.3960   24.1220 C.3   401  UDP401      0.1579
      6  C6        13.6120  -13.3010   23.6970 C.3   401  UDP401      0.1249
      7  O2        16.8490  -14.4970   24.2210 O.2   401  UDP401     -0.1922
      8  O4        12.8710  -16.3470   25.2940 O.2   401  UDP401     -0.2133
      9  C1'       15.7410  -12.3440   22.9220 C.3   401  UDP401      0.2360
     10  C2'       15.7950  -12.4810   21.4080 C.3   401  UDP401      0.2315
     11  O2'       17.1330  -12.4330   20.9810 O.3   401  UDP401     -0.2157
     12  C3'       15.0710  -11.2720   20.8590 C.3   401  UDP401      0.2133
     13  C4'       14.8200  -10.3690   22.0540 C.3   401  UDP401      0.1502
     14  O4'       15.1290  -11.1040   23.2210 O.3   401  UDP401     -0.3348
     15  O3'       15.9220  -10.5990   19.9610 O.3   401  UDP401     -0.2176
     16  C5'       13.3780   -9.8770   22.1070 C.3   401  UDP401      0.0349
@<TRIPOS>BOND
     1    15    12    1
     2    12    10    1
     3    12    13    1
     4    11    10    1
     5    10     9    1
     6    13    16    1
     7    13    14    1
     8     9    14    1
     9     9     1    1
    10     1     6    1
    11     1     2   am
    12     6     5    1
    13     5     4    1
    14     2     7    2
    15     2     3    2
    16     4     3    2
    17     4     8    2
