@<TRIPOS>MOLECULE
4de8_0K3_A_1.pdb
 45 44 0 0 0
SMALL
GASTEIGER

@<TRIPOS>ATOM
      1  O2       -19.5540    9.7820   39.0370 O.2   501  0K3501     -0.2224
      2  P        -21.1280   10.1280   38.9800 P.3   501  0K3501      0.5329
      3  O        -21.8930    9.1480   39.7870 O.3   501  0K3501     -0.1145
      4  O1       -21.4100   11.6050   39.5520 O.3   501  0K3501     -0.1145
      5  O3       -21.6080   10.0270   37.4490 O.3   501  0K3501     -0.2654
      6  C        -22.8050   10.6620   37.0180 C.3   501  0K3501      0.1793
      7  C1       -23.8980    9.6270   36.9680 C.2   501  0K3501     -0.0022
      8  C2       -24.4550    9.2780   35.8050 C.2   501  0K3501     -0.0454
      9  C3       -25.5400    8.2430   35.8030 C.3   501  0K3501      0.0261
     10  C4       -23.9660    9.9060   34.5200 C.3   501  0K3501      0.0264
     11  C5       -25.1430   10.4040   33.6890 C.3   501  0K3501      0.0297
     12  C6       -24.6550   11.3190   32.5900 C.2   501  0K3501     -0.0342
     13  C7       -25.4380   11.5500   31.5260 C.2   501  0K3501     -0.0478
     14  C8       -24.9820   12.4510   30.4190 C.3   501  0K3501      0.0260
     15  C9       -26.7770   10.8590   31.4730 C.3   501  0K3501      0.0263
     16  C10      -27.7280   11.4470   30.4400 C.3   501  0K3501      0.0297
     17  C11      -29.0930   11.4220   31.0860 C.2   501  0K3501     -0.0342
     18  C12      -30.1880   11.0470   30.4120 C.2   501  0K3501     -0.0478
     19  C13      -31.5270   11.0300   31.0890 C.3   501  0K3501      0.0260
     20  C14      -30.0620   10.6240   28.9740 C.3   501  0K3501      0.0263
     21  C15      -31.1400   11.2770   28.1200 C.3   501  0K3501      0.0297
     22  C16      -30.4930   11.5170   26.7810 C.2   501  0K3501     -0.0342
     23  C17      -31.2160   11.6430   25.6670 C.2   501  0K3501     -0.0478
     24  C39      -30.5430   11.8770   24.3470 C.3   501  0K3501      0.0260
     25  C18      -32.7130   11.5560   25.7270 C.3   501  0K3501      0.0263
     26  C19      -33.1890   11.3470   24.3010 C.3   501  0K3501      0.0297
     27  C20      -34.6400   11.7280   24.2130 C.2   501  0K3501     -0.0342
     28  C21      -35.3550   11.3110   23.1660 C.2   501  0K3501     -0.0478
     29  C22      -36.7990   11.6830   23.0560 C.3   501  0K3501      0.0260
     30  C23      -34.7110   10.4690   22.0940 C.3   501  0K3501      0.0263
     31  C24      -35.8160    9.7230   21.3590 C.3   501  0K3501      0.0297
     32  C25      -35.7280   10.0030   19.8790 C.2   501  0K3501     -0.0342
     33  C26      -36.4930    9.3060   19.0300 C.2   501  0K3501     -0.0478
     34  C27      -36.4020    9.5810   17.5580 C.3   501  0K3501      0.0260
     35  C28      -37.4320    8.2450   19.5620 C.3   501  0K3501      0.0263
     36  C29      -38.7550    8.2930   18.8050 C.3   501  0K3501      0.0297
     37  C30      -39.8550    8.6380   19.7780 C.2   501  0K3501     -0.0342
     38  C31      -40.9540    9.3070   19.3960 C.2   501  0K3501     -0.0478
     39  C32      -42.0050    9.6170   20.4210 C.3   501  0K3501      0.0260
     40  C33      -41.1490    9.7470   17.9600 C.3   501  0K3501      0.0263
     41  C34      -39.9280   10.5160   17.4600 C.3   501  0K3501      0.0297
     42  C35      -40.1040   12.0080   17.6220 C.2   501  0K3501     -0.0342
     43  C36      -39.0800   12.8260   17.3330 C.2   501  0K3501     -0.0478
     44  C38      -39.2260   14.3100   17.4860 C.3   501  0K3501      0.0260
     45  C37      -37.7760   12.2560   16.8590 C.3   501  0K3501      0.0260
@<TRIPOS>BOND
     1    45    43    1
     2    43    44    1
     3    43    42    2
     4    41    42    1
     5    41    40    1
     6    34    33    1
     7    40    38    1
     8    36    35    1
     9    36    37    1
    10    33    35    1
    11    33    32    2
    12    38    37    2
    13    38    39    1
    14    32    31    1
    15    31    30    1
    16    30    28    1
    17    29    28    1
    18    28    27    2
    19    27    26    1
    20    26    25    1
    21    24    23    1
    22    23    25    1
    23    23    22    2
    24    22    21    1
    25    21    20    1
    26    20    18    1
    27    18    17    2
    28    18    19    1
    29    14    13    1
    30    16    17    1
    31    16    15    1
    32    15    13    1
    33    13    12    2
    34    12    11    1
    35    11    10    1
    36    10     8    1
    37     9     8    1
    38     8     7    2
    39     7     6    1
    40     6     5    1
    41     5     2    1
    42     2     1    2
    43     2     4    1
    44     2     3    1
