@<TRIPOS>MOLECULE
4de9_VTP_A_1.pdb
 49 48 0 0 0
SMALL
GASTEIGER

@<TRIPOS>ATOM
      1  C        -10.1780   17.6840    6.0970 C.3   401  VTP401      0.1747
      2  O         -9.2420   18.1410    7.0720 O.3   401  VTP401     -0.3089
      3  P         -9.2560   19.6530    7.6270 P.3   401  VTP401      0.2233
      4  C1        -9.4590   16.6990    5.2090 C.2   401  VTP401     -0.0024
      5  O1        -7.8730   20.2770    7.0670 O.3   401  VTP401     -0.2261
      6  P1        -7.7640   21.2970    5.8180 P.3   401  VTP401      0.5373
      7  C2       -10.0230   15.5600    4.7900 C.2   401  VTP401     -0.0454
      8  O2        -7.3780   20.4360    4.6390 O.2   401  VTP401     -0.2221
      9  C3        -9.2330   14.6390    3.9130 C.3   401  VTP401      0.0261
     10  O3        -9.1300   21.9310    5.6970 O.3   401  VTP401     -0.1143
     11  C4       -11.4270   15.1780    5.1910 C.3   401  VTP401      0.0264
     12  O4        -6.6740   22.2480    6.2520 O.3   401  VTP401     -0.1143
     13  C5       -11.5930   13.6810    4.9480 C.3   401  VTP401      0.0297
     14  O5        -9.1030   19.5620    9.1270 O.3   401  VTP401     -0.4370
     15  C6       -12.8200   13.1620    5.6590 C.2   401  VTP401     -0.0342
     16  O6       -10.4380   20.3760    7.0240 O.2   401  VTP401     -0.5169
     17  C7       -13.1760   11.8730    5.5510 C.2   401  VTP401     -0.0478
     18  C8       -14.3970   11.3710    6.2630 C.3   401  VTP401      0.0260
     19  C9       -12.3530   10.9200    4.7160 C.3   401  VTP401      0.0263
     20  C10      -13.2820    9.8720    4.1190 C.3   401  VTP401      0.0297
     21  C11      -12.5120    8.9770    3.1770 C.2   401  VTP401     -0.0342
     22  C12      -13.1290    8.4350    2.1160 C.2   401  VTP401     -0.0478
     23  C13      -12.3660    7.5440    1.1770 C.3   401  VTP401      0.0260
     24  C14      -14.5890    8.7370    1.8590 C.3   401  VTP401      0.0263
     25  C15      -15.3840    7.4390    1.8220 C.3   401  VTP401      0.0297
     26  C16      -15.4820    6.8520    3.2100 C.2   401  VTP401     -0.0342
     27  C17      -15.9930    5.6240    3.3670 C.2   401  VTP401     -0.0478
     28  C18      -16.1060    5.0130    4.7320 C.3   401  VTP401      0.0260
     29  C19      -16.4430    4.8570    2.1470 C.3   401  VTP401      0.0263
     30  C20      -17.5310    3.8630    2.5250 C.3   401  VTP401      0.0297
     31  C21      -16.9800    2.4600    2.4970 C.2   401  VTP401     -0.0342
     32  C22      -17.8290    1.4250    2.5260 C.2   401  VTP401     -0.0478
     33  C23      -17.3100    0.0170    2.5030 C.3   401  VTP401      0.0260
     34  C24      -19.3160    1.6880    2.5900 C.3   401  VTP401      0.0263
     35  C25      -20.0470    0.8510    1.5440 C.3   401  VTP401      0.0297
     36  C26      -20.0660    1.5850    0.2230 C.2   401  VTP401     -0.0342
     37  C27      -20.5370    0.9850   -0.8790 C.2   401  VTP401     -0.0478
     38  C28      -20.5540    1.7220   -2.1960 C.3   401  VTP401      0.0263
     39  C29      -19.3200    1.3610   -3.0170 C.3   401  VTP401      0.0297
     40  C30      -18.0820    2.0220   -2.4570 C.2   401  VTP401     -0.0342
     41  C31      -17.0720    2.3040   -3.2910 C.2   401  VTP401     -0.0478
     42  C32      -15.8100    2.9680   -2.7950 C.3   401  VTP401      0.0263
     43  C33      -14.6420    1.9890   -2.7330 C.3   401  VTP401      0.0297
     44  C34      -14.3440    1.3930   -4.0900 C.2   401  VTP401     -0.0342
     45  C35      -13.0870    1.0410   -4.4080 C.2   401  VTP401     -0.0478
     46  C36      -12.7690    0.4410   -5.7460 C.3   401  VTP401      0.0260
     47  C37      -11.9830    1.2520   -3.4200 C.3   401  VTP401      0.0260
     48  C38      -17.2160    1.9740   -4.7450 C.3   401  VTP401      0.0260
     49  C39      -21.0430   -0.4270   -0.8080 C.3   401  VTP401      0.0260
@<TRIPOS>BOND
     1    46    45    1
     2    48    41    1
     3    45    44    2
     4    45    47    1
     5    44    43    1
     6    41    42    1
     7    41    40    2
     8    39    40    1
     9    39    38    1
    10    42    43    1
    11    38    37    1
    12    37    49    1
    13    37    36    2
    14    36    35    1
    15    23    22    1
    16    35    34    1
    17    25    24    1
    18    25    26    1
    19    24    22    1
    20    22    21    2
    21    29    30    1
    22    29    27    1
    23    31    30    1
    24    31    32    2
    25    33    32    1
    26    32    34    1
    27    21    20    1
    28    26    27    2
    29    27    28    1
    30     9     7    1
    31    20    19    1
    32     8     6    2
    33    19    17    1
    34     7    11    1
    35     7     4    2
    36    13    11    1
    37    13    15    1
    38     4     1    1
    39    17    15    2
    40    17    18    1
    41    10     6    1
    42     6    12    1
    43     6     5    1
    44     1     2    1
    45    16     3    2
    46     5     3    1
    47     2     3    1
    48     3    14    1
