@<TRIPOS>MOLECULE
4dea_NHI_A_1.pdb
 26 28 0 0 0
SMALL
GASTEIGER

@<TRIPOS>ATOM
      1  C01       -6.9390  -29.5820    1.1840 C.2   504  NHI504      0.3878
      2  N01       -3.1330  -33.1080    6.9960 N.pl3 504  NHI504     -0.1357
      3  O01       -5.9230  -29.6110    0.1760 O.co2 504  NHI504     -0.2406
      4  N02       -4.3330  -31.1150    6.7660 N.2   504  NHI504     -0.3189
      5  O02       -8.1120  -29.6800    0.8740 O.co2 504  NHI504     -0.2406
      6  N03       -3.6480  -31.9870    8.9050 N.2   504  NHI504     -0.1683
      7  N04       -5.5280  -29.1120    6.7070 N.pl3 504  NHI504     -0.1827
      8  C05       -3.0710  -33.0350    3.2810 C.ar  504  NHI504      0.0079
      9  C06       -1.9160  -33.8280    3.0360 C.ar  504  NHI504      0.0799
     10  C07       -1.1890  -34.3720    4.1520 C.ar  504  NHI504      0.0079
     11  C08       -1.6160  -34.1120    5.4860 C.ar  504  NHI504      0.0176
     12  C09       -2.7680  -33.3140    5.7400 C.ar  504  NHI504      0.0826
     13  C10       -3.4890  -32.7870    4.6110 C.ar  504  NHI504      0.0176
     14  C11       -1.4980  -34.0640    1.7410 C.2   504  NHI504      0.3878
     15  C12       -3.7120  -32.0550    7.5420 C.1   504  NHI504      0.1709
     16  C13       -4.9180  -30.0440    7.4050 C.2   504  NHI504      0.2178
     17  C14       -4.8950  -29.8910    8.7940 C.2   504  NHI504      0.0720
     18  C15       -4.2400  -30.9050    9.5000 C.2   504  NHI504      0.1158
     19  C16       -5.8360  -29.2110    5.4380 C.ar  504  NHI504      0.0731
     20  C17       -7.2010  -29.1900    5.0300 C.ar  504  NHI504      0.0168
     21  C18       -7.5430  -29.3070    3.6520 C.ar  504  NHI504      0.0079
     22  C19       -6.5170  -29.4460    2.6710 C.ar  504  NHI504      0.0799
     23  C20       -5.1610  -29.4610    3.0720 C.ar  504  NHI504      0.0079
     24  C21       -4.8190  -29.3430    4.4380 C.ar  504  NHI504      0.0168
     25  O25       -2.2840  -34.0780    0.8180 O.co2 504  NHI504     -0.2406
     26  O26       -0.2130  -34.2620    1.4840 O.co2 504  NHI504     -0.2406
@<TRIPOS>BOND
     1     3     1   ar
     2    25    14   ar
     3     5     1   ar
     4     1    22    1
     5    26    14   ar
     6    14     9    1
     7    22    23   ar
     8    22    21   ar
     9     9     8   ar
    10     9    10   ar
    11    23    24   ar
    12     8    13   ar
    13    21    20   ar
    14    10    11   ar
    15    24    19   ar
    16    13    12   ar
    17    20    19   ar
    18    19     7    1
    19    11    12   ar
    20    12     2    1
    21     7    16    1
    22     4    16    2
    23     4    15    2
    24     2    15    1
    25    16    17    1
    26    15     6    2
    27    17    18    2
    28     6    18    1
