@<TRIPOS>MOLECULE
4deb_NHJ_A_1.pdb
 27 29 0 0 0
SMALL
GASTEIGER

@<TRIPOS>ATOM
      1  N01       -2.8300  -32.8940    6.7300 N.pl3 501  NHJ501     -0.1357
      2  N02       -3.8160  -30.8470    6.3360 N.2   501  NHJ501     -0.3189
      3  N03       -3.6850  -31.8290    8.5330 N.2   501  NHJ501     -0.1683
      4  N04       -4.8000  -28.8050    6.0810 N.pl3 501  NHJ501     -0.1828
      5  N05       -1.8240  -33.6930    0.4960 N.am  501  NHJ501     -0.0837
      6  C06       -1.4210  -34.0600    5.2980 C.ar  501  NHJ501      0.0175
      7  C07       -1.0090  -34.4330    4.0010 C.ar  501  NHJ501      0.0060
      8  C08       -1.6730  -33.9280    2.8640 C.ar  501  NHJ501      0.0567
      9  C09       -2.7600  -33.0370    3.0450 C.ar  501  NHJ501      0.0060
     10  C10       -3.1710  -32.6670    4.3460 C.ar  501  NHJ501      0.0175
     11  C11       -2.4980  -33.1790    5.4940 C.ar  501  NHJ501      0.0826
     12  C12       -3.4500  -31.8440    7.1890 C.1   501  NHJ501      0.1709
     13  C13       -4.4610  -29.7690    6.8760 C.2   501  NHJ501      0.2178
     14  C14       -4.7530  -29.6500    8.2440 C.2   501  NHJ501      0.0720
     15  C15       -4.3340  -30.7270    9.0260 C.2   501  NHJ501      0.1158
     16  C16       -5.7620  -28.8360    5.2290 C.ar  501  NHJ501      0.0731
     17  C17       -5.5480  -29.2580    3.8700 C.ar  501  NHJ501      0.0166
     18  C18       -6.6370  -29.2670    2.9430 C.ar  501  NHJ501      0.0013
     19  C19       -7.9390  -28.8510    3.3700 C.ar  501  NHJ501      0.0039
     20  C20       -8.1420  -28.4260    4.7340 C.ar  501  NHJ501      0.0727
     21  C21       -7.0500  -28.4260    5.6430 C.ar  501  NHJ501      0.0204
     22  C22       -9.4970  -27.9630    5.2470 C.3   501  NHJ501      0.4186
     23  C23       -1.2760  -34.2990    1.5980 C.2   501  NHJ501      0.2842
     24  O24       -0.4490  -35.1850    1.4340 O.2   501  NHJ501     -0.2667
     25  F25       -9.3080  -26.8420    6.0810 F     501  NHJ501     -0.1659
     26  F26      -10.3290  -27.5920    4.1840 F     501  NHJ501     -0.1659
     27  F27      -10.1030  -28.9950    5.9780 F     501  NHJ501     -0.1659
@<TRIPOS>BOND
     1     5    23   am
     2    24    23    2
     3    23     8    1
     4     8     9   ar
     5     8     7   ar
     6    18    19   ar
     7    18    17   ar
     8     9    10   ar
     9    19    20   ar
    10    17    16   ar
    11     7     6   ar
    12    26    22    1
    13    10    11   ar
    14    20    22    1
    15    20    21   ar
    16    16    21   ar
    17    16     4    1
    18    22    27    1
    19    22    25    1
    20     6    11   ar
    21    11     1    1
    22     4    13    1
    23     2    13    2
    24     2    12    2
    25     1    12    1
    26    13    14    1
    27    12     3    2
    28    14    15    2
    29     3    15    1
