@<TRIPOS>MOLECULE
4dec_UDP_A_1.pdb
 25 26 0 0 0
SMALL
GASTEIGER

@<TRIPOS>ATOM
      1  N1        34.9730  -13.5080   27.3550 N.am  401  UDP401     -0.1766
      2  C2        34.2830  -14.4800   26.6560 C.1   401  UDP401      0.2845
      3  N3        34.9630  -15.3990   25.8540 N.2   401  UDP401     -0.2452
      4  C4        36.3310  -15.3140   25.7480 C.1   401  UDP401      0.2182
      5  C5        37.0210  -14.3040   26.4370 C.2   401  UDP401      0.1242
      6  C6        36.3140  -13.3150   27.1360 C.2   401  UDP401      0.0929
      7  O2        33.0530  -14.5500   26.7800 O.2   401  UDP401     -0.1918
      8  O4        36.9210  -16.1390   25.0380 O.2   401  UDP401     -0.2085
      9  C1'       34.1750  -12.5660   28.1560 C.3   401  UDP401      0.2401
     10  C2'       34.6410  -12.4680   29.5800 C.3   401  UDP401      0.2319
     11  O2'       34.0030  -13.4300   30.3990 O.3   401  UDP401     -0.2157
     12  C3'       34.2590  -11.0430   29.9030 C.3   401  UDP401      0.2158
     13  C4'       34.4720  -10.3020   28.5920 C.3   401  UDP401      0.1799
     14  O4'       34.3000  -11.2820   27.5920 O.3   401  UDP401     -0.3320
     15  O3'       32.8960  -11.0020   30.2900 O.3   401  UDP401     -0.2175
     16  C5'       35.8390   -9.6240   28.4600 C.3   401  UDP401      0.1813
     17  O5'       36.8480  -10.5240   28.8450 O.3   401  UDP401     -0.3111
     18  PA        38.1010  -10.0340   29.7370 P.3   401  UDP401      0.2231
     19  O1A       38.4000   -8.6850   29.2010 O.2   401  UDP401     -0.5169
     20  O2A       39.2140  -11.0050   29.6560 O.3   401  UDP401     -0.4370
     21  O3A       37.5980  -10.0320   31.2990 O.3   401  UDP401     -0.2261
     22  PB        38.2530  -11.0360   32.4310 P.3   401  UDP401      0.5373
     23  O1B       38.7970  -12.2350   31.7430 O.2   401  UDP401     -0.2221
     24  O2B       37.2960  -11.5040   33.4400 O.3   401  UDP401     -0.1143
     25  O3B       39.3880  -10.3880   33.1090 O.3   401  UDP401     -0.1143
@<TRIPOS>BOND
     1     8     4    2
     2     4     3    2
     3     4     5    1
     4     3     2    2
     5     5     6    2
     6     2     7    2
     7     2     1   am
     8     6     1    1
     9     1     9    1
    10    14     9    1
    11    14    13    1
    12     9    10    1
    13    16    13    1
    14    16    17    1
    15    13    12    1
    16    17    18    1
    17    19    18    2
    18    10    12    1
    19    10    11    1
    20    20    18    1
    21    18    21    1
    22    12    15    1
    23    21    22    1
    24    23    22    2
    25    22    25    1
    26    22    24    1
