@<TRIPOS>MOLECULE
4dec_3PG_A_1.pdb
 11 10 0 0 0
SMALL
GASTEIGER

@<TRIPOS>ATOM
      1  C1        41.2840   -1.7580   27.8820 C.2   403  3PG403      0.3972
      2  O1        40.2370   -1.5940   27.2280 O.co2 403  3PG403     -0.2427
      3  O2        42.1520   -0.8760   28.0550 O.co2 403  3PG403     -0.2427
      4  C2        41.5960   -3.1570   28.2930 C.3   403  3PG403      0.2838
      5  O3        40.3830   -3.8990   28.5400 O.3   403  3PG403     -0.2081
      6  C3        42.5130   -2.9940   29.5040 C.3   403  3PG403      0.1983
      7  O1P       41.8730   -2.6890   30.7530 O.3   403  3PG403     -0.2669
      8  P         42.6700   -2.3550   32.1460 P.3   403  3PG403      0.5327
      9  O2P       41.7560   -1.3260   32.7730 O.3   403  3PG403     -0.1145
     10  O3P       44.0710   -1.7810   31.9440 O.2   403  3PG403     -0.2224
     11  O4P       42.6870   -3.7080   32.8320 O.3   403  3PG403     -0.1145
@<TRIPOS>BOND
     1     2     1   ar
     2     1     3   ar
     3     1     4    1
     4     4     5    1
     5     4     6    1
     6     6     7    1
     7     7     8    1
     8    10     8    2
     9     8     9    1
    10     8    11    1
