@<TRIPOS>MOLECULE
4ded_NHU_A_1.pdb
 26 28 0 0 0
SMALL
GASTEIGER

@<TRIPOS>ATOM
      1  N01       -3.0620  -32.8350    6.8240 N.pl3 501  NHU501     -0.1357
      2  N02       -3.7940  -30.6670    6.5190 N.2   501  NHU501     -0.3189
      3  N03       -3.4210  -31.6380    8.6900 N.2   501  NHU501     -0.1683
      4  N04       -4.5370  -28.4380    6.4130 N.pl3 501  NHU501     -0.1826
      5  C05       -0.7470  -34.0730    4.2970 C.ar  501  NHU501      0.0060
      6  N05       -7.2560  -25.7670    5.7640 N.am  501  NHU501     -0.0837
      7  C06       -1.3420  -33.5730    3.0920 C.ar  501  NHU501      0.0567
      8  N06       -0.6230  -32.7370    0.8990 N.am  501  NHU501     -0.0837
      9  C07       -2.5330  -32.8090    3.1730 C.ar  501  NHU501      0.0060
     10  C08       -3.1240  -32.5500    4.4390 C.ar  501  NHU501      0.0175
     11  C09       -2.5310  -33.0470    5.6490 C.ar  501  NHU501      0.0826
     12  C10       -1.3400  -33.8110    5.5630 C.ar  501  NHU501      0.0175
     13  C11       -0.7710  -33.8240    1.8670 C.2   501  NHU501      0.2842
     14  C12       -3.4270  -31.6990    7.3370 C.1   501  NHU501      0.1709
     15  C13       -4.1810  -29.4860    7.1310 C.2   501  NHU501      0.2178
     16  C14       -4.2060  -29.3330    8.5200 C.2   501  NHU501      0.0720
     17  C15       -3.8120  -30.4540    9.2480 C.2   501  NHU501      0.1158
     18  C16       -4.9690  -28.4320    5.1660 C.ar  501  NHU501      0.0776
     19  C17       -4.1990  -29.0240    4.1030 C.ar  501  NHU501      0.0167
     20  C18       -4.6680  -29.0110    2.7620 C.ar  501  NHU501      0.0013
     21  C19       -5.9100  -28.4050    2.4500 C.ar  501  NHU501      0.0002
     22  C20       -6.6930  -27.8060    3.4780 C.ar  501  NHU501      0.0059
     23  C21       -6.2430  -27.8090    4.8380 C.ar  501  NHU501      0.0719
     24  C22       -7.0280  -27.2160    5.8010 C.2   501  NHU501      0.2854
     25  O23       -7.5470  -27.8770    6.6760 O.2   501  NHU501     -0.2666
     26  O25       -0.3850  -34.9370    1.5690 O.2   501  NHU501     -0.2667
@<TRIPOS>BOND
     1     8    13   am
     2    26    13    2
     3    13     7    1
     4    21    20   ar
     5    21    22   ar
     6    20    19   ar
     7     7     9   ar
     8     7     5   ar
     9     9    10   ar
    10    22    23   ar
    11    19    18   ar
    12     5    12   ar
    13    10    11   ar
    14    23    18   ar
    15    23    24    1
    16    18     4    1
    17    12    11   ar
    18    11     1    1
    19     6    24   am
    20    24    25    2
    21     4    15    1
    22     2    15    2
    23     2    14    2
    24     1    14    1
    25    15    16    1
    26    14     3    2
    27    16    17    2
    28     3    17    1
