@<TRIPOS>MOLECULE
4dee_ADP_A_1.pdb
 27 29 0 0 0
SMALL
GASTEIGER

@<TRIPOS>ATOM
      1  PB        11.5940   23.1840    5.6090 P.3   503  ADP503      0.5373
      2  O1B       12.3900   22.8070    6.8390 O.3   503  ADP503     -0.1143
      3  O2B       12.3700   24.1020    4.6790 O.2   503  ADP503     -0.2221
      4  O3B       11.1040   21.9970    4.8510 O.3   503  ADP503     -0.1143
      5  PA        10.1680   25.5250    6.6440 P.3   503  ADP503      0.2231
      6  O1A        9.8820   25.6150    8.1000 O.3   503  ADP503     -0.4370
      7  O2A       11.3300   26.3400    6.1380 O.2   503  ADP503     -0.5169
      8  O3A       10.3290   24.0010    6.1680 O.3   503  ADP503     -0.2261
      9  O5'        8.8340   26.0400    5.9300 O.3   503  ADP503     -0.3111
     10  C5'        8.7320   26.0550    4.5050 C.3   503  ADP503      0.1813
     11  C4'        7.8880   27.2410    4.0530 C.3   503  ADP503      0.1821
     12  O4'        6.6400   27.3210    4.7960 O.3   503  ADP503     -0.3135
     13  C3'        8.5600   28.5780    4.3110 C.3   503  ADP503      0.2184
     14  O3'        9.5450   28.8750    3.3460 O.3   503  ADP503     -0.2174
     15  C2'        7.3800   29.5200    4.3360 C.3   503  ADP503      0.2570
     16  O2'        6.9840   29.7980    2.9670 O.3   503  ADP503     -0.2130
     17  C1'        6.3140   28.7130    5.0240 C.3   503  ADP503      0.3186
     18  N9         6.2840   28.8400    6.5150 N.pl3 503  ADP503     -0.1439
     19  C8         6.9860   28.0970    7.4160 C.3   503  ADP503      0.3377
     20  N7         6.7430   28.4410    8.6830 N.2   503  ADP503     -0.2095
     21  C5         5.8580   29.4380    8.6240 C.2   503  ADP503      0.2526
     22  C6         5.1690   30.2690    9.6110 C.2   503  ADP503      0.4393
     23  N6         5.3990   30.0770   10.9330 N.pl3 503  ADP503      0.2180
     24  N1         4.3020   31.2280    9.1630 N.2   503  ADP503      0.0021
     25  C2         4.0840   31.4040    7.8200 C.3   503  ADP503      0.5254
     26  N3         4.6750   30.6820    6.8380 N.2   503  ADP503     -0.0055
     27  C4         5.5510   29.7120    7.2060 C.2   503  ADP503      0.3518
@<TRIPOS>BOND
     1    16    15    1
     2    14    13    1
     3    11    13    1
     4    11    10    1
     5    11    12    1
     6    13    15    1
     7    15    17    1
     8    10     9    1
     9     3     1    2
    10    12    17    1
    11     4     1    1
    12    17    18    1
    13     1     8    1
    14     1     2    1
    15     9     5    1
    16     7     5    2
    17     8     5    1
    18    18    27    1
    19    18    19    1
    20     5     6    1
    21    26    27    2
    22    26    25    1
    23    27    21    1
    24    19    20    1
    25    25    24    1
    26    21    20    2
    27    21    22    1
    28    24    22    2
    29    22    23    1
