@<TRIPOS>MOLECULE
4deg_0JJ_A_1.pdb
 29 33 0 0 0
SMALL
GASTEIGER

@<TRIPOS>ATOM
      1  C7        14.0840   11.3520   60.3370 C.3   1401  0JJ1401     0.0528
      2  C5        15.3310   11.3790   59.4520 C.ar  1401  0JJ1401     0.0678
      3  C6        16.0790   12.4930   59.3000 C.ar  1401  0JJ1401     0.0248
      4  N2        15.7410   10.2850   58.7950 N.ar  1401  0JJ1401    -0.2134
      5  S1        17.1070   10.7170   57.9590 S.2   1401  0JJ1401     0.0142
      6  C4        17.1360   12.3230   58.4940 C.ar  1401  0JJ1401     0.0679
      7  C3        18.1040   13.2370   58.0870 C.ar  1401  0JJ1401     0.1089
      8  C1        18.1340   14.5230   58.6330 C.ar  1401  0JJ1401     0.0246
      9  C2        19.1030   15.4120   58.1880 C.ar  1401  0JJ1401     0.0423
     10  N1        18.9980   12.8780   57.1400 N.ar  1401  0JJ1401    -0.1620
     11  N3        19.8710   13.6580   56.7320 N.ar  1401  0JJ1401    -0.1932
     12  C8        19.9880   14.9600   57.2140 C.ar  1401  0JJ1401     0.1864
     13  N4        21.0150   15.5230   56.5780 N.ar  1401  0JJ1401    -0.1272
     14  N5        21.5370   14.7360   55.7710 N.ar  1401  0JJ1401    -0.1295
     15  C9        20.8970   13.5640   55.7960 C.ar  1401  0JJ1401     0.1882
     16  C10       21.1820   12.2970   54.9790 C.3   1401  0JJ1401     0.1926
     17  N6        21.1230   11.0950   55.8350 N.2   1401  0JJ1401    -0.2605
     18  C11       22.1260   10.7110   56.6400 C.2   1401  0JJ1401     0.0968
     19  C12       23.3650   11.3590   56.6590 C.2   1401  0JJ1401     0.0409
     20  C13       24.3600   10.9030   57.5270 C.2   1401  0JJ1401     0.1001
     21  N7        24.1480    9.8630   58.3260 N.2   1401  0JJ1401    -0.2461
     22  C15       22.9710    9.2100   58.3310 C.2   1401  0JJ1401     0.0856
     23  C16       22.7660    8.1230   59.1830 C.3   1401  0JJ1401     0.1128
     24  C14       21.9360    9.6240   57.4880 C.2   1401  0JJ1401     0.1125
     25  N8        20.7580    8.9810   57.4960 N.2   1401  0JJ1401    -0.2383
     26  C18       20.5420    7.9440   58.2950 C.2   1401  0JJ1401     0.1315
     27  C17       21.5290    7.4750   59.1650 C.2   1401  0JJ1401     0.1412
     28  O1        21.2300    6.3920   59.9540 O.2   1401  0JJ1401    -0.4737
     29  C19       22.0430    6.1810   61.1190 C.3   1401  0JJ1401     0.2521
@<TRIPOS>BOND
     1    16    15    1
     2    16    17    1
     3    14    15   ar
     4    14    13   ar
     5    15    11   ar
     6    17    18    2
     7    13    12   ar
     8    18    19    1
     9    18    24    1
    10    19    20    2
    11    11    10   ar
    12    11    12   ar
    13    10     7   ar
    14    12     9   ar
    15    24    25    2
    16    24    22    1
    17    25    26    1
    18    20    21    1
    19     5     6   ar
    20     5     4   ar
    21     7     6    1
    22     7     8   ar
    23     9     8   ar
    24    26    27    2
    25    21    22    2
    26    22    23    1
    27     6     3   ar
    28     4     2   ar
    29    27    23    1
    30    27    28    1
    31     3     2   ar
    32     2     1    1
    33    28    29    1
