@<TRIPOS>MOLECULE
4deh_0JK_A_1.pdb
 27 31 0 0 0
SMALL
GASTEIGER

@<TRIPOS>ATOM
      1  C18       21.0440    9.7350   56.7690 C.ar  1401  0JK1401    -0.0014
      2  C17       21.7510    8.8790   57.6030 C.ar  1401  0JK1401     0.0174
      3  C21       21.2070    7.6500   57.9670 C.ar  1401  0JK1401     0.0031
      4  C20       21.9340    6.8190   58.8130 C.ar  1401  0JK1401     0.0207
      5  C19       23.1820    7.2300   59.2630 C.ar  1401  0JK1401     0.0988
      6  N5        23.6800    8.4120   58.8940 N.ar  1401  0JK1401    -0.2438
      7  C16       23.0120    9.2400   58.0830 C.ar  1401  0JK1401     0.0813
      8  C15       23.5730   10.4670   57.7300 C.ar  1401  0JK1401     0.0188
      9  C14       22.8650   11.3230   56.8830 C.ar  1401  0JK1401    -0.0013
     10  C13       21.6000   10.9620   56.4080 C.ar  1401  0JK1401    -0.0043
     11  C12       20.8220   11.8950   55.4710 C.3   1401  0JK1401     0.1226
     12  N4        20.4710   13.1480   56.1550 N.3   1401  0JK1401    -0.1518
     13  C10       19.5040   13.2720   57.0580 C.3   1401  0JK1401     0.1930
     14  C11       18.5540   12.4340   57.6540 C.2   1401  0JK1401     0.2511
     15  O1        18.3090   11.3240   57.1760 O.2   1401  0JK1401    -0.2726
     16  N3        21.0320   14.2370   55.9620 N.pl3 1401  0JK1401    -0.0624
     17  N2        20.5330   15.1320   56.6620 N.2   1401  0JK1401    -0.1535
     18  C9        19.5520   14.6100   57.3960 C.2   1401  0JK1401     0.0838
     19  C8        18.6580   15.0920   58.3480 C.3   1401  0JK1401     0.0668
     20  C7        18.1640   14.2600   59.3540 C.3   1401  0JK1401     0.1043
     21  N1        17.8420   12.9030   58.7960 N.am  1401  0JK1401    -0.2568
     22  C4        16.8420   12.0920   59.4020 C.ar  1401  0JK1401     0.0539
     23  C3        17.1040   10.7640   59.7290 C.ar  1401  0JK1401     0.0149
     24  C2        16.1150    9.9720   60.3110 C.ar  1401  0JK1401     0.0013
     25  C1        14.8510   10.5010   60.5860 C.ar  1401  0JK1401     0.0001
     26  C6        14.5820   11.8310   60.2620 C.ar  1401  0JK1401     0.0013
     27  C5        15.5760   12.6190   59.6760 C.ar  1401  0JK1401     0.0149
@<TRIPOS>BOND
     1    11    12    1
     2    11    10    1
     3    16    12    1
     4    16    17    1
     5    12    13    1
     6    10     1   ar
     7    10     9   ar
     8    17    18    2
     9     1     2   ar
    10     9     8   ar
    11    13    18    1
    12    13    14    1
    13    15    14    2
    14    18    19    1
    15     2     3   ar
    16     2     7   ar
    17    14    21   am
    18     8     7   ar
    19     3     4   ar
    20     7     6   ar
    21    19    20    1
    22    21    20    1
    23    21    22    1
    24     4     5   ar
    25     6     5   ar
    26    22    27   ar
    27    22    23   ar
    28    27    26   ar
    29    23    24   ar
    30    26    25   ar
    31    24    25   ar
