@<TRIPOS>MOLECULE
4del_PGH_A_1.pdb
 10 9 0 0 0
SMALL
GASTEIGER

@<TRIPOS>ATOM
      1  C1         8.7110   41.3500   22.3350 C.2   404  PGH404      0.1177
      2  C2         7.7240   41.5430   21.2300 C.3   404  PGH404      0.2044
      3  N2         9.0290   42.3600   23.1140 N.am  404  PGH404     -0.2004
      4  O2         9.9230   42.1490   24.1330 O.3   404  PGH404     -0.4026
      5  O1         9.2650   40.1010   22.5080 O.2   404  PGH404     -0.5374
      6  O1P        8.2230   40.9490   20.0440 O.3   404  PGH404     -0.2633
      7  O2P        7.9490   40.3910   17.5730 O.2   404  PGH404     -0.2224
      8  O3P        5.9910   41.0720   18.9180 O.3   404  PGH404     -0.1145
      9  O4P        7.7510   42.7720   18.3540 O.3   404  PGH404     -0.1145
     10  P          7.4600   41.3110   18.6620 P.3   404  PGH404      0.5330
@<TRIPOS>BOND
     1     7    10    2
     2     9    10    1
     3    10     8    1
     4    10     6    1
     5     6     2    1
     6     2     1    1
     7     1     5    2
     8     1     3   am
     9     3     4    1
