@<TRIPOS>MOLECULE
4den_2M4_A_1.pdb
 23 24 0 0 0
SMALL
GASTEIGER

@<TRIPOS>ATOM
      1  C1        21.0450    6.6890    2.7210 C.3   201  2M4201      0.2142
      2  O1        22.0460    7.1200    3.6840 O.3   201  2M4201     -0.2176
      3  C2        20.4520    7.8840    1.9460 C.3   201  2M4201      0.1836
      4  O2        21.3920    8.1210    0.8860 O.3   201  2M4201     -0.3237
      5  C3        21.1180    9.3090    0.0820 C.3   201  2M4201      0.2991
      6  O3        20.9760   10.5300    0.8600 O.3   201  2M4201     -0.1871
      7  C4        19.8390    8.9800   -0.6790 C.3   201  2M4201      0.2095
      8  O4        19.9840    7.7400   -1.3950 O.3   201  2M4201     -0.3230
      9  C5        20.9330    7.8450   -2.4830 C.3   201  2M4201      0.2696
     10  O5        22.2470    7.4570   -2.0340 O.3   201  2M4201     -0.3256
     11  C6        22.4920    6.2130   -1.3850 C.3   201  2M4201      0.1835
     12  O6        24.9120    6.2480   -1.9920 O.3   201  2M4201     -0.2176
     13  C7        23.9580    6.0730   -0.9270 C.3   201  2M4201      0.2142
     14  O7        22.3850    3.8900   -1.9230 O.3   201  2M4201     -0.2176
     15  C8        22.2730    5.2060   -2.4750 C.3   201  2M4201      0.2144
     16  O8        20.6990    4.5780   -4.1880 O.3   201  2M4201     -0.2174
     17  C9        20.8960    5.4640   -3.1130 C.3   201  2M4201      0.2198
     18  O9        21.4220    7.2240   -4.7110 O.3   201  2M4201     -0.2149
     19  C10       20.5540    6.9080   -3.6170 C.3   201  2M4201      0.2406
     20  O10       17.5520    8.4670   -0.4380 O.3   201  2M4201     -0.2175
     21  C11       18.7050    8.7930    0.3320 C.3   201  2M4201      0.2167
     22  O11       18.1060    7.5440    2.4250 O.3   201  2M4201     -0.2176
     23  C12       19.0570    7.6720    1.3440 C.3   201  2M4201      0.2143
@<TRIPOS>BOND
     1    18    19    1
     2    16    17    1
     3    19    17    1
     4    19     9    1
     5    17    15    1
     6     9    10    1
     7     9     8    1
     8    15    14    1
     9    15    11    1
    10    10    11    1
    11    12    13    1
    12     8     7    1
    13    11    13    1
    14     7     5    1
    15     7    21    1
    16    20    21    1
    17     5     6    1
    18     5     4    1
    19    21    23    1
    20     4     3    1
    21    23     3    1
    22    23    22    1
    23     3     1    1
    24     1     2    1
