@<TRIPOS>MOLECULE
4der_AGI_A_1.pdb
 20 22 0 0 0
SMALL
GASTEIGER

@<TRIPOS>ATOM
      1  CAG       21.3330   43.7480   40.2840 C.ar  201  AGI201      0.0063
      2  CAE       21.3530   43.7550   41.6360 C.ar  201  AGI201      0.0421
      3  CAM       21.5660   42.5640   42.2960 C.ar  201  AGI201      0.1957
      4  OAB       21.5830   42.5640   43.6220 O.3   201  AGI201     -0.2866
      5  CAF       21.7630   41.3710   41.6380 C.ar  201  AGI201      0.0421
      6  CAH       21.7480   41.3740   40.2870 C.ar  201  AGI201      0.0063
      7  CAP       21.5350   42.5590   39.6120 C.ar  201  AGI201      0.0349
      8  CAQ       21.5140   42.5330   38.2550 C.ar  201  AGI201      0.1484
      9  OAL       22.5040   43.1280   37.5660 O.2   201  AGI201     -0.4531
     10  CAJ       20.4750   41.8780   37.6310 C.ar  201  AGI201      0.0797
     11  CAR       20.4370   41.7810   36.2740 C.ar  201  AGI201      0.2048
     12  OAA       19.5170   41.1780   35.7260 O.2   201  AGI201     -0.2862
     13  CAT       21.4160   42.4240   35.5700 C.ar  201  AGI201      0.1126
     14  CAS       22.4160   43.0940   36.2330 C.ar  201  AGI201      0.1546
     15  CAK       23.3890   43.7610   35.5380 C.ar  201  AGI201      0.0798
     16  CAN       23.3350   43.7410   34.1650 C.ar  201  AGI201      0.2020
     17  OAC       24.2980   44.3760   33.5140 O.3   201  AGI201     -0.2864
     18  CAI       22.3280   43.0680   33.4920 C.ar  201  AGI201      0.0843
     19  CAO       21.3640   42.4100   34.2050 C.ar  201  AGI201      0.2049
     20  OAD       20.3590   41.7390   33.6180 O.3   201  AGI201     -0.2862
@<TRIPOS>BOND
     1    18    16   ar
     2    18    19   ar
     3    17    16    1
     4    20    19    1
     5    16    15   ar
     6    19    13   ar
     7    15    14   ar
     8    13    14   ar
     9    13    11   ar
    10    12    11    2
    11    14     9   ar
    12    11    10   ar
    13     9     8   ar
    14    10     8   ar
    15     8     7    1
    16     7     1   ar
    17     7     6   ar
    18     1     2   ar
    19     6     5   ar
    20     2     3   ar
    21     5     3   ar
    22     3     4    1
