@<TRIPOS>MOLECULE
4des_57D_A_1.pdb
 19 21 0 0 0
SMALL
GASTEIGER

@<TRIPOS>ATOM
      1  C2        21.8840    0.1560   -7.2380 C.ar  201  57D201      0.1484
      2  C3        22.9660   -0.7120   -7.1510 C.ar  201  57D201      0.0797
      3  C4        23.3460   -1.2150   -5.9190 C.ar  201  57D201      0.2048
      4  C5        22.6290   -0.8350   -4.7970 C.ar  201  57D201      0.1126
      5  C6        22.9890   -1.3260   -3.5470 C.ar  201  57D201      0.2049
      6  C7        22.2730   -0.9470   -2.4180 C.ar  201  57D201      0.0843
      7  C8        21.1960   -0.0780   -2.5430 C.ar  201  57D201      0.2020
      8  C9        20.8390    0.4110   -3.7940 C.ar  201  57D201      0.0798
      9  C10       21.5520    0.0360   -4.9270 C.ar  201  57D201      0.1546
     10  O1        21.1680    0.5390   -6.1380 O.2   201  57D201     -0.4531
     11  O4        24.3010   -1.9840   -5.8230 O.2   201  57D201     -0.2862
     12  O5        24.0440   -2.1760   -3.4290 O.3   201  57D201     -0.2862
     13  O7        20.4920    0.2950   -1.4400 O.3   201  57D201     -0.2864
     14  C2'       21.2970    2.0130   -8.6530 C.ar  201  57D201      0.0030
     15  C3'       20.9300    2.5080   -9.8990 C.ar  201  57D201      0.0001
     16  C4'       20.7820    1.6410  -10.9760 C.ar  201  57D201      0.0000
     17  C5'       21.0020    0.2790  -10.8060 C.ar  201  57D201      0.0001
     18  C6'       21.3690   -0.2160   -9.5600 C.ar  201  57D201      0.0030
     19  C1'       21.5170    0.6510   -8.4840 C.ar  201  57D201      0.0347
@<TRIPOS>BOND
     1    16    17   ar
     2    16    15   ar
     3    17    18   ar
     4    15    14   ar
     5    18    19   ar
     6    14    19   ar
     7    19     1    1
     8     1     2   ar
     9     1    10   ar
    10     2     3   ar
    11    10     9   ar
    12     3    11    2
    13     3     4   ar
    14     9     4   ar
    15     9     8   ar
    16     4     5   ar
    17     8     7   ar
    18     5    12    1
    19     5     6   ar
    20     7     6   ar
    21     7    13    1
