@<TRIPOS>MOLECULE
4det_KMP_A_1.pdb
 21 23 0 0 0
SMALL
GASTEIGER

@<TRIPOS>ATOM
      1  C1        20.2590    0.8850   -0.9340 C.ar  201  KMP201      0.0843
      2  C2        21.3550    0.1910   -1.3570 C.ar  201  KMP201      0.2050
      3  C3        21.5750    0.0290   -2.6890 C.ar  201  KMP201      0.1158
      4  C4        20.7170    0.5640   -3.5840 C.ar  201  KMP201      0.1549
      5  C5        19.6110    1.2410   -3.2020 C.ar  201  KMP201      0.0798
      6  C6        19.3820    1.4000   -1.8780 C.ar  201  KMP201      0.2020
      7  C9        22.6680   -0.6480   -3.0960 C.ar  201  KMP201      0.2433
      8  C10       22.8520   -0.6970   -4.4320 C.ar  201  KMP201      0.2685
      9  C11       21.9180   -0.1370   -5.2940 C.ar  201  KMP201      0.1871
     10  C14       21.8840   -0.1200   -6.6620 C.ar  201  KMP201      0.0381
     11  C15       21.4210   -1.2060   -7.3660 C.ar  201  KMP201      0.0064
     12  C16       21.3530   -1.1570   -8.7130 C.ar  201  KMP201      0.0421
     13  C17       21.6760   -0.0110   -9.3520 C.ar  201  KMP201      0.1957
     14  C18       22.0720    1.0900   -8.6780 C.ar  201  KMP201      0.0421
     15  C19       22.1690    1.0410   -7.3310 C.ar  201  KMP201      0.0064
     16  O12       20.8420    0.4480   -4.8660 O.2   201  KMP201     -0.4498
     17  O13       23.4960   -1.1170   -2.3150 O.2   201  KMP201     -0.2828
     18  O24       21.6010    0.0300  -10.6570 O.3   201  KMP201     -0.2866
     19  O27       23.9360   -1.3480   -4.8070 O.3   201  KMP201     -0.2798
     20  O29       18.2890    2.0740   -1.5510 O.3   201  KMP201     -0.2864
     21  O30       22.2280   -0.3430   -0.5530 O.3   201  KMP201     -0.2862
@<TRIPOS>BOND
     1    18    13    1
     2    13    12   ar
     3    13    14   ar
     4    12    11   ar
     5    14    15   ar
     6    11    10   ar
     7    15    10   ar
     8    10     9    1
     9     9    16   ar
    10     9     8   ar
    11    16     4   ar
    12    19     8    1
    13     8     7   ar
    14     4     5   ar
    15     4     3   ar
    16     5     6   ar
    17     7     3   ar
    18     7    17    2
    19     3     2   ar
    20     6    20    1
    21     6     1   ar
    22     2     1   ar
    23     2    21    1
