@<TRIPOS>MOLECULE
4deu_NAR_A_1.pdb
 20 22 0 0 0
SMALL
GASTEIGER

@<TRIPOS>ATOM
      1  C1        20.8430   41.9850   37.6050 C.ar  205  NAR205      0.0792
      2  C2        20.9420   42.0050   36.2720 C.ar  205  NAR205      0.2020
      3  C3        21.9860   42.6280   35.6500 C.ar  205  NAR205      0.0843
      4  C4        22.9510   43.2380   36.4080 C.ar  205  NAR205      0.2046
      5  C5        22.8850   43.2270   37.7440 C.ar  205  NAR205      0.1078
      6  C6        21.8250   42.5930   38.3440 C.ar  205  NAR205      0.1479
      7  C7        23.8440   43.7720   38.6060 C.2   205  NAR205      0.1831
      8  C8        23.7880   43.3480   40.0740 C.3   205  NAR205      0.1174
      9  C9        22.7970   42.1410   40.1750 C.3   205  NAR205      0.1958
     10  O1        21.7150   42.6000   39.6610 O.3   205  NAR205     -0.4740
     11  O2        24.7880   44.4600   38.2560 O.2   205  NAR205     -0.2910
     12  C10       22.2000   41.6800   41.5160 C.ar  205  NAR205      0.0178
     13  C11       21.7220   42.6140   42.3560 C.ar  205  NAR205      0.0025
     14  C12       21.1600   42.1210   43.5310 C.ar  205  NAR205      0.0418
     15  C13       21.0040   40.7720   43.8510 C.ar  205  NAR205      0.1957
     16  C14       21.4520   39.7780   43.0220 C.ar  205  NAR205      0.0418
     17  C15       22.0310   40.1730   41.7990 C.ar  205  NAR205      0.0025
     18  O3        20.4310   40.4820   45.0250 O.3   205  NAR205     -0.2866
     19  O4        19.9810   41.3970   35.5760 O.3   205  NAR205     -0.2864
     20  O5        23.9760   43.8550   35.8400 O.3   205  NAR205     -0.2863
@<TRIPOS>BOND
     1    19     2    1
     2     3     2   ar
     3     3     4   ar
     4    20     4    1
     5     2     1   ar
     6     4     5   ar
     7     1     6   ar
     8     5     6   ar
     9     5     7    1
    10    11     7    2
    11     6    10    1
    12     7     8    1
    13    10     9    1
    14     8     9    1
    15     9    12    1
    16    12    17   ar
    17    12    13   ar
    18    17    16   ar
    19    13    14   ar
    20    16    15   ar
    21    14    15   ar
    22    15    18    1
