@<TRIPOS>MOLECULE
4dew_LU2_A_1.pdb
 21 23 0 0 0
SMALL
GASTEIGER

@<TRIPOS>ATOM
      1  C1        19.4680   41.1430   36.1040 C.ar  201  LU2201      0.0798
      2  O1        18.2640   40.6470   34.1800 O.3   201  LU2201     -0.2864
      3  C2        19.3420   41.1790   34.7370 C.ar  201  LU2201      0.2020
      4  O2        22.3410   42.9580   33.7820 O.3   201  LU2201     -0.2862
      5  C3        20.3170   41.8010   33.9520 C.ar  201  LU2201      0.0843
      6  O3        23.4840   43.5640   35.9950 O.2   201  LU2201     -0.2862
      7  C4        21.4190   42.3770   34.5570 C.ar  201  LU2201      0.2049
      8  O4        20.6270   41.6620   38.0210 O.2   201  LU2201     -0.4531
      9  C5        21.5510   42.3450   35.9480 C.ar  201  LU2201      0.1126
     10  O5        21.3150   39.7780   42.9400 O.3   201  LU2201     -0.2831
     11  C6        20.5700   41.7380   36.6910 C.ar  201  LU2201      0.1546
     12  O6        21.5160   42.2990   43.9810 O.3   201  LU2201     -0.2831
     13  C7        22.6170   42.9270   36.5930 C.ar  201  LU2201      0.2048
     14  C8        22.6260   42.9240   37.9670 C.ar  201  LU2201      0.0797
     15  C9        21.6460   42.2440   38.6520 C.ar  201  LU2201      0.1485
     16  C10       21.6220   42.1920   40.0070 C.ar  201  LU2201      0.0381
     17  C11       21.5070   40.9710   40.7210 C.ar  201  LU2201      0.0484
     18  C12       21.4600   40.9430   42.1060 C.ar  201  LU2201      0.2344
     19  C13       21.5460   42.2130   42.6660 C.ar  201  LU2201      0.2343
     20  C14       21.6580   43.4160   41.9890 C.ar  201  LU2201      0.0455
     21  C15       21.6940   43.4170   40.6370 C.ar  201  LU2201      0.0065
@<TRIPOS>BOND
     1     4     7    1
     2     5     7   ar
     3     5     3   ar
     4     2     3    1
     5     7     9   ar
     6     3     1   ar
     7     9    13   ar
     8     9    11   ar
     9     6    13    2
    10     1    11   ar
    11    13    14   ar
    12    11     8   ar
    13    14    15   ar
    14     8    15   ar
    15    15    16    1
    16    16    21   ar
    17    16    17   ar
    18    21    20   ar
    19    17    18   ar
    20    20    19   ar
    21    18    19   ar
    22    18    10    1
    23    19    12    1
