@<TRIPOS>MOLECULE
4df1_BMP_A_1.pdb
 22 23 0 0 0
SMALL
GASTEIGER

@<TRIPOS>ATOM
      1  P         14.0320   -1.2690   38.9750 P.3   301  BMP301      0.5327
      2  OP1       15.0520   -0.2010   39.1920 O.2   301  BMP301     -0.2224
      3  OP2       14.5850   -2.7170   39.3920 O.3   301  BMP301     -0.1145
      4  OP3       12.6550   -0.9220   39.7090 O.3   301  BMP301     -0.1145
      5  O5'       13.7610   -1.4150   37.4180 O.3   301  BMP301     -0.2675
      6  C5'       13.3830   -0.2960   36.6400 C.3   301  BMP301      0.1859
      7  C4'       12.8330   -0.7270   35.3140 C.3   301  BMP301      0.1801
      8  O4'       12.4120    0.4370   34.5740 O.3   301  BMP301     -0.3319
      9  C3'       13.8130   -1.4860   34.4280 C.3   301  BMP301      0.2158
     10  O3'       13.1030   -2.4790   33.6880 O.3   301  BMP301     -0.2175
     11  C2'       14.3360   -0.4130   33.4800 C.3   301  BMP301      0.2320
     12  O2'       14.7400   -0.9100   32.2200 O.3   301  BMP301     -0.2157
     13  C1'       13.1310    0.5390   33.3640 C.3   301  BMP301      0.2425
     14  N1        13.4920    1.9530   33.1760 N.am  301  BMP301     -0.1473
     15  C2        14.2800    2.6290   34.0440 C.1   301  BMP301      0.2863
     16  O2        14.7370    2.0960   35.0440 O.2   301  BMP301     -0.1918
     17  N3        14.5870    3.9240   33.8160 N.2   301  BMP301     -0.2489
     18  C4        14.1200    4.5840   32.7390 C.1   301  BMP301      0.2018
     19  O4        14.4240    5.7550   32.5700 O.2   301  BMP301     -0.2129
     20  C5        13.3030    3.9070   31.8060 C.3   301  BMP301      0.2213
     21  C6        13.0000    2.5910   32.0630 C.2   301  BMP301      0.2591
     22  O1        12.2230    1.8800   31.2300 O.2   301  BMP301     -0.2725
@<TRIPOS>BOND
     1    22    21    2
     2    20    21    1
     3    20    18    1
     4    21    14   am
     5    12    11    1
     6    19    18    2
     7    18    17    2
     8    14    13    1
     9    14    15   am
    10    13    11    1
    11    13     8    1
    12    11     9    1
    13    10     9    1
    14    17    15    2
    15    15    16    2
    16     9     7    1
    17     8     7    1
    18     7     6    1
    19     6     5    1
    20     5     1    1
    21     1     2    2
    22     1     3    1
    23     1     4    1
