@<TRIPOS>MOLECULE
4df2_FMN_A_1.pdb
 31 33 0 0 0
SMALL
GASTEIGER

@<TRIPOS>ATOM
      1  N1       -33.3680   24.6290  132.0430 N.2   501  FMN501     -0.2887
      2  C2       -34.7020   24.5410  131.8590 C.1   501  FMN501      0.3669
      3  O2       -35.4290   24.1530  132.7700 O.2   501  FMN501     -0.1744
      4  N3       -35.2530   24.8950  130.6730 N.2   501  FMN501     -0.2300
      5  C4       -34.4900   25.3340  129.6440 C.1   501  FMN501      0.2513
      6  O4       -35.0350   25.6520  128.5540 O.2   501  FMN501     -0.2057
      7  C4A      -33.0870   25.4450  129.8020 C.2   501  FMN501      0.2703
      8  N5       -32.2790   25.8900  128.8040 N.2   501  FMN501     -0.3882
      9  C5A      -30.9420   25.9460  128.9880 C.2   501  FMN501      0.1277
     10  C6       -30.1070   26.3830  127.9680 C.3   501  FMN501      0.0820
     11  C7       -28.7340   26.4390  128.1710 C.2   501  FMN501     -0.0408
     12  C7M      -27.8060   26.9090  127.0400 C.3   501  FMN501      0.0265
     13  C8       -28.1940   26.0560  129.4000 C.2   501  FMN501     -0.0280
     14  C8M      -26.6870   26.1110  129.6620 C.3   501  FMN501      0.0304
     15  C9       -29.0300   25.6230  130.4100 C.2   501  FMN501      0.0123
     16  C9A      -30.4030   25.5530  130.2210 C.2   501  FMN501      0.0793
     17  N10      -31.2120   25.1200  131.2450 N.pl3 501  FMN501     -0.2545
     18  C10      -32.5490   25.0610  131.0390 C.2   501  FMN501      0.2449
     19  C1'      -30.6640   24.6790  132.5120 C.3   501  FMN501      0.1336
     20  C2'      -30.2330   23.2080  132.3000 C.3   501  FMN501      0.2048
     21  O2'      -31.3300   22.3520  132.0350 O.3   501  FMN501     -0.2185
     22  C3'      -29.4220   22.5680  133.4010 C.3   501  FMN501      0.2165
     23  O3'      -30.1950   22.4300  134.5360 O.3   501  FMN501     -0.2175
     24  C4'      -28.0730   23.3170  133.7440 C.3   501  FMN501      0.2147
     25  O4'      -27.3940   23.6870  132.6030 O.3   501  FMN501     -0.2176
     26  C5'      -27.2310   22.4450  134.6660 C.3   501  FMN501      0.1892
     27  O5'      -26.8960   21.2490  134.0830 O.3   501  FMN501     -0.2674
     28  P        -25.4930   21.0930  133.4180 P.3   501  FMN501      0.5327
     29  O1P      -24.4030   21.4420  134.4330 O.3   501  FMN501     -0.1145
     30  O2P      -25.4050   22.0390  132.2020 O.2   501  FMN501     -0.2224
     31  O3P      -25.3170   19.6220  132.9550 O.3   501  FMN501     -0.1145
@<TRIPOS>BOND
     1    12    11    1
     2    10    11    1
     3    10     9    1
     4    11    13    2
     5     6     5    2
     6     8     9    2
     7     8     7    2
     8     9    16    1
     9    13    14    1
    10    13    15    1
    11     5     7    1
    12     5     4    2
    13     7    18    1
    14    16    15    2
    15    16    17    1
    16     4     2    2
    17    18    17    1
    18    18     1    2
    19    17    19    1
    20     2     1    2
    21     2     3    2
    22    21    20    1
    23    30    28    2
    24    20    19    1
    25    20    22    1
    26    25    24    1
    27    31    28    1
    28    22    24    1
    29    22    23    1
    30    28    27    1
    31    28    29    1
    32    24    26    1
    33    27    26    1
