@<TRIPOS>MOLECULE
4df3_SAM_A_1.pdb
 27 29 0 0 0
SMALL
GASTEIGER

@<TRIPOS>ATOM
      1  N         23.3810   51.3480   19.7030 N.3   301  SAM301     -0.1208
      2  CA        22.4530   50.8540   20.7610 C.3   301  SAM301      0.1952
      3  C         22.2660   49.3530   20.5240 C.2   301  SAM301      0.3819
      4  O         22.3060   48.8770   19.3700 O.co2 301  SAM301     -0.2441
      5  OXT       22.0790   48.6100   21.4820 O.co2 301  SAM301     -0.2441
      6  CB        21.0520   51.5560   20.7140 C.3   301  SAM301      0.0414
      7  CG        21.3380   53.0480   20.7150 C.3   301  SAM301      0.0503
      8  SD        19.9640   54.1250   21.2110 S.3   301  SAM301     -0.1761
      9  CE        19.1640   53.9860   19.5920 C.3   301  SAM301      0.0590
     10  C5'       20.7220   55.7810   21.0250 C.3   301  SAM301      0.0806
     11  C4'       21.5210   56.2320   22.2510 C.3   301  SAM301      0.1622
     12  O4'       22.3830   57.3340   21.9730 O.3   301  SAM301     -0.3153
     13  C3'       20.7190   56.6840   23.4630 C.3   301  SAM301      0.2168
     14  O3'       21.1440   55.8310   24.5310 O.3   301  SAM301     -0.2175
     15  C2'       20.9910   58.1860   23.6430 C.3   301  SAM301      0.2569
     16  O2'       21.0470   58.5650   25.0000 O.3   301  SAM301     -0.2130
     17  C1'       22.3620   58.3430   22.9990 C.3   301  SAM301      0.3185
     18  N9        22.5910   59.6350   22.3230 N.pl3 301  SAM301     -0.1439
     19  C8        21.7200   60.4450   21.5850 C.3   301  SAM301      0.3377
     20  N7        22.4250   61.5630   21.1570 N.2   301  SAM301     -0.2095
     21  C5        23.6850   61.4780   21.6070 C.2   301  SAM301      0.2526
     22  C6        24.7870   62.3020   21.4450 C.2   301  SAM301      0.4393
     23  N6        24.7740   63.5040   20.7490 N.pl3 301  SAM301      0.2180
     24  N1        25.9210   61.7900   22.0600 N.2   301  SAM301      0.0021
     25  C2        26.0840   60.6270   22.7910 C.3   301  SAM301      0.5254
     26  N3        24.9670   59.8220   22.9290 N.2   301  SAM301     -0.0055
     27  C4        23.8160   60.2780   22.3660 C.2   301  SAM301      0.3518
@<TRIPOS>BOND
     1     4     3   ar
     2     9     8    1
     3     1     2    1
     4     3     2    1
     5     3     5   ar
     6     6     7    1
     7     6     2    1
     8     7     8    1
     9    23    22    1
    10    10     8    1
    11    10    11    1
    12    20    19    1
    13    20    21    2
    14    22    21    1
    15    22    24    2
    16    19    18    1
    17    21    27    1
    18    12    11    1
    19    12    17    1
    20    24    25    1
    21    11    13    1
    22    18    27    1
    23    18    17    1
    24    27    26    2
    25    25    26    1
    26    17    15    1
    27    13    15    1
    28    13    14    1
    29    15    16    1
