@<TRIPOS>MOLECULE
4df4_0L3_A_1.pdb
 48 50 0 0 0
SMALL
GASTEIGER

@<TRIPOS>ATOM
      1  O1G       15.2920  -13.8330  -14.6690 O.2   903  0L3903     -0.2221
      2  PG        16.4620  -14.1850  -13.7810 P.3   903  0L3903      0.5373
      3  O3G       17.5210  -15.0560  -14.4130 O.3   903  0L3903     -0.1143
      4  O2G       17.0200  -13.0050  -13.0220 O.3   903  0L3903     -0.1143
      5  O3B       15.8070  -15.1170  -12.6410 O.3   903  0L3903     -0.2258
      6  PB        16.4750  -16.5210  -12.2160 P.3   903  0L3903      0.2277
      7  O1B       15.4490  -17.2740  -11.4060 O.3   903  0L3903     -0.4368
      8  O2B       17.0980  -17.1990  -13.4190 O.2   903  0L3903     -0.5168
      9  O3A       17.6260  -16.0310  -11.2000 O.3   903  0L3903     -0.2700
     10  PA        19.1480  -16.5030  -11.4170 P.3   903  0L3903      0.2189
     11  O2A       19.3880  -16.6990  -12.8970 O.2   903  0L3903     -0.5170
     12  O1A       20.0350  -15.5680  -10.6320 O.3   903  0L3903     -0.4371
     13  O5'       19.1210  -17.9190  -10.6580 O.3   903  0L3903     -0.3112
     14  C5'       19.2670  -19.1440  -11.3690 C.3   903  0L3903      0.1813
     15  C4'       18.6020  -20.2320  -10.5430 C.3   903  0L3903      0.1795
     16  C3'       17.2220  -19.7960  -10.0850 C.3   903  0L3903      0.1883
     17  O3'       16.2020  -20.1510  -11.0220 O.3   903  0L3903     -0.2202
     18  C2'       17.0340  -20.5200   -8.7680 C.3   903  0L3903      0.1155
     19  O4'       19.3410  -20.4750   -9.3440 O.3   903  0L3903     -0.3153
     20  C1'       18.4500  -20.7410   -8.2590 C.3   903  0L3903      0.2900
     21  N9        18.6820  -19.7570   -7.1750 N.pl3 903  0L3903     -0.1484
     22  C4        18.3770  -19.9810   -5.8750 C.2   903  0L3903      0.3221
     23  N3        17.8550  -21.0290   -5.1920 N.2   903  0L3903     -0.0106
     24  C2        17.6630  -20.9730   -3.8600 C.3   903  0L3903      0.5248
     25  N1        17.9620  -19.9020   -3.1010 N.2   903  0L3903     -0.0027
     26  C6        18.4900  -18.7770   -3.6340 C.2   903  0L3903      0.4071
     27  N6        18.7920  -17.6970   -2.8700 N.pl3 903  0L3903      0.2117
     28  C5        18.7230  -18.7790   -5.0970 C.3   903  0L3903      0.2522
     29  C8        19.1940  -18.5160   -7.3740 C.2   903  0L3903      0.1824
     30  C7        19.2340  -17.8920   -6.1480 C.2   903  0L3903      0.0831
     31  C31       19.6920  -16.6560   -5.9320 C.1   903  0L3903     -0.0640
     32  C32       20.0840  -15.5560   -5.7380 C.1   903  0L3903     -0.0866
     33  C33       20.5960  -14.2040   -5.4600 C.3   903  0L3903      0.0782
     34  C34       21.4030  -13.6530   -6.6240 C.3   903  0L3903      0.0374
     35  C35       20.7720  -13.9690   -7.9740 C.3   903  0L3903      0.1162
     36  N36       21.3480  -13.1930   -9.0620 N.am  903  0L3903     -0.2054
     37  C37       21.0530  -11.9040   -9.2250 C.2   903  0L3903      0.2414
     38  O38       20.1060  -11.3710   -8.6740 O.2   903  0L3903     -0.2733
     39  C39       21.9430  -11.0980  -10.1420 C.3   903  0L3903      0.0868
     40  C40       21.4670  -11.2150  -11.5860 C.3   903  0L3903      0.0096
     41  C41       22.0840  -10.1150  -12.4420 C.3   903  0L3903      0.0005
     42  C42       22.2170  -10.5620  -13.8930 C.3   903  0L3903      0.0000
     43  C43       20.8620  -10.6500  -14.5820 C.3   903  0L3903      0.0000
     44  C44       20.9720  -11.4360  -15.8830 C.3   903  0L3903      0.0001
     45  C45       19.7430  -11.2200  -16.7590 C.3   903  0L3903      0.0027
     46  C46       19.6620   -9.7670  -17.2130 C.3   903  0L3903      0.0355
     47  C47       18.2540   -9.3990  -17.6670 C.3   903  0L3903      0.1821
     48  O48       18.2510   -8.0600  -18.1730 O.3   903  0L3903     -0.2204
@<TRIPOS>BOND
     1    48    47    1
     2    47    46    1
     3    46    45    1
     4    45    44    1
     5    44    43    1
     6     1     2    2
     7    43    42    1
     8     3     2    1
     9    42    41    1
    10     2     4    1
    11     2     5    1
    12     8     6    2
    13    11    10    2
    14     5     6    1
    15    41    40    1
    16     6     7    1
    17     6     9    1
    18    40    39    1
    19    10     9    1
    20    10    13    1
    21    10    12    1
    22    14    13    1
    23    14    15    1
    24    17    16    1
    25    15    16    1
    26    15    19    1
    27    39    37    1
    28    16    18    1
    29    19    20    1
    30    37    36   am
    31    37    38    2
    32    36    35    1
    33    18    20    1
    34    20    21    1
    35    35    34    1
    36    29    21    1
    37    29    30    2
    38    21    22    1
    39    34    33    1
    40    30    31    1
    41    30    28    1
    42    31    32    3
    43    22    23    2
    44    22    28    1
    45    32    33    1
    46    23    24    1
    47    28    26    1
    48    24    25    1
    49    26    25    2
    50    26    27    1
