@<TRIPOS>MOLECULE
4df6_NXL_A_1.pdb
 17 16 0 0 0
SMALL
GASTEIGER

@<TRIPOS>ATOM
      1  OAC      -12.4150  -10.8150   -4.1540 O.2   703  NXL703     -0.2649
      2  CAN      -13.3760  -11.0740   -4.8900 C.2   703  NXL703      0.3033
      3  N        -14.5430  -11.5840   -4.5180 N.am  703  NXL703     -0.2641
      4  CAJ      -15.6620  -11.8260   -5.4730 C.3   703  NXL703      0.1132
      5  CA       -14.7550  -11.8320   -3.0940 C.3   703  NXL703      0.1555
      6  C        -14.9370  -13.2160   -2.9140 C.2   703  NXL703      0.2788
      7  O        -14.8690  -14.0020   -3.8890 O.2   703  NXL703     -0.2699
      8  NAA      -15.0880  -13.5960   -1.6340 N.am  703  NXL703     -0.0863
      9  CB       -15.8860  -10.9270   -2.5820 C.3   703  NXL703      0.0309
     10  CAH      -17.1120  -10.9750   -3.5300 C.3   703  NXL703      0.0230
     11  CAO      -16.7810  -10.9020   -5.0650 C.3   703  NXL703      0.1117
     12  NAK      -16.5760   -9.4940   -5.4810 N.3   703  NXL703     -0.1311
     13  OAL      -15.0060   -8.5890   -5.1730 O.2   703  NXL703     -0.1133
     14  SAR      -15.0080   -7.3600   -4.2600 S.3   703  NXL703      0.2666
     15  OAD      -15.4720   -7.8720   -2.8960 O.3   703  NXL703     -0.0200
     16  OAE      -13.6710   -6.7370   -4.0140 O.3   703  NXL703     -0.0200
     17  OAG      -15.9880   -6.3000   -4.7520 O.2   703  NXL703     -0.1133
@<TRIPOS>BOND
     1    12    11    1
     2     4    11    1
     3     4     3    1
     4    13    14    2
     5    11    10    1
     6     2     3   am
     7     2     1    2
     8    17    14    2
     9     3     5    1
    10    14    16    1
    11    14    15    1
    12     7     6    2
    13    10     9    1
    14     5     6    1
    15     5     9    1
    16     6     8   am
