@<TRIPOS>MOLECULE
4df7_THP_A_1.pdb
 25 26 0 0 0
SMALL
GASTEIGER

@<TRIPOS>ATOM
      1  P2        17.9010   11.1380    4.7510 P.3   202  THP202      0.5327
      2  O4P       17.8980    9.6770    5.0070 O.2   202  THP202     -0.2224
      3  O5P       19.1750   11.8730    5.3730 O.3   202  THP202     -0.1145
      4  O6P       16.6330   11.9450    5.1980 O.3   202  THP202     -0.1145
      5  P1        21.0970   14.6880    0.9320 P.3   202  THP202      0.5326
      6  O1P       22.1410   15.3200   -0.0890 O.2   202  THP202     -0.2224
      7  O2P       21.8580   13.5150    1.7100 O.3   202  THP202     -0.1145
      8  O3P       20.5120   15.6080    1.9300 O.3   202  THP202     -0.1145
      9  O5'       17.8630   11.1560    3.1920 O.3   202  THP202     -0.2675
     10  C5'       17.9160   12.4740    2.5960 C.3   202  THP202      0.1857
     11  C4'       18.8420   12.3860    1.3780 C.3   202  THP202      0.1748
     12  O4'       18.4770   11.3270    0.4820 O.3   202  THP202     -0.3340
     13  C3'       18.8110   13.6720    0.4960 C.3   202  THP202      0.1600
     14  O3'       20.0880   13.9690   -0.1130 O.3   202  THP202     -0.2700
     15  C2'       17.8930   13.2030   -0.6610 C.3   202  THP202      0.0847
     16  C1'       18.1730   11.6750   -0.8270 C.3   202  THP202      0.2089
     17  N1        16.8620   11.0170   -1.1450 N.am  202  THP202     -0.1794
     18  C2        16.5800   10.7690   -2.4410 C.1   202  THP202      0.2844
     19  O2        17.4060   11.0970   -3.2960 O.2   202  THP202     -0.1918
     20  N3        15.3930   10.2800   -2.8800 N.2   202  THP202     -0.2455
     21  C4        14.4380    9.9680   -1.9440 C.1   202  THP202      0.2134
     22  O4        13.3780    9.5660   -2.3820 O.2   202  THP202     -0.2088
     23  C5        14.7100   10.2100   -0.5750 C.2   202  THP202      0.0891
     24  C5M       13.6870    9.8410    0.4970 C.3   202  THP202      0.0462
     25  C6        15.9340   10.6950   -0.1740 C.2   202  THP202      0.0877
@<TRIPOS>BOND
     1    19    18    2
     2    20    18    2
     3    20    21    2
     4    18    17   am
     5    22    21    2
     6    21    23    1
     7    17    16    1
     8    17    25    1
     9    16    15    1
    10    16    12    1
    11    15    13    1
    12    23    25    2
    13    23    24    1
    14    14    13    1
    15    14     5    1
    16     6     5    2
    17    12    11    1
    18    13    11    1
    19     5     7    1
    20     5     8    1
    21    11    10    1
    22    10     9    1
    23     9     1    1
    24     1     2    2
    25     1     4    1
    26     1     3    1
