@<TRIPOS>MOLECULE
4df8_0L4_A_1.pdb
 36 38 0 0 0
SMALL
GASTEIGER

@<TRIPOS>ATOM
      1  O2A       19.7890  -16.4340  -12.9570 O.2   901  0L4901     -0.5170
      2  PA        19.5350  -16.6030  -11.4750 P.3   901  0L4901      0.2189
      3  O1A       20.2210  -15.6390  -10.5430 O.3   901  0L4901     -0.4371
      4  O3A       17.9610  -16.5770  -11.1330 O.3   901  0L4901     -0.2700
      5  PB        16.7900  -16.6330  -12.2370 P.3   901  0L4901      0.2277
      6  O3B       16.5050  -15.0650  -12.4980 O.3   901  0L4901     -0.2258
      7  PG        16.9640  -14.2690  -13.8240 P.3   901  0L4901      0.5373
      8  O2G       17.9510  -15.1820  -14.5190 O.3   901  0L4901     -0.1143
      9  O3T       17.5760  -13.0010  -13.2780 O.3   901  0L4901     -0.1143
     10  O1G       15.6620  -14.0290  -14.5460 O.2   901  0L4901     -0.2221
     11  O1B       15.5760  -17.1810  -11.5270 O.3   901  0L4901     -0.4368
     12  O2B       17.2870  -17.3220  -13.4860 O.2   901  0L4901     -0.5168
     13  O5'       19.9100  -18.0950  -10.9950 O.3   901  0L4901     -0.3112
     14  C5'       19.3760  -19.2240  -11.6810 C.3   901  0L4901      0.1813
     15  C4'       18.7530  -20.2360  -10.7250 C.3   901  0L4901      0.1795
     16  O4'       19.5510  -20.4570   -9.5570 O.3   901  0L4901     -0.3153
     17  C1'       18.6990  -20.7970   -8.4600 C.3   901  0L4901      0.2900
     18  C2'       17.2640  -20.5590   -8.9060 C.3   901  0L4901      0.1155
     19  C3'       17.4010  -19.7840  -10.2010 C.3   901  0L4901      0.1883
     20  O3'       16.3390  -20.1040  -11.1000 O.3   901  0L4901     -0.2202
     21  N9        18.9060  -19.8420   -7.3410 N.pl3 901  0L4901     -0.1484
     22  C8        19.3980  -18.5900   -7.5020 C.2   901  0L4901      0.1824
     23  C7        19.4090  -18.0000   -6.2690 C.2   901  0L4901      0.0831
     24  C5        18.8880  -18.9120   -5.2450 C.3   901  0L4901      0.2522
     25  C6        18.6340  -18.9360   -3.7860 C.2   901  0L4901      0.4071
     26  N6        18.9190  -17.8570   -3.0240 N.pl3 901  0L4901      0.2117
     27  N1        18.1120  -20.0710   -3.2820 N.2   901  0L4901     -0.0027
     28  C2        17.8370  -21.1350   -4.0650 C.3   901  0L4901      0.5248
     29  N3        18.0520  -21.1710   -5.3970 N.2   901  0L4901     -0.0106
     30  C4        18.5730  -20.1000   -6.0500 C.2   901  0L4901      0.3221
     31  C42       19.8440  -16.7630   -6.0130 C.1   901  0L4901     -0.0640
     32  C43       20.1920  -15.6580   -5.7730 C.1   901  0L4901     -0.0866
     33  C44       20.6240  -14.2850   -5.4750 C.3   901  0L4901      0.0779
     34  C45       21.6220  -13.8190   -6.5300 C.3   901  0L4901      0.0345
     35  C46       21.2440  -14.3240   -7.9160 C.3   901  0L4901      0.1103
     36  N47       22.1540  -13.7800   -8.9110 N.3   901  0L4901     -0.1314
@<TRIPOS>BOND
     1    10     7    2
     2     8     7    1
     3     7     9    1
     4     7     6    1
     5    12     5    2
     6     1     2    2
     7     6     5    1
     8     5    11    1
     9     5     4    1
    10    14    13    1
    11    14    15    1
    12     2     4    1
    13     2    13    1
    14     2     3    1
    15    20    19    1
    16    15    19    1
    17    15    16    1
    18    19    18    1
    19    16    17    1
    20    36    35    1
    21    18    17    1
    22    17    21    1
    23    35    34    1
    24    22    21    1
    25    22    23    2
    26    21    30    1
    27    34    33    1
    28    23    31    1
    29    23    24    1
    30    30    29    2
    31    30    24    1
    32    31    32    3
    33    32    33    1
    34    29    28    1
    35    24    25    1
    36    28    27    1
    37    25    27    2
    38    25    26    1
