@<TRIPOS>MOLECULE
4dfa_THP_A_1.pdb
 25 26 0 0 0
SMALL
GASTEIGER

@<TRIPOS>ATOM
      1  P2        17.8750  -63.8930    4.7870 P.3   202  THP202      0.5327
      2  O4P       17.8670  -65.4050    5.0090 O.2   202  THP202     -0.2224
      3  O5P       16.6520  -63.1960    5.3220 O.3   202  THP202     -0.1145
      4  O6P       19.2070  -63.1960    5.3510 O.3   202  THP202     -0.1145
      5  P1        21.1480  -60.3860    0.9990 P.3   202  THP202      0.5326
      6  O1P       22.1670  -59.7530   -0.0130 O.2   202  THP202     -0.2224
      7  O2P       21.8340  -61.5380    1.7750 O.3   202  THP202     -0.1145
      8  O3P       20.4940  -59.4120    1.9540 O.3   202  THP202     -0.1145
      9  O5'       17.8530  -63.8320    3.2930 O.3   202  THP202     -0.2675
     10  C5'       17.8600  -62.5170    2.5840 C.3   202  THP202      0.1857
     11  C4'       18.7860  -62.6500    1.3860 C.3   202  THP202      0.1748
     12  O4'       18.4860  -63.7210    0.5270 O.3   202  THP202     -0.3340
     13  C3'       18.7210  -61.3760    0.5030 C.3   202  THP202      0.1600
     14  O3'       20.0600  -61.0660   -0.0020 O.3   202  THP202     -0.2700
     15  C2'       17.8530  -61.8080   -0.6790 C.3   202  THP202      0.0847
     16  C1'       18.1410  -63.3490   -0.7770 C.3   202  THP202      0.2089
     17  N1        16.8470  -64.0220   -1.1780 N.am  202  THP202     -0.1794
     18  C2        16.5880  -64.2120   -2.4570 C.1   202  THP202      0.2844
     19  O2        17.4520  -63.9160   -3.3170 O.2   202  THP202     -0.1918
     20  N3        15.4320  -64.7730   -2.9080 N.2   202  THP202     -0.2455
     21  C4        14.4470  -65.0370   -1.9430 C.1   202  THP202      0.2134
     22  O4        13.3570  -65.4490   -2.3890 O.2   202  THP202     -0.2088
     23  C5        14.7220  -64.8240   -0.5460 C.2   202  THP202      0.0891
     24  C5M       13.6740  -65.1990    0.4970 C.3   202  THP202      0.0462
     25  C6        15.9450  -64.3400   -0.1790 C.2   202  THP202      0.0877
@<TRIPOS>BOND
     1    19    18    2
     2    20    18    2
     3    20    21    2
     4    18    17   am
     5    22    21    2
     6    21    23    1
     7    17    16    1
     8    17    25    1
     9    16    15    1
    10    16    12    1
    11    15    13    1
    12    23    25    2
    13    23    24    1
    14     6     5    2
    15    14    13    1
    16    14     5    1
    17    13    11    1
    18    12    11    1
    19     5     7    1
    20     5     8    1
    21    11    10    1
    22    10     9    1
    23     9     1    1
    24     1     2    2
    25     1     3    1
    26     1     4    1
