@<TRIPOS>MOLECULE
4dfb_KAN_A_1.pdb
 33 35 0 0 0
SMALL
GASTEIGER

@<TRIPOS>ATOM
      1  C1         2.6330   59.6750   42.2150 C.3   401  KAN401      0.2695
      2  C2         1.8000   58.7240   43.0750 C.3   401  KAN401      0.2406
      3  C3         1.9270   59.1400   44.5370 C.3   401  KAN401      0.2198
      4  C4         3.4070   59.1030   44.9040 C.3   401  KAN401      0.2133
      5  C5         4.1870   60.0600   44.0130 C.3   401  KAN401      0.1696
      6  C6         5.6850   60.0210   44.3120 C.3   401  KAN401      0.1415
      7  C7         2.5480   64.5370   39.8250 C.3   401  KAN401      0.1231
      8  C8         3.5440   63.3990   39.5770 C.3   401  KAN401      0.1680
      9  C9         2.9470   62.1220   40.2180 C.3   401  KAN401      0.2088
     10  C10        2.6350   62.2250   41.7320 C.3   401  KAN401      0.1680
     11  C11        1.6640   63.3870   41.9290 C.3   401  KAN401      0.1231
     12  C12        2.2610   64.6500   41.3210 C.3   401  KAN401      0.0432
     13  C13        4.9320   62.4540   37.6410 C.3   401  KAN401      0.2684
     14  C14        5.0750   62.7220   36.1350 C.3   401  KAN401      0.2279
     15  C15        3.8410   62.2840   35.3700 C.3   401  KAN401      0.1599
     16  C16        3.6640   60.8000   35.6230 C.3   401  KAN401      0.2017
     17  C17        3.4920   60.5480   37.1030 C.3   401  KAN401      0.1824
     18  C18        3.3950   59.0430   37.3360 C.3   401  KAN401      0.2142
     19  N1         6.3880   60.9550   43.4240 N.3   401  KAN401     -0.1286
     20  N2         1.4330   63.5990   43.3650 N.3   401  KAN401     -0.1302
     21  N3         3.1080   65.8000   39.3280 N.3   401  KAN401     -0.1302
     22  N4         4.0270   62.5270   33.9360 N.3   401  KAN401     -0.1272
     23  O5         4.0150   59.6580   42.6390 O.3   401  KAN401     -0.3268
     24  O6         0.4430   58.7210   42.6160 O.3   401  KAN401     -0.2149
     25  O7         1.1900   58.2350   45.3650 O.3   401  KAN401     -0.2174
     26  O8         3.5720   59.4740   46.2740 O.3   401  KAN401     -0.2176
     27  O9         2.0570   61.0030   42.3300 O.3   401  KAN401     -0.3269
     28  O10        3.9200   61.0930   40.0550 O.3   401  KAN401     -0.2178
     29  O11        3.8360   63.2900   38.1250 O.3   401  KAN401     -0.3269
     30  O12        4.6720   61.0290   37.8100 O.3   401  KAN401     -0.3257
     31  O13        5.3560   64.1150   35.9750 O.3   401  KAN401     -0.2161
     32  O14        2.5170   60.3210   34.9140 O.3   401  KAN401     -0.2188
     33  O15        4.5810   58.4170   36.8360 O.3   401  KAN401     -0.2176
@<TRIPOS>BOND
     1    22    15    1
     2    32    16    1
     3    15    16    1
     4    15    14    1
     5    16    17    1
     6    31    14    1
     7    14    13    1
     8    33    18    1
     9    17    18    1
    10    17    30    1
    11    13    30    1
    12    13    29    1
    13    29     8    1
    14    21     7    1
    15     8     7    1
    16     8     9    1
    17     7    12    1
    18    28     9    1
    19     9    10    1
    20    12    11    1
    21    10    11    1
    22    10    27    1
    23    11    20    1
    24     1    27    1
    25     1    23    1
    26     1     2    1
    27    24     2    1
    28    23     5    1
    29     2     3    1
    30    19     6    1
    31     5     6    1
    32     5     4    1
    33     3     4    1
    34     3    25    1
    35     4    26    1
