@<TRIPOS>MOLECULE
4dff_0JP_B_1.pdb
 37 40 0 0 0
SMALL
GASTEIGER

@<TRIPOS>ATOM
      1  C17        7.6610   38.3340   56.9970 C.ar  801  0JP801     -0.0103
      2  C2         8.5750   38.4720   59.6520 C.ar  801  0JP801     -0.0127
      3  C11        9.0860   37.6610   53.9350 C.2   801  0JP801      0.0810
      4  C7        10.9440   41.4910   55.7050 C.2   801  0JP801      0.1369
      5  C13        8.8250   37.8760   51.7520 C.2   801  0JP801      0.1120
      6  C16        8.8130   39.0780   57.3080 C.ar  801  0JP801     -0.0076
      7  C3         9.2650   39.1380   58.6570 C.ar  801  0JP801     -0.0365
      8  C18        6.9280   37.6800   57.9970 C.ar  801  0JP801      0.1618
      9  C1         7.3870   37.7360   59.3260 C.ar  801  0JP801      0.1618
     10  C9         9.8200   39.8730   54.9180 C.2   801  0JP801      0.1257
     11  C15        9.5700   39.8290   56.2970 C.3   801  0JP801      0.1452
     12  C10        9.4020   38.9920   53.8240 C.3   801  0JP801      0.1472
     13  C4        10.4670   39.9810   59.0020 C.3   801  0JP801     -0.0113
     14  C5        10.3410   41.2740   58.1860 C.3   801  0JP801      0.0192
     15  C22        5.1430   36.7830   56.5400 C.3   801  0JP801      0.0790
     16  C21        6.7640   36.9990   61.5960 C.3   801  0JP801      0.0790
     17  N12        8.7410   36.9940   52.7650 N.2   801  0JP801     -0.4154
     18  N8        10.6920   40.8910   54.5900 N.2   801  0JP801     -0.4009
     19  N6        10.3050   40.8940   56.7580 N.pl3 801  0JP801     -0.2928
     20  O19        5.7960   36.8900   57.8120 O.3   801  0JP801     -0.4914
     21  O20        6.6220   36.9730   60.1660 O.3   801  0JP801     -0.4914
     22  S14        9.3290   39.4860   52.1660 S.3   801  0JP801     -0.0782
     23  H17        7.3520   38.3030   56.0030 H     801  0JP801      0.0659
     24  H2         8.9530   38.5510   60.6650 H     801  0JP801      0.0658
     25  H11        9.0570   37.1200   54.8460 H     801  0JP801      0.0941
     26  H7        11.5870   42.3560   55.8100 H     801  0JP801      0.1144
     27  H13        8.6080   37.6060   50.7250 H     801  0JP801      0.1046
     28  H42       10.5220   40.2230   60.0730 H     801  0JP801      0.0328
     29  H41       11.3740   39.4480   58.7040 H     801  0JP801      0.0328
     30  H52        9.3950   41.7960   58.4000 H     801  0JP801      0.0468
     31  H51       11.1820   41.9530   58.3880 H     801  0JP801      0.0468
     32 H223        4.5900   37.7050   56.4360 H     801  0JP801      0.0660
     33 H221        4.4050   35.9760   56.5520 H     801  0JP801      0.0660
     34 H222        5.8170   36.6410   55.6990 H     801  0JP801      0.0660
     35 H213        7.8070   36.9110   61.9140 H     801  0JP801      0.0660
     36 H212        6.2240   36.1380   62.0130 H     801  0JP801      0.0660
     37 H211        6.3000   37.9000   61.9860 H     801  0JP801      0.0660
@<TRIPOS>BOND
     1    27     5    1
     2     5    22    1
     3     5    17    2
     4    22    12    1
     5    17     3    2
     6    12     3    1
     7    12    10    1
     8     3    25    1
     9    18    10    2
    10    18     4    2
    11    10    11    1
    12    34    15    1
    13     4    26    1
    14     4    19    1
    15    23     1    1
    16    11    19    1
    17    11     6    1
    18    32    15    1
    19    15    33    1
    20    15    20    1
    21    19    14    1
    22     1     6   ar
    23     1     8   ar
    24     6     7   ar
    25    20     8    1
    26     8     9   ar
    27    14    31    1
    28    14    30    1
    29    14    13    1
    30     7    13    1
    31     7     2   ar
    32    29    13    1
    33    13    28    1
    34     9     2   ar
    35     9    21    1
    36     2    24    1
    37    21    16    1
    38    16    35    1
    39    16    37    1
    40    16    36    1
