@<TRIPOS>MOLECULE
4dfg_0JV_B_1.pdb
 45 48 0 0 0
SMALL
GASTEIGER

@<TRIPOS>ATOM
      1  O39       21.7390   28.7370   14.6620 O.3   201  0JV201     -0.4714
      2  O39       11.1120   17.3350   20.7830 O.3   201  0JV201     -0.1951
      3  C40       23.1270   28.6950   14.9510 C.3   201  0JV201      0.2525
      4  C2        21.1290   27.5880   15.0170 C.ar  201  0JV201      0.1388
      5  C3        19.7560   27.5880   14.8290 C.ar  201  0JV201      0.0383
      6  C4        18.9840   26.4890   15.1430 C.ar  201  0JV201      0.0230
      7  C5        19.5770   25.3480   15.6580 C.ar  201  0JV201      0.1224
      8  C6        20.9390   25.3780   15.8330 C.ar  201  0JV201      0.0230
      9  C7        21.7550   26.4530   15.5340 C.ar  201  0JV201      0.0383
     10  S8        18.5850   23.9560   16.0530 S.O2  201  0JV201      0.0634
     11  O9        17.4870   23.8930   15.0680 O.2   201  0JV201     -0.1528
     12  O10       19.4120   22.7420   16.2230 O.2   201  0JV201     -0.1528
     13  N11       17.8860   24.2420   17.5220 N.3   201  0JV201     -0.1529
     14  C12       18.8140   24.5560   18.5890 C.3   201  0JV201      0.0958
     15  C13       18.5060   23.7990   19.8870 C.3   201  0JV201      0.0178
     16  C14       18.6340   22.2740   19.7260 C.3   201  0JV201      0.0015
     17  C15       19.4960   24.2770   20.9670 C.3   201  0JV201      0.0015
     18  C16       16.6160   24.9500   17.5440 C.3   201  0JV201      0.1304
     19  C17       15.4730   24.0460   18.0270 C.3   201  0JV201      0.1898
     20  O18       14.2820   24.7560   18.3770 O.3   201  0JV201     -0.2197
     21  C19       15.0810   22.9170   17.0770 C.3   201  0JV201      0.1347
     22  N20       14.2300   21.9550   17.7620 N.am  201  0JV201     -0.1675
     23  C21       14.4710   20.6680   18.0080 C.2   201  0JV201      0.4210
     24  O22       15.5700   20.1490   17.7550 O.2   201  0JV201     -0.2246
     25  O23       13.4190   20.0090   18.5840 O.3   201  0JV201     -0.4371
     26  C24       13.7360   18.6140   18.8670 C.3   201  0JV201      0.1757
     27  C25       12.6440   18.1820   19.8600 C.3   201  0JV201      0.1028
     28  C26       11.4070   17.8420   19.0390 C.3   201  0JV201      0.2241
     29  O27       10.7000   19.0050   18.6320 O.3   201  0JV201     -0.3300
     30  C28       10.5770   19.0640   17.2130 C.3   201  0JV201      0.1665
     31  C29       10.9300   17.6640   16.7330 C.3   201  0JV201      0.1331
     32  C30       11.9650   17.2370   17.7780 C.3   201  0JV201      0.0806
     33  C31       13.3810   17.7730   17.6370 C.3   201  0JV201      0.0506
     34  N41       11.4700   17.5390   15.3920 N.am  201  0JV201     -0.1677
     35  C42       10.7650   17.8050   14.2760 C.2   201  0JV201      0.4213
     36  O43        9.6390   18.3350   14.2550 O.2   201  0JV201     -0.2246
     37  O44       11.2700   17.5620   13.0320 O.3   201  0JV201     -0.4294
     38  C45       10.2470   17.8350   12.0450 C.3   201  0JV201      0.2574
     39  C32       14.4220   23.4340   15.7920 C.3   201  0JV201      0.0508
     40  C33       12.8290   21.7170   14.8710 C.ar  201  0JV201     -0.0042
     41  C34       12.4920   20.6260   14.0800 C.ar  201  0JV201     -0.0003
     42  C35       13.4770   20.0390   13.3010 C.ar  201  0JV201     -0.0000
     43  C36       14.7670   20.5260   13.3080 C.ar  201  0JV201     -0.0003
     44  C37       15.1070   21.6280   14.1080 C.ar  201  0JV201     -0.0042
     45  C38       14.1260   22.2220   14.8910 C.ar  201  0JV201     -0.0204
@<TRIPOS>BOND
     1    38    37    1
     2    37    35    1
     3    42    43   ar
     4    42    41   ar
     5    43    44   ar
     6    41    40   ar
     7    44    45   ar
     8    36    35    2
     9    35    34   am
    10     1     3    1
    11     1     4    1
    12     5     4   ar
    13     5     6   ar
    14    40    45   ar
    15    45    39    1
    16     4     9   ar
    17    11    10    2
    18     6     7   ar
    19    34    31    1
    20     9     8   ar
    21     7     8   ar
    22     7    10    1
    23    39    21    1
    24    10    12    2
    25    10    13    1
    26    31    30    1
    27    31    32    1
    28    21    22    1
    29    21    19    1
    30    30    29    1
    31    13    18    1
    32    13    14    1
    33    18    19    1
    34    33    32    1
    35    33    26    1
    36    24    23    2
    37    22    23   am
    38    32    28    1
    39    23    25    1
    40    19    20    1
    41    25    26    1
    42    14    15    1
    43    29    28    1
    44    26    27    1
    45    28    27    1
    46    28     2    1
    47    16    15    1
    48    15    17    1
