@<TRIPOS>MOLECULE
4dfj_0KL_A_1.pdb
 34 35 0 0 0
SMALL
GASTEIGER

@<TRIPOS>ATOM
      1  O3G       18.1410  -14.9830  -14.4150 O.3   903  0KL903     -0.1143
      2  PG        17.1230  -14.0770  -13.7600 P.3   903  0KL903      0.5373
      3  O2G       17.7200  -12.8340  -13.1450 O.3   903  0KL903     -0.1143
      4  O1G       15.8680  -13.8200  -14.5610 O.2   903  0KL903     -0.2221
      5  O3B       16.5960  -14.9100  -12.4850 O.3   903  0KL903     -0.2258
      6  PB        16.9490  -16.4640  -12.2380 P.3   903  0KL903      0.2277
      7  O1B       15.7860  -17.0790  -11.4970 O.3   903  0KL903     -0.4368
      8  O2B       17.4710  -17.1160  -13.4980 O.2   903  0KL903     -0.5168
      9  O3A       18.1230  -16.3280  -11.1480 O.3   903  0KL903     -0.2700
     10  PA        19.6780  -16.6030  -11.4640 P.3   903  0KL903      0.2189
     11  O1A       19.9100  -16.7060  -12.9560 O.2   903  0KL903     -0.5170
     12  O2A       20.4620  -15.6010  -10.6550 O.3   903  0KL903     -0.4371
     13  O5'       19.8280  -18.0410  -10.7580 O.3   903  0KL903     -0.3112
     14  C5'       19.6160  -19.2400  -11.4980 C.3   903  0KL903      0.1812
     15  C4'       18.8520  -20.2210  -10.6200 C.3   903  0KL903      0.1773
     16  C3'       17.5290  -19.6480  -10.1360 C.3   903  0KL903      0.1857
     17  O3'       16.4510  -19.8270  -11.0610 O.3   903  0KL903     -0.2203
     18  C2'       17.2830  -20.4050   -8.8450 C.3   903  0KL903      0.0874
     19  O4'       19.5850  -20.5260   -9.4270 O.3   903  0KL903     -0.3339
     20  C1'       18.6770  -20.7420   -8.3380 C.3   903  0KL903      0.2090
     21  N1        18.9740  -19.8160   -7.2400 N.am  903  0KL903     -0.1784
     22  C2        18.6430  -20.1630   -5.9080 C.1   903  0KL903      0.2845
     23  O2        18.1170  -21.2740   -5.6670 O.2   903  0KL903     -0.1918
     24  N3        18.8900  -19.3260   -4.8890 N.2   903  0KL903     -0.2446
     25  C6        19.5280  -18.6310   -7.5230 C.2   903  0KL903      0.1004
     26  C5        19.8010  -17.7410   -6.5010 C.2   903  0KL903      0.1523
     27  C4        19.4550  -18.1310   -5.1140 C.1   903  0KL903      0.2252
     28  O4        19.6910  -17.3440   -4.1660 O.2   903  0KL903     -0.2079
     29  C29       20.3420  -16.6000   -6.7380 C.1   903  0KL903     -0.0503
     30  C30       20.8360  -15.5460   -6.9340 C.1   903  0KL903     -0.0856
     31  C31       21.4510  -14.2320   -7.1800 C.3   903  0KL903      0.0779
     32  C32       21.1870  -13.3060   -6.0060 C.3   903  0KL903      0.0345
     33  C33       21.8030  -13.8350   -4.7140 C.3   903  0KL903      0.1103
     34  N34       20.8350  -14.6500   -4.0020 N.3   903  0KL903     -0.1314
@<TRIPOS>BOND
     1     4     2    2
     2     1     2    1
     3     2     3    1
     4     2     5    1
     5     8     6    2
     6    11    10    2
     7     5     6    1
     8     6     7    1
     9     6     9    1
    10    14    13    1
    11    14    15    1
    12    10     9    1
    13    10    13    1
    14    10    12    1
    15    17    16    1
    16    15    16    1
    17    15    19    1
    18    16    18    1
    19    19    20    1
    20    18    20    1
    21    20    21    1
    22    25    21    1
    23    25    26    2
    24    21    22   am
    25    31    30    1
    26    31    32    1
    27    30    29    3
    28    29    26    1
    29    26    27    1
    30    32    33    1
    31    22    23    2
    32    22    24    2
    33    27    24    2
    34    27    28    2
    35    33    34    1
