@<TRIPOS>MOLECULE
4dfk_0L5_A_1.pdb
 46 47 0 0 0
SMALL
GASTEIGER

@<TRIPOS>ATOM
      1  O36       22.5460  -10.1040   -4.4580 O.2   901  0L5901     -0.2733
      2  C35       21.5580  -10.4850   -3.8440 C.2   901  0L5901      0.2414
      3  C37       21.0450   -9.7050   -2.6460 C.3   901  0L5901      0.0868
      4  C38       20.6810   -8.2830   -3.0770 C.3   901  0L5901      0.0096
      5  C39       20.9360   -7.2190   -2.0000 C.3   901  0L5901      0.0005
      6  C40       20.0750   -7.3500   -0.7490 C.3   901  0L5901      0.0000
      7  C41       19.2050   -6.1150   -0.5180 C.3   901  0L5901      0.0000
      8  C42       19.8730   -4.8100   -0.9440 C.3   901  0L5901      0.0001
      9  C43       18.8360   -3.6950   -1.0560 C.3   901  0L5901      0.0027
     10  C44       19.4640   -2.3680   -1.4680 C.3   901  0L5901      0.0355
     11  C45       18.3950   -1.3540   -1.8610 C.3   901  0L5901      0.1821
     12  O46       19.0150   -0.1270   -2.2640 O.3   901  0L5901     -0.2204
     13  N34       20.8910  -11.5870   -4.1940 N.am  901  0L5901     -0.2054
     14  C33       21.4420  -12.5740   -5.1150 C.3   901  0L5901      0.1162
     15  C32       20.6930  -12.6810   -6.4410 C.3   901  0L5901      0.0374
     16  C31       21.2490  -13.7950   -7.3240 C.3   901  0L5901      0.0782
     17  C30       20.6540  -15.1070   -6.9810 C.1   901  0L5901     -0.0856
     18  C29       20.1940  -16.1790   -6.7470 C.1   901  0L5901     -0.0503
     19  C5        19.6920  -17.3490   -6.4900 C.2   901  0L5901      0.1523
     20  C6        19.4060  -18.2570   -7.4970 C.2   901  0L5901      0.1004
     21  N1        18.8800  -19.4620   -7.2140 N.am  901  0L5901     -0.1784
     22  C2        18.5820  -19.8020   -5.8750 C.1   901  0L5901      0.2845
     23  O2        18.0860  -20.9280   -5.6260 O.2   901  0L5901     -0.1918
     24  N3        18.8310  -18.9470   -4.8700 N.2   901  0L5901     -0.2446
     25  C4        19.3650  -17.7420   -5.0960 C.1   901  0L5901      0.2252
     26  O4        19.5950  -16.9620   -4.1440 O.2   901  0L5901     -0.2079
     27  C1'       18.5680  -20.4360   -8.2860 C.3   901  0L5901      0.2090
     28  O4'       19.4520  -20.2370   -9.3960 O.3   901  0L5901     -0.3339
     29  C4'       18.7050  -19.9070  -10.5820 C.3   901  0L5901      0.1773
     30  C3'       17.3840  -19.3550  -10.0710 C.3   901  0L5901      0.1857
     31  O3'       16.2960  -19.5090  -11.0060 O.3   901  0L5901     -0.2203
     32  C2'       17.1580  -20.1570   -8.8000 C.3   901  0L5901      0.0874
     33  C5'       19.4650  -18.9230  -11.4730 C.3   901  0L5901      0.1812
     34  O5'       19.7040  -17.7060  -10.7660 O.3   901  0L5901     -0.3112
     35  PA        19.5240  -16.2830  -11.4950 P.3   901  0L5901      0.2189
     36  O1A       20.2020  -15.1980  -10.6890 O.3   901  0L5901     -0.4371
     37  O2A       19.8020  -16.3810  -12.9810 O.2   901  0L5901     -0.5170
     38  O3A       17.9350  -16.0900  -11.2350 O.3   901  0L5901     -0.2700
     39  PB        16.7350  -16.3010  -12.3100 P.3   901  0L5901      0.2277
     40  O1B       17.1990  -17.0950  -13.5180 O.2   901  0L5901     -0.5168
     41  O2B       15.5940  -16.8500  -11.4840 O.3   901  0L5901     -0.4368
     42  O3B       16.3570  -14.7600  -12.6300 O.3   901  0L5901     -0.2258
     43  PG        16.8890  -13.8300  -13.8460 P.3   901  0L5901      0.5373
     44  O1G       15.6620  -13.5730  -14.6790 O.2   901  0L5901     -0.2221
     45  O3G       17.3990  -12.5900  -13.1460 O.3   901  0L5901     -0.1143
     46  O2G       17.9920  -14.6040  -14.5550 O.3   901  0L5901     -0.1143
@<TRIPOS>BOND
     1    44    43    2
     2    46    43    1
     3    43    45    1
     4    43    42    1
     5    40    39    2
     6    37    35    2
     7    42    39    1
     8    39    41    1
     9    39    38    1
    10    35    38    1
    11    35    34    1
    12    35    36    1
    13    33    34    1
    14    33    29    1
    15    31    30    1
    16    29    30    1
    17    29    28    1
    18    30    32    1
    19    28    27    1
    20    32    27    1
    21    27    21    1
    22    20    21    1
    23    20    19    2
    24    16    17    1
    25    16    15    1
    26    21    22   am
    27    17    18    3
    28    18    19    1
    29    19    25    1
    30    15    14    1
    31    22    23    2
    32    22    24    2
    33    14    13    1
    34    25    24    2
    35    25    26    2
    36     1     2    2
    37    13     2   am
    38     2     3    1
    39     4     3    1
    40     4     5    1
    41    12    11    1
    42     5     6    1
    43    11    10    1
    44    10     9    1
    45     9     8    1
    46     8     7    1
    47     6     7    1
