@<TRIPOS>MOLECULE
4dfl_0K0_A_1.pdb
 28 30 0 0 0
SMALL
GASTEIGER

@<TRIPOS>ATOM
      1  C1         0.6800   -1.0190   14.5190 C.ar  701  0K0701      0.0312
      2  C2         0.1780   -0.2040   13.5150 C.ar  701  0K0701      0.0204
      3  C3        -0.1410   -1.9360   15.1640 C.ar  701  0K0701      0.0024
      4  C4        -1.1500   -0.3160   13.1280 C.ar  701  0K0701      0.0907
      5  C5        -1.4630   -2.0350   14.7880 C.ar  701  0K0701      0.0015
      6  C6        -1.9670   -1.2290   13.7860 C.ar  701  0K0701      0.0180
      7  C7         2.0800   -0.8490   14.8630 C.2   701  0K0701      0.1630
      8  C8         2.7550   -1.6360   15.7810 C.3   701  0K0701      0.3216
      9  N10        4.0770   -1.3830   16.0350 N.2   701  0K0701     -0.0478
     10  C11        4.0730    0.4120   14.4360 C.2   701  0K0701      0.2756
     11  C12        4.7410   -0.3550   15.3710 C.2   701  0K0701      0.4450
     12  O14        5.7620    1.9600   13.9340 O.2   701  0K0701     -0.2653
     13  C16        4.1950    3.3130   11.9700 C.3   701  0K0701      0.1156
     14  C17        2.9890    4.2530   12.0310 C.3   701  0K0701      0.0246
     15  C18        2.8270    4.8460   13.4450 C.3   701  0K0701      0.0206
     16  C19        3.1330    5.4050   11.0290 C.3   701  0K0701      0.0206
     17  C21        1.8000    6.1630   11.0190 C.3   701  0K0701      0.0888
     18  N22        1.4660    6.6540   12.3710 N.3   701  0K0701     -0.2180
     19  O26        0.4130    1.6000   11.2630 O.2   701  0K0701     -0.1528
     20  C27       -1.3290    3.1870   12.5510 C.3   701  0K0701      0.2016
     21  O28       -1.6070    2.0940   10.1510 O.2   701  0K0701     -0.1528
     22  S25       -1.0030    1.8100   11.4370 S.O2  701  0K0701      0.0750
     23  N24       -1.7250    0.5080   12.1270 N.pl3 701  0K0701     -0.1006
     24  N9         2.7420    0.1530   14.2040 N.2   701  0K0701     -0.3896
     25  N23        6.0840   -0.1510   15.6830 N.pl3 701  0K0701      0.2190
     26  C13        4.6450    1.5490   13.6920 C.2   701  0K0701      0.3023
     27  N15        3.8220    2.1360   12.7660 N.am  701  0K0701     -0.1993
     28  C20        1.5450    5.6930   13.4980 C.3   701  0K0701      0.0888
@<TRIPOS>BOND
     1    21    22    2
     2    17    16    1
     3    17    18    1
     4    16    14    1
     5    19    22    2
     6    22    23    1
     7    22    20    1
     8    13    14    1
     9    13    27    1
    10    14    15    1
    11    23     4    1
    12    18    28    1
    13    27    26   am
    14     4     2   ar
    15     4     6   ar
    16    15    28    1
    17     2     1   ar
    18    26    12    2
    19    26    10    1
    20     6     5   ar
    21    24    10    2
    22    24     7    2
    23    10    11    1
    24     1     7    1
    25     1     3   ar
    26     5     3   ar
    27     7     8    1
    28    11    25    1
    29    11     9    2
    30     8     9    1
