@<TRIPOS>MOLECULE
4dfm_0L6_A_1.pdb
 34 35 0 0 0
SMALL
GASTEIGER

@<TRIPOS>ATOM
      1  O2        18.0500  -21.1180   -5.6680 O.2   901  0L6901     -0.1925
      2  C2        18.4440  -19.9440   -5.8620 C.1   901  0L6901      0.2756
      3  N3        18.5620  -19.0900   -4.8420 N.2   901  0L6901     -0.3017
      4  C4        18.9850  -17.8400   -5.0390 C.2   901  0L6901      0.2421
      5  N4        19.0980  -16.9920   -3.9860 N.pl3 901  0L6901     -0.0914
      6  C5        19.2980  -17.3990   -6.2920 C.2   901  0L6901      0.1051
      7  C29       19.7110  -16.1860   -6.4010 C.1   901  0L6901     -0.0590
      8  C30       20.0870  -15.0810   -6.5010 C.1   901  0L6901     -0.0862
      9  C31       20.4950  -13.6630   -6.6070 C.3   901  0L6901      0.0779
     10  C32       21.4480  -13.3480   -5.4410 C.3   901  0L6901      0.0345
     11  C33       22.6520  -14.2950   -5.4440 C.3   901  0L6901      0.1103
     12  N34       23.1440  -14.4720   -4.0910 N.3   901  0L6901     -0.1314
     13  C6        19.1980  -18.2680   -7.3960 C.2   901  0L6901      0.0916
     14  N1        18.7690  -19.5240   -7.1710 N.am  901  0L6901     -0.1796
     15  C1'       18.6150  -20.4860   -8.2680 C.3   901  0L6901      0.2090
     16  O4'       19.4670  -20.1900   -9.3850 O.3   901  0L6901     -0.3339
     17  C2'       17.1820  -20.3280   -8.7640 C.3   901  0L6901      0.0874
     18  C3'       17.3480  -19.4560  -10.0000 C.3   901  0L6901      0.1857
     19  O3'       16.2690  -19.6230  -10.9240 O.3   901  0L6901     -0.2203
     20  C4'       18.6810  -19.9300  -10.5540 C.3   901  0L6901      0.1773
     21  C5'       19.3470  -18.9250  -11.4930 C.3   901  0L6901      0.1812
     22  O5'       19.6520  -17.7230  -10.7930 O.3   901  0L6901     -0.3112
     23  PA        19.4270  -16.3050  -11.5160 P.3   901  0L6901      0.2189
     24  O1A       20.1720  -15.2570  -10.7200 O.3   901  0L6901     -0.4371
     25  O2A       19.6940  -16.3880  -13.0090 O.2   901  0L6901     -0.5170
     26  O3A       17.8540  -16.1130  -11.1880 O.3   901  0L6901     -0.2700
     27  PB        16.6480  -16.3710  -12.2300 P.3   901  0L6901      0.2277
     28  O1B       17.1380  -17.1200  -13.4540 O.2   901  0L6901     -0.5168
     29  O2B       15.5250  -16.9900  -11.4290 O.3   901  0L6901     -0.4368
     30  O3B       16.1680  -14.8650  -12.5870 O.3   901  0L6901     -0.2258
     31  PG        16.7210  -13.9600  -13.8110 P.3   901  0L6901      0.5373
     32  O1G       17.2800  -12.7330  -13.1240 O.3   901  0L6901     -0.1143
     33  O2G       17.7740  -14.7960  -14.5060 O.3   901  0L6901     -0.1143
     34  O3G       15.4890  -13.6520  -14.6270 O.2   901  0L6901     -0.2221
@<TRIPOS>BOND
     1    34    31    2
     2    33    31    1
     3    31    32    1
     4    31    30    1
     5    28    27    2
     6    25    23    2
     7    30    27    1
     8    27    29    1
     9    27    26    1
    10    23    26    1
    11    23    22    1
    12    23    24    1
    13    21    22    1
    14    21    20    1
    15    19    18    1
    16    20    18    1
    17    20    16    1
    18    18    17    1
    19    16    15    1
    20    17    15    1
    21    15    14    1
    22    13    14    1
    23    13     6    2
    24    14     2   am
    25     9     8    1
    26     9    10    1
    27     8     7    3
    28     7     6    1
    29     6     4    1
    30     2     1    2
    31     2     3    2
    32    11    10    1
    33    11    12    1
    34     4     3    2
    35     4     5    1
