@<TRIPOS>MOLECULE
4dfn_0K1_A_1.pdb
 33 38 0 0 0
SMALL
GASTEIGER

@<TRIPOS>ATOM
      1  C1         0.7110   -1.1710   14.4680 C.ar  701  0K1701      0.0298
      2  C2        -0.0170   -0.2230   13.7530 C.ar  701  0K1701      0.0025
      3  C3         0.0500   -2.3280   14.8850 C.ar  701  0K1701      0.0024
      4  C4        -1.3630   -0.4290   13.4370 C.ar  701  0K1701      0.0031
      5  C5        -1.2850   -2.5360   14.5780 C.ar  701  0K1701      0.0001
      6  C6        -1.9960   -1.5910   13.8590 C.ar  701  0K1701      0.0001
      7  C7         4.8310   -0.2720   15.3800 C.2   701  0K1701      0.4450
      8  C8         4.1200    0.5070   14.4820 C.2   701  0K1701      0.2756
      9  N10        2.7940    0.1920   14.2170 N.2   701  0K1701     -0.3896
     10  C11        2.8950   -1.6720   15.6890 C.3   701  0K1701      0.3216
     11  C12        2.1560   -0.8990   14.7960 C.2   701  0K1701      0.1629
     12  N13        6.1690    0.0200   15.6840 N.pl3 701  0K1701      0.2190
     13  C17       -2.1220    0.5950   12.6830 C.ar  701  0K1701      0.0396
     14  C18       -1.6260    1.6600   11.9790 C.ar  701  0K1701      0.0967
     15  C19       -3.4860    0.7130   12.5600 C.ar  701  0K1701      0.1216
     16  C23        4.1350    3.6590   12.1810 C.3   701  0K1701      0.0958
     17  C24        3.6870    4.8710   13.0200 C.3   701  0K1701      0.0225
     18  C27        3.3290    3.6560   10.8480 C.3   701  0K1701      0.0225
     19  C30        1.3770    4.7410   12.0270 C.3   701  0K1701      0.1267
     20  C31        3.1420    6.1690   10.9290 C.3   701  0K1701      0.0026
     21  C32        1.6360    6.0570   11.2630 C.3   701  0K1701      0.0304
     22  O15        5.8460    2.0550   14.0550 O.2   701  0K1701     -0.2653
     23  C14        4.7170    1.7030   13.8300 C.2   701  0K1701      0.3022
     24  N16        3.9080    2.4270   12.9790 N.am  701  0K1701     -0.2010
     25  C29        3.6130    4.9690   10.0870 C.3   701  0K1701      0.0019
     26  O33       -0.0010    4.5960   12.3520 O.3   701  0K1701     -0.2257
     27  C28        1.8170    3.5830   11.1060 C.3   701  0K1701      0.0321
     28  C25        2.1860    4.7650   13.3350 C.3   701  0K1701      0.0321
     29  C26        3.9230    6.1780   12.2420 C.3   701  0K1701      0.0019
     30  N9         4.2150   -1.3560   15.9790 N.2   701  0K1701     -0.0478
     31  N21       -3.7580    1.7910   11.7990 N.ar  701  0K1701     -0.1676
     32  N20       -2.6720    2.3350   11.4750 N.ar  701  0K1701     -0.2473
     33  C22       -2.5610    3.5420   10.6510 C.3   701  0K1701      0.1538
@<TRIPOS>BOND
     1    25    18    1
     2    25    20    1
     3    33    32    1
     4    18    27    1
     5    18    16    1
     6    20    21    1
     7    20    29    1
     8    27    19    1
     9    21    19    1
    10    32    31   ar
    11    32    14   ar
    12    31    15   ar
    13    14    13   ar
    14    19    26    1
    15    19    28    1
    16    16    24    1
    17    16    17    1
    18    29    17    1
    19    15    13   ar
    20    13     4    1
    21    24    23   am
    22    17    28    1
    23     4     2   ar
    24     4     6   ar
    25     2     1   ar
    26    23    22    2
    27    23     8    1
    28     6     5   ar
    29     9     8    2
    30     9    11    2
    31     1    11    1
    32     1     3   ar
    33     8     7    1
    34     5     3   ar
    35    11    10    1
    36     7    12    1
    37     7    30    2
    38    10    30    1
