@<TRIPOS>MOLECULE
4dfp_0L7_A_1.pdb
 37 39 0 0 0
SMALL
GASTEIGER

@<TRIPOS>ATOM
      1  O6        19.0740  -17.5330   -3.3550 O.2   908  0L7908     -0.2084
      2  C6        18.7920  -18.5480   -4.0300 C.1   908  0L7908      0.2199
      3  N1        18.2470  -19.6340   -3.4400 N.2   908  0L7908     -0.2500
      4  C2        17.9370  -20.7380   -4.1600 C.1   908  0L7908      0.2530
      5  N2        17.3910  -21.8130   -3.5460 N.pl3 908  0L7908     -0.0226
      6  N3        18.1650  -20.7870   -5.4890 N.2   908  0L7908     -0.3090
      7  C5        19.0220  -18.5840   -5.4010 C.2   908  0L7908      0.1454
      8  C4        18.7090  -19.7260   -6.1290 C.2   908  0L7908      0.2114
      9  C7        19.5530  -17.7460   -6.3550 C.2   908  0L7908      0.0552
     10  C32       19.9970  -16.5020   -6.1600 C.1   908  0L7908     -0.0661
     11  C33       20.3930  -15.4030   -5.9870 C.1   908  0L7908     -0.0866
     12  C34       20.8470  -14.0100   -5.8360 C.3   908  0L7908      0.0779
     13  C35       20.3630  -13.3840   -4.5270 C.3   908  0L7908      0.0345
     14  C36       21.0760  -13.9810   -3.3190 C.3   908  0L7908      0.1103
     15  N37       20.4160  -15.2060   -2.9110 N.3   908  0L7908     -0.1314
     16  C8        19.5460  -18.3090   -7.6080 C.3   908  0L7908      0.1311
     17  N9        19.0380  -19.5400   -7.4220 N.pl3 908  0L7908     -0.2554
     18  C1'       18.8120  -20.5320   -8.4980 C.3   908  0L7908      0.1969
     19  C2'       17.3930  -20.2870   -8.9800 C.3   908  0L7908      0.0864
     20  C3'       17.5630  -19.6040  -10.3200 C.3   908  0L7908      0.1857
     21  O3'       16.5230  -20.0070  -11.2130 O.3   908  0L7908     -0.2203
     22  O4'       19.6930  -20.2820   -9.5950 O.3   908  0L7908     -0.3348
     23  C4'       18.9320  -20.0730  -10.7880 C.3   908  0L7908      0.1772
     24  C5'       19.6220  -19.0450  -11.6750 C.3   908  0L7908      0.1812
     25  O5'       19.8810  -17.8790  -10.9010 O.3   908  0L7908     -0.3112
     26  PA        19.6150  -16.4150  -11.5060 P.3   908  0L7908      0.2189
     27  O1A       20.3780  -15.4160  -10.6700 O.3   908  0L7908     -0.4371
     28  O2A       19.7540  -16.3990  -13.0110 O.2   908  0L7908     -0.5170
     29  O3A       18.0670  -16.2720  -11.1020 O.3   908  0L7908     -0.2700
     30  PB        16.8910  -16.3710  -12.1930 P.3   908  0L7908      0.2277
     31  O1B       17.4030  -17.0730  -13.4300 O.2   908  0L7908     -0.5168
     32  O2B       15.6890  -16.9340  -11.4680 O.3   908  0L7908     -0.4368
     33  O3B       16.6460  -14.8010  -12.4630 O.3   908  0L7908     -0.2258
     34  PG        16.9740  -14.0900  -13.8710 P.3   908  0L7908      0.5373
     35  O3G       15.6670  -14.1490  -14.6210 O.2   908  0L7908     -0.2221
     36  O2G       17.3950  -12.7000  -13.4540 O.3   908  0L7908     -0.1143
     37  O1G       18.0930  -14.9140  -14.4690 O.3   908  0L7908     -0.1143
@<TRIPOS>BOND
     1    35    34    2
     2    37    34    1
     3    34    36    1
     4    34    33    1
     5    31    30    2
     6    28    26    2
     7    33    30    1
     8    30    32    1
     9    30    29    1
    10    24    25    1
    11    24    23    1
    12    26    29    1
    13    26    25    1
    14    26    27    1
    15    21    20    1
    16    23    20    1
    17    23    22    1
    18    20    19    1
    19    22    18    1
    20    19    18    1
    21    18    17    1
    22    16    17    1
    23    16     9    1
    24    17     8    1
    25     9    10    1
    26     9     7    2
    27    10    11    3
    28     8     6    2
    29     8     7    1
    30    11    12    1
    31    12    13    1
    32     6     4    2
    33     7     2    1
    34    13    14    1
    35     4     5    1
    36     4     3    2
    37     2     3    2
    38     2     1    2
    39    14    15    1
