@<TRIPOS>MOLECULE
4dfr_MTX_A_1.pdb
 33 35 0 0 0
SMALL
GASTEIGER

@<TRIPOS>ATOM
      1  N1        22.9830   58.6670   24.4880 N.2   161  MTX161     -0.2684
      2  C2        23.4680   58.2150   23.2820 C.1   161  MTX161      0.2519
      3  NA2       24.7970   58.2230   23.2080 N.pl3 161  MTX161     -0.0226
      4  N3        22.7920   57.8190   22.2300 N.2   161  MTX161     -0.3033
      5  C4        21.4590   57.8030   22.0680 C.2   161  MTX161      0.2728
      6  NA4       20.8210   57.4400   21.0750 N.pl3 161  MTX161     -0.0887
      7  C4A       20.9000   58.3040   23.3630 C.2   161  MTX161      0.2518
      8  N5        19.5580   58.5140   23.3700 N.2   161  MTX161     -0.3917
      9  C6        18.9890   58.9820   24.4220 C.2   161  MTX161      0.1330
     10  C7        19.7810   59.2560   25.6280 C.3   161  MTX161      0.1930
     11  N8        21.0960   59.1760   25.5620 N.2   161  MTX161     -0.1998
     12  C8A       21.6080   58.5940   24.3630 C.1   161  MTX161      0.1314
     13  C9        17.4650   59.0060   24.4510 C.3   161  MTX161      0.1481
     14  N10       16.9570   59.9670   25.5330 N.pl3 161  MTX161     -0.2999
     15  CM        16.2250   59.1840   26.6430 C.3   161  MTX161      0.1125
     16  C11       18.1220   64.1000   25.8050 C.ar  161  MTX161      0.0551
     17  C12       17.2880   63.5110   26.7320 C.ar  161  MTX161      0.0058
     18  C13       16.8450   62.1950   26.6880 C.ar  161  MTX161      0.0147
     19  C14       17.3200   61.4520   25.6800 C.ar  161  MTX161      0.0482
     20  C15       18.1410   62.0980   24.6720 C.ar  161  MTX161      0.0147
     21  C16       18.5180   63.4140   24.7380 C.ar  161  MTX161      0.0058
     22  C         18.1920   65.6260   25.8340 C.2   161  MTX161      0.2652
     23  O         17.5160   66.2800   26.7830 O.2   161  MTX161     -0.2684
     24  N         19.3290   65.9810   25.1350 N.am  161  MTX161     -0.1918
     25  CA        19.8370   67.4590   25.1350 C.3   161  MTX161      0.1986
     26  CT        20.1590   67.5480   23.6350 C.2   161  MTX161      0.3842
     27  O1        20.2890   66.6590   22.8480 O.co2 161  MTX161     -0.2437
     28  O2        19.9210   68.7500   23.1490 O.co2 161  MTX161     -0.2437
     29  CB        21.2170   67.6690   25.7610 C.3   161  MTX161      0.0451
     30  CG        20.8910   67.6360   27.3200 C.3   161  MTX161      0.1164
     31  CD        19.9210   68.5240   28.3570 C.2   161  MTX161      0.3649
     32  OE1       19.4130   68.3710   29.5930 O.co2 161  MTX161     -0.2457
     33  OE2       19.4410   69.4690   27.4890 O.co2 161  MTX161     -0.2457
@<TRIPOS>BOND
     1     6     5    1
     2     5     4    2
     3     5     7    1
     4     4     2    2
     5    27    26   ar
     6    28    26   ar
     7     3     2    1
     8     2     1    2
     9     7     8    2
    10     7    12    1
    11     8     9    2
    12    26    25    1
    13    12     1    2
    14    12    11    2
    15     9    13    1
    16     9    10    1
    17    13    14    1
    18    20    21   ar
    19    20    19   ar
    20    21    16   ar
    21    25    24    1
    22    25    29    1
    23    24    22   am
    24    14    19    1
    25    14    15    1
    26    11    10    1
    27    19    18   ar
    28    29    30    1
    29    16    22    1
    30    16    17   ar
    31    22    23    2
    32    18    17   ar
    33    30    31    1
    34    33    31   ar
    35    31    32   ar
