@<TRIPOS>MOLECULE
4dfu_KAN_A_1.pdb
 33 35 0 0 0
SMALL
GASTEIGER

@<TRIPOS>ATOM
      1  C1        -3.8680    8.2650  -41.6430 C.3   401  KAN401      0.2695
      2  C2        -3.0030    7.2520  -42.4070 C.3   401  KAN401      0.2406
      3  C3        -2.8640    7.6820  -43.8640 C.3   401  KAN401      0.2198
      4  C4        -4.2660    7.7460  -44.4450 C.3   401  KAN401      0.2133
      5  C5        -5.0920    8.7590  -43.6520 C.3   401  KAN401      0.1696
      6  C6        -6.5340    8.8290  -44.1660 C.3   401  KAN401      0.1415
      7  C7        -3.3300   12.9710  -39.0090 C.3   401  KAN401      0.1231
      8  C8        -4.3550   11.8640  -38.7450 C.3   401  KAN401      0.1680
      9  C9        -3.8340   10.5830  -39.4400 C.3   401  KAN401      0.2088
     10  C10       -3.7020   10.7370  -40.9790 C.3   401  KAN401      0.1680
     11  C11       -2.7010   11.8700  -41.2250 C.3   401  KAN401      0.1231
     12  C12       -3.1760   13.1330  -40.5260 C.3   401  KAN401      0.0432
     13  C13       -5.7260   11.2930  -36.7690 C.3   401  KAN401      0.2684
     14  C14       -5.7320   11.7880  -35.3100 C.3   401  KAN401      0.2279
     15  C15       -4.6200   11.1980  -34.4790 C.3   401  KAN401      0.1599
     16  C16       -4.8300    9.6910  -34.4840 C.3   401  KAN401      0.2017
     17  C17       -4.7720    9.2240  -35.9360 C.3   401  KAN401      0.1824
     18  C18       -5.0310    7.7380  -35.9450 C.3   401  KAN401      0.2142
     19  N1        -7.2640    9.8170  -43.3580 N.3   401  KAN401     -0.1286
     20  N2        -2.6180   12.1330  -42.6680 N.3   401  KAN401     -0.1302
     21  N3        -3.7310   14.2290  -38.3340 N.3   401  KAN401     -0.1302
     22  N4        -4.7150   11.7490  -33.1170 N.3   401  KAN401     -0.1272
     23  O5        -5.1580    8.3500  -42.2650 O.3   401  KAN401     -0.3268
     24  O6        -1.7290    7.1620  -41.7750 O.3   401  KAN401     -0.2149
     25  O7        -2.0940    6.7270  -44.5850 O.3   401  KAN401     -0.2174
     26  O8        -4.1910    8.1390  -45.8200 O.3   401  KAN401     -0.2176
     27  O9        -3.2020    9.5460  -41.6720 O.3   401  KAN401     -0.3269
     28  O10       -4.7400    9.5160  -39.1420 O.3   401  KAN401     -0.2178
     29  O11       -4.4860   11.7590  -37.3030 O.3   401  KAN401     -0.3269
     30  O12       -5.8070    9.8600  -36.7380 O.3   401  KAN401     -0.3257
     31  O13       -5.6350   13.2090  -35.3660 O.3   401  KAN401     -0.2161
     32  O14       -3.8380    9.0340  -33.6860 O.3   401  KAN401     -0.2188
     33  O15       -4.9770    7.3090  -37.2980 O.3   401  KAN401     -0.2176
@<TRIPOS>BOND
     1    26     4    1
     2    25     3    1
     3     4     3    1
     4     4     5    1
     5     6     5    1
     6     6    19    1
     7     3     2    1
     8     5    23    1
     9    20    11    1
    10     2    24    1
    11     2     1    1
    12    23     1    1
    13    27     1    1
    14    27    10    1
    15    11    10    1
    16    11    12    1
    17    10     9    1
    18    12     7    1
    19     9    28    1
    20     9     8    1
    21     7     8    1
    22     7    21    1
    23     8    29    1
    24    29    13    1
    25    33    18    1
    26    13    30    1
    27    13    14    1
    28    30    17    1
    29    18    17    1
    30    17    16    1
    31    31    14    1
    32    14    15    1
    33    16    15    1
    34    16    32    1
    35    15    22    1
