@<TRIPOS>MOLECULE
4dfu_QUE_A_1.pdb
 22 24 0 0 0
SMALL
GASTEIGER

@<TRIPOS>ATOM
      1  C1        -4.8260   24.5190  -29.3880 C.ar  402  QUE402      0.0843
      2  C2        -4.7970   25.8050  -29.9150 C.ar  402  QUE402      0.2046
      3  C3        -5.4160   26.0650  -31.1390 C.ar  402  QUE402      0.1103
      4  C4        -5.9110   25.0020  -31.8690 C.ar  402  QUE402      0.1481
      5  C5        -6.0090   23.7270  -31.3340 C.ar  402  QUE402      0.0792
      6  C6        -5.4260   23.4820  -30.1000 C.ar  402  QUE402      0.2020
      7  C9        -5.3480   27.3400  -31.7240 C.2   402  QUE402      0.2132
      8  C10       -5.7730   27.5840  -33.0330 C.3   402  QUE402      0.2568
      9  C11       -6.2330   26.4810  -33.7400 C.3   402  QUE402      0.2259
     10  C14       -6.6490   26.3630  -35.0640 C.ar  402  QUE402      0.0236
     11  C15       -7.0100   25.1010  -35.5360 C.ar  402  QUE402      0.0028
     12  C16       -7.4680   24.9310  -36.8450 C.ar  402  QUE402      0.0452
     13  C17       -7.6260   26.0420  -37.6700 C.ar  402  QUE402      0.2342
     14  C18       -7.3080   27.3130  -37.1930 C.ar  402  QUE402      0.2341
     15  C19       -6.8350   27.4780  -35.8880 C.ar  402  QUE402      0.0447
     16  O12       -6.5090   25.4110  -32.9780 O.3   402  QUE402     -0.4713
     17  O13       -4.8970   28.2580  -31.0600 O.2   402  QUE402     -0.2883
     18  O23       -7.4660   28.3960  -38.0110 O.3   402  QUE402     -0.2832
     19  O24       -8.0940   25.8970  -38.9430 O.3   402  QUE402     -0.2831
     20  O27       -5.6690   28.8200  -33.5720 O.3   402  QUE402     -0.2104
     21  O29       -5.4250   22.2210  -29.5840 O.3   402  QUE402     -0.2864
     22  O30       -4.2070   26.8060  -29.2110 O.3   402  QUE402     -0.2863
@<TRIPOS>BOND
     1    19    13    1
     2    18    14    1
     3    13    14   ar
     4    13    12   ar
     5    14    15   ar
     6    12    11   ar
     7    15    10   ar
     8    11    10   ar
     9    10     9    1
    10     9     8    1
    11     9    16    1
    12    20     8    1
    13     8     7    1
    14    16     4    1
    15     4     5   ar
    16     4     3   ar
    17     7     3    1
    18     7    17    2
    19     5     6   ar
    20     3     2   ar
    21     6    21    1
    22     6     1   ar
    23     2     1   ar
    24     2    22    1
