@<TRIPOS>MOLECULE
4dfx_ANP_E_1.pdb
 31 33 0 0 0
SMALL
GASTEIGER

@<TRIPOS>ATOM
      1  PG         1.1250    2.5000  -21.1120 P.3   402  ANP402      0.4884
      2  O1G        2.4340    1.8090  -21.4230 O.3   402  ANP402     -0.1240
      3  O2G       -0.0140    2.0610  -22.0370 O.2   402  ANP402     -0.2331
      4  O3G        1.2690    4.0140  -21.0650 O.3   402  ANP402     -0.1240
      5  PB         0.4380    2.9370  -18.2220 P.3   402  ANP402      0.4669
      6  O1B        0.0340    4.3320  -18.5730 O.2   402  ANP402     -0.2351
      7  O2B        1.6000    2.7640  -17.2850 O.3   402  ANP402     -0.1253
      8  N3B        0.6140    2.0500  -19.5910 N.3   402  ANP402     -0.0163
      9  PA        -2.3470    2.1000  -17.8030 P.3   402  ANP402      0.2220
     10  O1A       -3.1080    3.2530  -17.2610 O.3   402  ANP402     -0.4370
     11  O2A       -2.5100    1.7260  -19.2350 O.2   402  ANP402     -0.5170
     12  O3A       -0.7830    2.2570  -17.4230 O.3   402  ANP402     -0.2360
     13  O5'       -2.7370    0.8570  -16.8870 O.3   402  ANP402     -0.3111
     14  C5'       -1.9730   -0.3340  -17.0740 C.3   402  ANP402      0.1813
     15  C4'       -2.8890   -1.5390  -17.2100 C.3   402  ANP402      0.1821
     16  O4'       -3.6270   -1.6990  -15.9900 O.3   402  ANP402     -0.3135
     17  C3'       -3.9360   -1.4770  -18.3190 C.3   402  ANP402      0.2184
     18  O3'       -3.3710   -1.8340  -19.5900 O.3   402  ANP402     -0.2174
     19  C2'       -4.9530   -2.4830  -17.7950 C.3   402  ANP402      0.2570
     20  O2'       -4.4900   -3.8260  -17.9600 O.3   402  ANP402     -0.2130
     21  C1'       -4.9150   -2.2250  -16.3030 C.3   402  ANP402      0.3186
     22  N9        -5.8980   -1.2230  -15.8690 N.pl3 402  ANP402     -0.1439
     23  C8        -5.7910    0.1260  -15.9420 C.3   402  ANP402      0.3377
     24  N7        -6.8890    0.7320  -15.4370 N.2   402  ANP402     -0.2095
     25  C5        -7.7030   -0.2660  -15.0190 C.2   402  ANP402      0.2526
     26  C6        -9.0130   -0.3330  -14.3800 C.2   402  ANP402      0.4393
     27  N6        -9.7090    0.7840  -14.0790 N.pl3 402  ANP402      0.2180
     28  N1        -9.5090   -1.5590  -14.1260 N.2   402  ANP402      0.0021
     29  C2        -8.8550   -2.6970  -14.4220 C.3   402  ANP402      0.5254
     30  N3        -7.6360   -2.7280  -14.9880 N.2   402  ANP402     -0.0055
     31  C4        -7.0530   -1.5400  -15.2900 C.2   402  ANP402      0.3518
@<TRIPOS>BOND
     1     3     1    2
     2     2     1    1
     3     1     4    1
     4     1     8    1
     5     8     5    1
     6    18    17    1
     7    11     9    2
     8     6     5    2
     9    17    19    1
    10    17    15    1
    11     5    12    1
    12     5     7    1
    13    20    19    1
    14     9    12    1
    15     9    10    1
    16     9    13    1
    17    19    21    1
    18    15    14    1
    19    15    16    1
    20    14    13    1
    21    21    16    1
    22    21    22    1
    23    23    22    1
    24    23    24    1
    25    22    31    1
    26    24    25    2
    27    31    25    1
    28    31    30    2
    29    25    26    1
    30    30    29    1
    31    29    28    1
    32    26    28    2
    33    26    27    1
