@<TRIPOS>MOLECULE
4dg0_ANP_E_1.pdb
 31 33 0 0 0
SMALL
GASTEIGER

@<TRIPOS>ATOM
      1  PG        -1.2980  -10.8440   16.4250 P.3   402  ANP402      0.4884
      2  O1G        0.0080  -10.0860   16.3480 O.3   402  ANP402     -0.1240
      3  O2G       -2.0690  -10.5100   17.6810 O.3   402  ANP402     -0.1240
      4  O3G       -1.1270  -12.3260   16.1940 O.2   402  ANP402     -0.2331
      5  PB        -2.6900  -11.0910   13.9010 P.3   402  ANP402      0.4669
      6  O1B       -3.0430  -12.5080   14.2790 O.3   402  ANP402     -0.1253
      7  O2B       -1.6460  -10.8930   12.8310 O.2   402  ANP402     -0.2351
      8  N3B       -2.2300  -10.2650   15.2210 N.3   402  ANP402     -0.0163
      9  PA        -5.4220  -10.2680   14.0520 P.3   402  ANP402      0.2220
     10  O1A       -6.3260  -11.4350   13.7260 O.2   402  ANP402     -0.5170
     11  O2A       -5.1510   -9.8800   15.4850 O.3   402  ANP402     -0.4370
     12  O3A       -4.0240  -10.4510   13.2660 O.3   402  ANP402     -0.2360
     13  O5'       -5.9940   -8.9610   13.3110 O.3   402  ANP402     -0.3111
     14  C5'       -5.1560   -7.8110   13.2070 C.3   402  ANP402      0.1813
     15  C4'       -5.9430   -6.5460   13.5190 C.3   402  ANP402      0.1821
     16  O4'       -6.9700   -6.3400   12.5420 O.3   402  ANP402     -0.3135
     17  C3'       -6.6560   -6.5890   14.8640 C.3   402  ANP402      0.2184
     18  O3'       -5.8110   -6.1630   15.9370 O.3   402  ANP402     -0.2174
     19  C2'       -7.8300   -5.6570   14.6360 C.3   402  ANP402      0.2570
     20  O2'       -7.4320   -4.2980   14.8320 O.3   402  ANP402     -0.2130
     21  C1'       -8.1540   -5.8290   13.1630 C.3   402  ANP402      0.3186
     22  N9        -9.2680   -6.7970   12.9760 N.pl3 402  ANP402     -0.1439
     23  C8        -9.1600   -8.1410   13.0270 C.3   402  ANP402      0.3377
     24  N7       -10.3520   -8.7460   12.8160 N.2   402  ANP402     -0.2095
     25  C5       -11.2570   -7.7730   12.6130 C.2   402  ANP402      0.2526
     26  C6       -12.7130   -7.7180   12.3370 C.2   402  ANP402      0.4393
     27  N6       -13.4350   -8.8560   12.2240 N.pl3 402  ANP402      0.2180
     28  N1       -13.2850   -6.4980   12.1970 N.2   402  ANP402      0.0021
     29  C2       -12.5680   -5.3600   12.3080 C.3   402  ANP402      0.5254
     30  N3       -11.2430   -5.3350   12.5620 N.2   402  ANP402     -0.0055
     31  C4       -10.5420   -6.4880   12.7220 C.2   402  ANP402      0.3518
@<TRIPOS>BOND
     1    28    29    1
     2    28    26    2
     3    27    26    1
     4    29    30    1
     5    26    25    1
     6    16    21    1
     7    16    15    1
     8    30    31    2
     9    25    31    1
    10    25    24    2
    11    31    22    1
    12    24    23    1
    13     7     5    2
    14    22    23    1
    15    22    21    1
    16    21    19    1
    17    14    13    1
    18    14    15    1
    19    12     5    1
    20    12     9    1
    21    13     9    1
    22    15    17    1
    23    10     9    2
    24     5     6    1
    25     5     8    1
    26     9    11    1
    27    19    20    1
    28    19    17    1
    29    17    18    1
    30     8     1    1
    31     4     1    2
    32     2     1    1
    33     1     3    1
