@<TRIPOS>MOLECULE
4dg3_ANP_E_1.pdb
 31 33 0 0 0
SMALL
GASTEIGER

@<TRIPOS>ATOM
      1  PG       -20.2670    7.8660   -0.4140 P.3   401  ANP401      0.4884
      2  O1G      -18.9680    8.1510    0.2680 O.3   401  ANP401     -0.1240
      3  O2G      -20.8570    6.4610    0.0470 O.3   401  ANP401     -0.1240
      4  O3G      -20.1780    7.9920   -1.9890 O.2   401  ANP401     -0.2331
      5  PB       -22.1310   10.2360   -0.8480 P.3   401  ANP401      0.4669
      6  O1B      -22.3130    9.8330   -2.2470 O.2   401  ANP401     -0.2351
      7  O2B      -21.2790   11.5790   -0.7440 O.3   401  ANP401     -0.1253
      8  N3B      -21.4040    9.0400    0.1800 N.3   401  ANP401     -0.0163
      9  PA       -24.7990    9.5760    0.0550 P.3   401  ANP401      0.2220
     10  O1A      -25.7150    9.7730   -1.1260 O.2   401  ANP401     -0.5170
     11  O2A      -24.3760    8.2160    0.5020 O.3   401  ANP401     -0.4370
     12  O3A      -23.5530   10.5690   -0.1500 O.3   401  ANP401     -0.2360
     13  O5'      -25.4730   10.2850    1.3370 O.3   401  ANP401     -0.3111
     14  C5'      -24.6250   10.4090    2.4820 C.3   401  ANP401      0.1813
     15  C4'      -25.3660    9.9750    3.7290 C.3   401  ANP401      0.1821
     16  O4'      -26.5300   10.7910    3.8980 O.3   401  ANP401     -0.3135
     17  C3'      -25.8810    8.5440    3.7030 C.3   401  ANP401      0.2184
     18  O3'      -24.8930    7.5830    4.0870 O.3   401  ANP401     -0.2174
     19  C2'      -27.0120    8.6200    4.7070 C.3   401  ANP401      0.2570
     20  O2'      -26.4990    8.6520    6.0460 O.3   401  ANP401     -0.2130
     21  C1'      -27.5840   10.0040    4.4540 C.3   401  ANP401      0.3186
     22  N9       -28.6910    9.9870    3.4600 N.pl3 401  ANP401     -0.1439
     23  C8       -28.5840    9.9430    2.1120 C.3   401  ANP401      0.3377
     24  N7       -29.8140    9.9700    1.5160 N.2   401  ANP401     -0.2095
     25  C5       -30.7270   10.0530    2.5150 C.2   401  ANP401      0.2526
     26  C6       -32.2050   10.1160    2.6100 C.2   401  ANP401      0.4393
     27  N6       -32.9620   10.1100    1.4850 N.pl3 401  ANP401      0.2180
     28  N1       -32.7660   10.1740    3.8500 N.2   401  ANP401      0.0021
     29  C2       -32.0180   10.1920    4.9820 C.3   401  ANP401      0.5254
     30  N3       -30.6660   10.1380    4.9720 N.2   401  ANP401     -0.0055
     31  C4       -29.9830   10.0680    3.7910 C.2   401  ANP401      0.3518
@<TRIPOS>BOND
     1     6     5    2
     2     4     1    2
     3    10     9    2
     4     5     7    1
     5     5    12    1
     6     5     8    1
     7     1     3    1
     8     1     8    1
     9     1     2    1
    10    12     9    1
    11     9    11    1
    12     9    13    1
    13    13    14    1
    14    27    26    1
    15    24    23    1
    16    24    25    2
    17    23    22    1
    18    14    15    1
    19    25    26    1
    20    25    31    1
    21    26    28    2
    22    22    31    1
    23    22    21    1
    24    17    15    1
    25    17    18    1
    26    17    19    1
    27    15    16    1
    28    31    30    2
    29    28    29    1
    30    16    21    1
    31    21    19    1
    32    19    20    1
    33    30    29    1
