@<TRIPOS>MOLECULE
4dg8_AMP_A_1.pdb
 23 25 0 0 0
SMALL
GASTEIGER

@<TRIPOS>ATOM
      1  P          0.7490   26.5590   18.3140 P.3   701  AMP701      0.5327
      2  O1P        0.3910   25.5190   17.2740 O.2   701  AMP701     -0.2224
      3  O2P        0.6230   26.1890   19.7860 O.3   701  AMP701     -0.1145
      4  O3P        2.1620   27.0150   18.0000 O.3   701  AMP701     -0.1145
      5  O5'       -0.0710   27.8920   18.0370 O.3   701  AMP701     -0.2675
      6  C5'        0.2600   29.0920   18.7080 C.3   701  AMP701      0.1860
      7  C4'       -0.6780   30.2090   18.3420 C.3   701  AMP701      0.1823
      8  O4'       -2.0480   29.8250   18.6330 O.3   701  AMP701     -0.3135
      9  C3'       -0.4840   31.5060   19.1060 C.3   701  AMP701      0.2184
     10  O3'        0.5830   32.2940   18.5900 O.3   701  AMP701     -0.2174
     11  C2'       -1.8510   32.1660   18.9920 C.3   701  AMP701      0.2570
     12  O2'       -2.0070   32.7680   17.7120 O.3   701  AMP701     -0.2130
     13  C1'       -2.7820   30.9530   19.0750 C.3   701  AMP701      0.3186
     14  N9        -3.2430   30.7000   20.4600 N.pl3 701  AMP701     -0.1439
     15  C8        -2.7420   29.7410   21.2750 C.3   701  AMP701      0.3377
     16  N7        -3.3550   29.7420   22.4840 N.2   701  AMP701     -0.2095
     17  C5        -4.2690   30.7240   22.4770 C.2   701  AMP701      0.2526
     18  C6        -5.2630   31.2670   23.4430 C.2   701  AMP701      0.4393
     19  N6        -5.3900   30.7490   24.6780 N.pl3 701  AMP701      0.2180
     20  N1        -6.0440   32.3000   23.0430 N.2   701  AMP701      0.0021
     21  C2        -5.9170   32.8160   21.8020 C.3   701  AMP701      0.5254
     22  N3        -5.0400   32.3710   20.8790 N.2   701  AMP701     -0.0055
     23  C4        -4.1990   31.3460   21.1390 C.2   701  AMP701      0.3518
@<TRIPOS>BOND
     1     2     1    2
     2    12    11    1
     3     4     1    1
     4     5     1    1
     5     5     6    1
     6     1     3    1
     7     7     8    1
     8     7     6    1
     9     7     9    1
    10    10     9    1
    11     8    13    1
    12    11    13    1
    13    11     9    1
    14    13    14    1
    15    14    23    1
    16    14    15    1
    17    22    23    2
    18    22    21    1
    19    23    17    1
    20    15    16    1
    21    21    20    1
    22    17    16    2
    23    17    18    1
    24    20    18    2
    25    18    19    1
