@<TRIPOS>MOLECULE
4dg9_DG9_A_1.pdb
 50 52 0 0 0
SMALL
GASTEIGER

@<TRIPOS>ATOM
      1  C         -1.9580  -35.5770   -2.9770 C.3   701  DG9701      0.0905
      2  N         -1.0080  -32.7230   -1.1700 N.3   701  DG9701     -0.0793
      3  S         -0.0770  -33.7290   -1.9830 S.O2  701  DG9701      0.0583
      4  C1        -0.8020  -35.2230   -2.0270 C.3   701  DG9701      0.1827
      5  N1        -8.7280  -30.9490    2.2820 N.2   701  DG9701      0.0021
      6  O1        -0.9500  -32.0210    3.3000 O.3   701  DG9701     -0.2175
      7  C2        -7.8740  -29.9400    2.5270 C.3   701  DG9701      0.5254
      8  N2        -2.4930  -37.6830   -1.8260 N.3   701  DG9701     -0.1320
      9  O2        -2.1420  -29.5980    2.8480 O.3   701  DG9701     -0.2130
     10  C3        -1.2340  -33.0290    0.2290 C.3   701  DG9701      0.1473
     11  N3        -6.5750  -30.0030    2.2030 N.2   701  DG9701     -0.0055
     12  O3        -3.8760  -27.2330  -14.2410 O.3   701  DG9701     -0.1425
     13  C4        -6.0770  -31.1090    1.5930 C.2   701  DG9701      0.3518
     14  C5        -6.9290  -32.1670    1.3250 C.2   701  DG9701      0.2526
     15  C6        -8.2790  -32.0700    1.6810 C.2   701  DG9701      0.4393
     16  N6        -9.1530  -33.0790    1.4400 N.pl3 701  DG9701      0.2180
     17  N7        -6.1770  -33.1230    0.7370 N.2   701  DG9701     -0.2095
     18  C8        -4.9020  -32.6770    0.6410 C.3   701  DG9701      0.3377
     19  N9        -4.8480  -31.4460    1.1580 N.pl3 701  DG9701     -0.1439
     20  CA        -2.9920  -36.2980   -2.0940 C.3   701  DG9701      0.1034
     21  CB        -4.4440  -36.3640   -2.5710 C.3   701  DG9701      0.0185
     22  C1'       -3.6270  -30.6050    1.2480 C.3   701  DG9701      0.3186
     23  S1P       -2.6150  -34.2550   -3.9610 S.3   701  DG9701     -0.1359
     24  C2'       -2.9510  -30.7660    2.6050 C.3   701  DG9701      0.2569
     25  P2A       -4.1540  -27.7420  -15.6530 P.3   701  DG9701      0.3942
     26  C2P       -3.1590  -35.0670   -5.4370 C.3   701  DG9701      0.0810
     27  O2P        0.2770  -33.1890   -3.2590 O.2   701  DG9701     -0.1561
     28  C3'       -2.0720  -31.9840    2.4040 C.3   701  DG9701      0.2174
     29  C3P       -2.1390  -35.0570   -6.5740 C.3   701  DG9701      0.1268
     30  O3P        1.1000  -33.9190   -1.1900 O.2   701  DG9701     -0.1561
     31  C4'       -1.6220  -31.7640    0.9680 C.3   701  DG9701      0.1715
     32  O4'       -2.6920  -31.0880    0.2870 O.3   701  DG9701     -0.3146
     33  O4A       -2.9890  -27.8980  -16.6090 O.3   701  DG9701     -0.1425
     34  N4P       -2.3690  -33.9400   -7.4680 N.am  701  DG9701     -0.2044
     35  C5P       -2.7360  -34.0740   -8.7390 C.2   701  DG9701      0.2432
     36  O5P       -2.9760  -35.1440   -9.2730 O.2   701  DG9701     -0.2733
     37  O6A       -4.9050  -29.1700  -15.5750 O.3   701  DG9701     -0.2952
     38  C6P       -2.8510  -32.7930   -9.5260 C.3   701  DG9701      0.1102
     39  C7P       -4.3050  -32.5950   -9.9300 C.3   701  DG9701      0.1248
     40  N8P       -4.4660  -31.5510  -10.9210 N.am  701  DG9701     -0.2028
     41  C9P       -4.3470  -31.8030  -12.2220 C.2   701  DG9701      0.2719
     42  O9P       -4.1140  -32.9160  -12.6570 O.2   701  DG9701     -0.2706
     43  CAP       -4.5130  -30.6420  -13.1650 C.3   701  DG9701      0.2312
     44  OAP       -4.5810  -29.4210  -12.4320 O.3   701  DG9701     -0.2131
     45  CBP       -5.7610  -30.7710  -14.0390 C.3   701  DG9701      0.0646
     46  CCP       -6.0230  -29.4380  -14.7380 C.3   701  DG9701      0.1537
     47  CDP       -5.4470  -31.8370  -15.0750 C.3   701  DG9701      0.0056
     48  CEP       -6.9800  -31.1980  -13.2320 C.3   701  DG9701      0.0056
     49  CG1       -4.7270  -37.5340   -3.5060 C.3   701  DG9701      0.0015
     50  CG2       -5.3590  -36.4570   -1.3540 C.3   701  DG9701      0.0015
@<TRIPOS>BOND
     1    33    25    1
     2    25    37    1
     3    25    12    1
     4    37    46    1
     5    47    45    1
     6    46    45    1
     7    45    48    1
     8    45    43    1
     9    43    44    1
    10    43    41    1
    11    42    41    2
    12    41    40   am
    13    40    39    1
    14    39    38    1
    15    38    35    1
    16    36    35    2
    17    35    34   am
    18    34    29    1
    19    29    26    1
    20    26    23    1
    21    23     1    1
    22    49    21    1
    23    27     3    2
    24     1    20    1
    25     1     4    1
    26    21    20    1
    27    21    50    1
    28    20     8    1
    29     4     3    1
    30     3    30    2
    31     3     2    1
    32     2    10    1
    33    10    31    1
    34    32    31    1
    35    32    22    1
    36    18    17    1
    37    18    19    1
    38    17    14    2
    39    31    28    1
    40    19    22    1
    41    19    13    1
    42    22    24    1
    43    14    13    1
    44    14    15    1
    45    16    15    1
    46    13    11    2
    47    15     5    2
    48    11     7    1
    49     5     7    1
    50    28    24    1
    51    28     6    1
    52    24     9    1
