@<TRIPOS>MOLECULE
4dgb_III_B_1.pdb
 39 41 0 0 0
SMALL
GASTEIGER

@<TRIPOS>ATOM
      1  N         10.7800    7.8380   19.6210 N.3    86  PRO86      -0.2102
      2  CA        12.2280    7.9670   19.3940 C.3    86  PRO86       0.1504
      3  C         12.8270    7.1180   18.2600 C.2    86  PRO86       0.2576
      4  O         13.8470    7.5190   17.7040 O.2    86  PRO86      -0.2718
      5  CB        12.8490    7.5650   20.7450 C.3    86  PRO86       0.0282
      6  CG        11.7050    7.1010   21.6160 C.3    86  PRO86       0.0208
      7  CD        10.4590    7.7100   21.0520 C.3    86  PRO86       0.0893
      8  N         12.2340    5.9670   17.9300 N.am   87  GLY87      -0.1943
      9  CA        12.7640    5.1060   16.8500 C.3    87  GLY87       0.1998
     10  C         13.8780    4.1850   17.3350 C.2    87  GLY87       0.2481
     11  O         14.3890    4.3920   18.4400 O.2    87  GLY87      -0.2729
     12  N         14.2710    3.1660   16.5180 N.am   88  PRO88      -0.2715
     13  CA        15.3210    2.2630   17.0050 C.3    88  PRO88       0.1536
     14  C         16.5340    3.0310   17.5150 C.2    88  PRO88       0.2598
     15  O         16.8910    4.0730   16.9520 O.2    88  PRO88      -0.2715
     16  CB        15.6820    1.4140   15.7680 C.3    88  PRO88       0.0310
     17  CG        15.0980    2.1500   14.5950 C.3    88  PRO88       0.0237
     18  CD        13.8620    2.8060   15.1490 C.3    88  PRO88       0.0939
     19  N         17.1380    2.5260   18.5860 N.am   89  LEU89      -0.1964
     20  CA        18.2760    3.1910   19.2050 C.3    89  LEU89       0.1713
     21  C         19.4930    3.1150   18.2830 C.2    89  LEU89       0.2458
     22  O         19.6990    2.1050   17.6160 O.2    89  LEU89      -0.2730
     23  CB        18.6170    2.5480   20.5520 C.3    89  LEU89       0.0310
     24  CG        17.5450    2.5610   21.6450 C.3    89  LEU89       0.0022
     25  CD1       18.0070    1.6850   22.8070 C.3    89  LEU89       0.0001
     26  CD2       17.2420    3.9920   22.0940 C.3    89  LEU89       0.0001
     27  N         20.3060    4.1830   18.2510 N.am   90  PRO90      -0.2716
     28  CA        21.5020    4.2140   17.3870 C.3    90  PRO90       0.1536
     29  C         22.6970    3.4110   17.9210 C.2    90  PRO90       0.2599
     30  O         23.7030    3.2920   17.2200 O.2    90  PRO90      -0.2715
     31  CB        21.8400    5.7010   17.3270 C.3    90  PRO90       0.0310
     32  CG        21.3590    6.2370   18.6370 C.3    90  PRO90       0.0237
     33  CD        20.1020    5.4710   18.9470 C.3    90  PRO90       0.0939
     34  N         22.5860    2.8700   19.1380 N.am   91  ALA91      -0.1942
     35  CA        23.6370    2.0200   19.7230 C.3    91  ALA91       0.1979
     36  C         23.0390    1.0060   20.7030 C.2    91  ALA91       0.3842
     37  O         21.8990    1.1740   21.1500 O.co2  91  ALA91      -0.2437
     38  CB        24.7070    2.8840   20.4240 C.3    91  ALA91       0.0356
     39  OXT       23.6710   -0.0050   21.0530 O.co2  91  ALA91      -0.2437
@<TRIPOS>BOND
     1    17    18    1
     2    17    16    1
     3    18    12    1
     4    16    13    1
     5    12    13    1
     6    12    10   am
     7     9    10    1
     8     9     8    1
     9    15    14    2
    10    13    14    1
    11    30    29    2
    12    31    28    1
    13    31    32    1
    14    10    11    2
    15    28    29    1
    16    28    27    1
    17    14    19   am
    18    22    21    2
    19     4     3    2
    20    29    34   am
    21     8     3   am
    22    27    21   am
    23    27    33    1
    24     3     2    1
    25    21    20    1
    26    19    20    1
    27    32    33    1
    28    34    35    1
    29    20    23    1
    30     2     1    1
    31     2     5    1
    32     1     7    1
    33    35    38    1
    34    35    36    1
    35    23    24    1
    36    36    39   ar
    37    36    37   ar
    38     5     6    1
    39     7     6    1
    40    24    26    1
    41    24    25    1
