@<TRIPOS>MOLECULE
4dgg_I76_A_1.pdb
 32 36 0 0 0
SMALL
GASTEIGER

@<TRIPOS>ATOM
      1  CAA       -8.1100  -40.8200    5.1400 C.3   601  I76601      0.0532
      2  CBE       -8.8210  -39.5710    4.5810 C.3   601  I76601      0.1876
      3  CAB       -8.4360  -39.2830    3.1190 C.3   601  I76601      0.0532
      4  NBF       -8.4960  -38.4330    5.4500 N.pl3 601  I76601     -0.0839
      5  NAS       -7.3660  -38.2020    5.8820 N.2   601  I76601     -0.0914
      6  C4        -9.4140  -37.5650    5.8630 C.2   601  I76601      0.3405
      7  N3       -10.7440  -37.4630    5.6360 N.2   601  I76601     -0.0088
      8  C2       -11.4210  -36.4690    6.1940 C.3   601  I76601      0.5248
      9  N1       -10.8230  -35.5560    6.9680 N.2   601  I76601     -0.0027
     10  C6        -9.5020  -35.6020    7.2380 C.2   601  I76601      0.4081
     11  NAC       -8.9700  -34.6570    8.0160 N.pl3 601  I76601      0.2118
     12  C5        -8.7410  -36.6480    6.6750 C.3   601  I76601      0.2639
     13  CAZ       -7.4080  -37.1160    6.6540 C.2   601  I76601      0.1226
     14  CAY       -6.2700  -36.6150    7.2870 C.ar  601  I76601      0.0182
     15  CAO       -6.1880  -36.3770    8.6640 C.ar  601  I76601      0.0013
     16  CAI       -5.1350  -36.4380    6.5050 C.ar  601  I76601      0.0013
     17  CAK       -3.9380  -35.9830    7.0410 C.ar  601  I76601      0.0001
     18  CBA       -3.8540  -35.7230    8.3950 C.ar  601  I76601      0.0030
     19  CAN       -2.6400  -35.2680    8.9080 C.ar  601  I76601      0.0369
     20  CBB       -4.9780  -35.9170    9.2140 C.ar  601  I76601      0.0002
     21  CAJ       -4.8700  -35.6500   10.5780 C.ar  601  I76601      0.0031
     22  CAH       -3.6510  -35.1910   11.0960 C.ar  601  I76601      0.0369
     23  CAW       -2.5330  -35.0070   10.2720 C.ar  601  I76601      0.1391
     24  OAT       -1.3590  -34.5210   10.7850 O.3   601  I76601     -0.4706
     25  CAP       -0.2380  -35.3960   11.0100 C.3   601  I76601      0.2320
     26  CAV        0.5850  -35.0880   12.0910 C.ar  601  I76601      0.0220
     27  CAM        0.2310  -34.0210   12.9060 C.ar  601  I76601      0.0107
     28  CAU        1.0170  -33.6880   14.0010 C.ar  601  I76601      0.0575
     29 CLD         0.5320  -32.3620   15.0010 Cl    601  I76601     -0.0823
     30  CAF        2.1690  -34.4170   14.2890 C.ar  601  I76601      0.0114
     31  CAE        2.5320  -35.4850   13.4690 C.ar  601  I76601      0.0007
     32  CAG        1.7370  -35.8240   12.3730 C.ar  601  I76601     -0.0006
@<TRIPOS>BOND
     1     3     2    1
     2     2     1    1
     3     2     4    1
     4     4     6    1
     5     4     5    1
     6     7     6    2
     7     7     8    1
     8     6    12    1
     9     5    13    2
    10     8     9    1
    11    16    17   ar
    12    16    14   ar
    13    13    12    1
    14    13    14    1
    15    12    10    1
    16     9    10    2
    17    17    18   ar
    18    10    11    1
    19    14    15   ar
    20    18    19   ar
    21    18    20   ar
    22    15    20   ar
    23    19    23   ar
    24    20    21   ar
    25    23    24    1
    26    23    22   ar
    27    21    22   ar
    28    24    25    1
    29    25    26    1
    30    26    32   ar
    31    26    27   ar
    32    32    31   ar
    33    27    28   ar
    34    31    30   ar
    35    28    30   ar
    36    28    29    1
