@<TRIPOS>MOLECULE
4dgm_AGI_A_1.pdb
 20 22 0 0 0
SMALL
GASTEIGER

@<TRIPOS>ATOM
      1  CAG       22.4350    8.7470   16.2250 C.ar  406  AGI406      0.0063
      2  CAE       23.0090    8.4750   14.9890 C.ar  406  AGI406      0.0421
      3  CAM       23.8300    7.3580   14.8570 C.ar  406  AGI406      0.1957
      4  OAB       24.3540    7.1430   13.6440 O.3   406  AGI406     -0.2866
      5  CAF       24.1560    6.5310   15.9420 C.ar  406  AGI406      0.0421
      6  CAH       23.5850    6.7990   17.1760 C.ar  406  AGI406      0.0063
      7  CAP       22.7540    7.9170   17.2850 C.ar  406  AGI406      0.0349
      8  CAQ       22.0970    8.1410   18.5790 C.ar  406  AGI406      0.1484
      9  OAL       22.3050    7.1490   19.4640 O.2   406  AGI406     -0.4531
     10  CAJ       21.1960    9.1870   18.8090 C.ar  406  AGI406      0.0797
     11  CAR       20.5660    9.2340   20.0440 C.ar  406  AGI406      0.2048
     12  OAA       19.8050   10.1800   20.3150 O.2   406  AGI406     -0.2862
     13  CAT       20.8620    8.1760   21.0560 C.ar  406  AGI406      0.1126
     14  CAS       21.7160    7.1530   20.6940 C.ar  406  AGI406      0.1546
     15  CAK       21.9980    6.1030   21.5730 C.ar  406  AGI406      0.0798
     16  CAN       21.4150    6.0860   22.8330 C.ar  406  AGI406      0.2020
     17  OAC       21.6790    5.0730   23.7160 O.3   406  AGI406     -0.2864
     18  CAI       20.5550    7.0980   23.1980 C.ar  406  AGI406      0.0843
     19  CAO       20.2790    8.1360   22.3260 C.ar  406  AGI406      0.2049
     20  OAD       19.4350    9.0870   22.7710 O.3   406  AGI406     -0.2862
@<TRIPOS>BOND
     1     4     3    1
     2     3     2   ar
     3     3     5   ar
     4     2     1   ar
     5     5     6   ar
     6     1     7   ar
     7     6     7   ar
     8     7     8    1
     9     8    10   ar
    10     8     9   ar
    11    10    11   ar
    12     9    14   ar
    13    11    12    2
    14    11    13   ar
    15    14    13   ar
    16    14    15   ar
    17    13    19   ar
    18    15    16   ar
    19    19    20    1
    20    19    18   ar
    21    16    18   ar
    22    16    17    1
