@<TRIPOS>MOLECULE
4dgn_LU2_A_1.pdb
 21 23 0 0 0
SMALL
GASTEIGER

@<TRIPOS>ATOM
      1  C1        22.0320    6.1610   21.4750 C.ar  401  LU2401      0.0798
      2  O1        21.7400    5.1570   23.6370 O.3   401  LU2401     -0.2864
      3  C2        21.4640    6.1600   22.7530 C.ar  401  LU2401      0.2020
      4  O2        19.4520    9.1480   22.6590 O.3   401  LU2401     -0.2862
      5  C3        20.6010    7.1740   23.1280 C.ar  401  LU2401      0.0843
      6  O3        19.7350   10.2230   20.2790 O.2   401  LU2401     -0.2862
      7  C4        20.2870    8.1850   22.2350 C.ar  401  LU2401      0.2049
      8  O4        22.2710    7.2150   19.3280 O.2   401  LU2401     -0.4531
      9  C5        20.8580    8.2300   20.9580 C.ar  401  LU2401      0.1126
     10  O5        24.8460    5.4670   15.8420 O.3   401  LU2401     -0.2831
     11  C6        21.7280    7.2070   20.5930 C.ar  401  LU2401      0.1546
     12  O6        24.3840    7.1870   13.6790 O.3   401  LU2401     -0.2831
     13  C7        20.5150    9.2920   19.9610 C.ar  401  LU2401      0.2048
     14  C8        21.1090    9.2730   18.6940 C.ar  401  LU2401      0.0797
     15  C9        21.9920    8.2330   18.4590 C.ar  401  LU2401      0.1485
     16  C10       22.6490    8.0010   17.2010 C.ar  401  LU2401      0.0381
     17  C11       23.4460    6.8450   17.1660 C.ar  401  LU2401      0.0484
     18  C12       24.0510    6.5640   15.9470 C.ar  401  LU2401      0.2344
     19  C13       23.8190    7.4030   14.8780 C.ar  401  LU2401      0.2343
     20  C14       23.0260    8.5390   14.9430 C.ar  401  LU2401      0.0455
     21  C15       22.4110    8.8520   16.1410 C.ar  401  LU2401      0.0065
@<TRIPOS>BOND
     1    12    19    1
     2    19    20   ar
     3    19    18   ar
     4    20    21   ar
     5    10    18    1
     6    18    17   ar
     7    21    16   ar
     8    17    16   ar
     9    16    15    1
    10    15    14   ar
    11    15     8   ar
    12    14    13   ar
    13     8    11   ar
    14    13     6    2
    15    13     9   ar
    16    11     9   ar
    17    11     1   ar
    18     9     7   ar
    19     1     3   ar
    20     7     4    1
    21     7     5   ar
    22     3     5   ar
    23     3     2    1
