@<TRIPOS>MOLECULE
4dgo_0JW_A_1.pdb
 15 15 0 0 0
SMALL
GASTEIGER

@<TRIPOS>ATOM
      1  N2        22.3700    6.5380   20.7410 N.1   401  0JW401     -0.1910
      2  C12       21.8600    7.4960   20.2980 C.1   401  0JW401      0.1001
      3  C10       21.2870    8.5270   19.8420 C.2   401  0JW401      0.0943
      4  C11       20.4130    9.3660   20.7470 C.3   401  0JW401      0.2739
      5  O14       19.5220   10.1630   19.9690 O.3   401  0JW401     -0.1964
      6  N12       19.7080    8.6080   21.7570 N.3   401  0JW401     -0.0914
      7  C9        21.4930    9.0190   18.5970 C.2   401  0JW401      0.0100
      8  C5        22.3070    8.4200   17.5100 C.ar  401  0JW401      0.0039
      9  C6        23.0420    7.2390   17.6790 C.ar  401  0JW401      0.0454
     10  C1        23.7670    6.7440   16.5890 C.ar  401  0JW401      0.2343
     11  O7        24.4780    5.6110   16.7110 O.3   401  0JW401     -0.2831
     12  C4        22.2930    9.0980   16.2890 C.ar  401  0JW401      0.0035
     13  C3        22.9910    8.6300   15.1730 C.ar  401  0JW401      0.0454
     14  C2        23.7270    7.4560   15.2870 C.ar  401  0JW401      0.2343
     15  O8        24.4220    6.9890   14.2150 O.3   401  0JW401     -0.2831
@<TRIPOS>BOND
     1    15    14    1
     2    13    14   ar
     3    13    12   ar
     4    14    10   ar
     5    12     8   ar
     6    10    11    1
     7    10     9   ar
     8     8     9   ar
     9     8     7    1
    10     7     3    2
    11     3     2    1
    12     3     4    1
    13     5     4    1
    14     2     1    3
    15     4     6    1
