@<TRIPOS>MOLECULE
4dgr_NAG_A_1.pdb
 26 26 0 0 0
SMALL
GASTEIGER

@<TRIPOS>ATOM
      1  C1        16.6300   17.7480   28.8110 C.3   478  NAG478      0.1575
      2  C2        15.4880   17.0530   28.0920 C.3   478  NAG478      0.0863
      3  C3        15.9970   15.8280   27.3620 C.3   478  NAG478      0.1079
      4  C4        17.1510   16.2300   26.4460 C.3   478  NAG478      0.1494
      5  C5        18.1830   17.0300   27.2370 C.3   478  NAG478      0.1142
      6  C6        19.3600   17.5150   26.4020 C.3   478  NAG478      0.0731
      7  C7        13.2020   16.9100   28.8320 C.2   478  NAG478      0.2103
      8  C8        12.2440   16.4820   29.9030 C.3   478  NAG478      0.0122
      9  N2        14.4870   16.6870   29.0680 N.am  478  NAG478     -0.3071
     10  O3        14.9350   15.2600   26.6190 O.3   478  NAG478     -0.3871
     11  O4        17.8070   15.0900   25.9390 O.3   478  NAG478     -0.2256
     12  O5        17.5770   18.1410   27.8510 O.3   478  NAG478     -0.3571
     13  O6        18.8860   18.3000   25.3340 O.3   478  NAG478     -0.3924
     14  O7        12.8130   17.4110   27.7760 O.2   478  NAG478     -0.2761
     15  H2        15.0450   17.7590   27.3890 H     478  NAG478      0.0555
     16  H3        16.3480   15.1090   28.1020 H     478  NAG478      0.0641
     17  H4        16.7450   16.8140   25.6200 H     478  NAG478      0.0682
     18  H5        18.5670   16.3970   28.0370 H     478  NAG478      0.0647
     19  H61       19.9240   16.6570   26.0360 H     478  NAG478      0.0584
     20  H62       20.0260   18.1120   27.0250 H     478  NAG478      0.0584
     21  H81       11.5500   15.7460   29.4970 H     478  NAG478      0.0322
     22  H82       11.6870   17.3480   30.2600 H     478  NAG478      0.0322
     23  H83       12.7990   16.0400   30.7310 H     478  NAG478      0.0322
     24  HN2       14.7640   16.1120   29.8510 H     478  NAG478      0.1492
     25  HO3       14.1220   15.7920   26.7520 H     478  NAG478      0.2100
     26  HO6       17.9090   18.3520   25.3760 H     478  NAG478      0.2095
@<TRIPOS>BOND
     1    13    26    1
     2    13     6    1
     3    17     4    1
     4    11     4    1
     5    19     6    1
     6     6    20    1
     7     6     5    1
     8     4     5    1
     9     4     3    1
    10    10    25    1
    11    10     3    1
    12     5    12    1
    13     5    18    1
    14     3     2    1
    15     3    16    1
    16    15     2    1
    17    14     7    2
    18    12     1    1
    19     2     1    1
    20     2     9    1
    21     7     9   am
    22     7     8    1
    23     9    24    1
    24    21     8    1
    25     8    22    1
    26     8    23    1
