@<TRIPOS>MOLECULE
4dgr_BGC_A_1.pdb
 12 12 0 0 0
SMALL
GASTEIGER

@<TRIPOS>ATOM
      1  C2        31.2890   39.6330   45.2970 C.3   486  BGC486      0.2434
      2  C3        30.0030   40.2880   44.9280 C.3   486  BGC486      0.2199
      3  C4        29.8500   41.5880   45.6490 C.3   486  BGC486      0.2144
      4  C5        31.0760   42.4110   45.4090 C.3   486  BGC486      0.1836
      5  C6        30.9720   43.7050   46.1400 C.3   486  BGC486      0.2142
      6  C1        32.4030   40.6180   45.1190 C.3   486  BGC486      0.3024
      7  O1        33.5960   40.0430   45.4900 O.3   486  BGC486     -0.1869
      8  O2        31.4880   38.5580   44.4600 O.3   486  BGC486     -0.2148
      9  O3        28.9640   39.4600   45.2590 O.3   486  BGC486     -0.2174
     10  O4        28.7360   42.2360   45.1720 O.3   486  BGC486     -0.2176
     11  O5        32.1750   41.7380   45.8840 O.3   486  BGC486     -0.3236
     12  O6        30.8340   44.6980   45.2010 O.3   486  BGC486     -0.2176
@<TRIPOS>BOND
     1     8     1    1
     2     2     9    1
     3     2     1    1
     4     2     3    1
     5     6     1    1
     6     6     7    1
     7     6    11    1
     8    10     3    1
     9    12     5    1
    10     4     3    1
    11     4    11    1
    12     4     5    1
