@<TRIPOS>MOLECULE
4dgr_GLC_A_1.pdb
 24 24 0 0 0
SMALL
GASTEIGER

@<TRIPOS>ATOM
      1  C1        21.0670    4.2260   72.3610 C.3   485  GLC485      0.1854
      2  C2        20.1380    5.0840   71.5460 C.3   485  GLC485      0.1339
      3  C3        20.8860    5.4990   70.2950 C.3   485  GLC485      0.1141
      4  C4        22.1340    6.2650   70.6790 C.3   485  GLC485      0.1119
      5  C5        22.9530    5.5340   71.7180 C.3   485  GLC485      0.1130
      6  C6        23.9710    6.5230   72.2720 C.3   485  GLC485      0.0730
      7  O1        21.5070    3.1800   71.4780 O.3   485  GLC485     -0.3649
      8  O2        18.9940    4.3050   71.2240 O.3   485  GLC485     -0.3841
      9  O3        20.0800    6.3590   69.5060 O.3   485  GLC485     -0.3864
     10  O4        22.9250    6.4720   69.5150 O.3   485  GLC485     -0.3865
     11  O5        22.1370    5.0520   72.7920 O.3   485  GLC485     -0.3407
     12  O6        24.8870    5.8150   73.0950 O.3   485  GLC485     -0.3924
     13  H1        20.5240    3.8090   73.2200 H     485  GLC485      0.0935
     14  H2        19.8550    5.9760   72.1230 H     485  GLC485      0.0671
     15  H3        21.1680    4.6040   69.7240 H     485  GLC485      0.0648
     16  H4        21.8320    7.2360   71.0960 H     485  GLC485      0.0647
     17  H5        23.4850    4.7010   71.2380 H     485  GLC485      0.0647
     18  H61       23.4620    7.2930   72.8570 H     485  GLC485      0.0584
     19  H62       24.5040    7.0090   71.4520 H     485  GLC485      0.0584
     20  HO1       22.1500    2.6210   71.9370 H     485  GLC485      0.2126
     21  HO2       18.5380    4.0510   72.0380 H     485  GLC485      0.2101
     22  HO3       19.2700    5.8970   69.2500 H     485  GLC485      0.2100
     23  HO4       22.4010    6.9360   68.8480 H     485  GLC485      0.2100
     24  HO6       24.6420    4.8800   73.1190 H     485  GLC485      0.2095
@<TRIPOS>BOND
     1    23    10    1
     2    22     9    1
     3     9     3    1
     4    10     4    1
     5    15     3    1
     6     3     4    1
     7     3     2    1
     8     4    16    1
     9     4     5    1
    10     8     2    1
    11     8    21    1
    12    17     5    1
    13    19     6    1
    14     7    20    1
    15     7     1    1
    16     2    14    1
    17     2     1    1
    18     5     6    1
    19     5    11    1
    20     6    18    1
    21     6    12    1
    22     1    11    1
    23     1    13    1
    24    12    24    1
