@<TRIPOS>MOLECULE
4dgt_PLP_A_1.pdb
 15 15 0 0 0
SMALL
GASTEIGER

@<TRIPOS>ATOM
      1  N1        35.5470    0.9740   23.1890 N.ar  401  PLP401     -0.2452
      2  C2        36.6230    1.6100   22.7040 C.ar  401  PLP401      0.0978
      3  C2A       37.9990    1.4130   23.3330 C.3   401  PLP401      0.0555
      4  C3        36.5790    2.4860   21.5550 C.ar  401  PLP401      0.2049
      5  O3        37.6360    3.2350   21.1050 O.3   401  PLP401     -0.2857
      6  C4        35.2750    2.7130   20.9840 C.ar  401  PLP401      0.0182
      7  C4A       35.1270    3.6290   19.8150 C.3   401  PLP401      0.0342
      8  C5        34.1280    1.9790   21.5590 C.ar  401  PLP401      0.0261
      9  C6        34.3300    1.1090   22.6270 C.ar  401  PLP401      0.0965
     10  C5A       32.7620    2.1450   20.9300 C.3   401  PLP401      0.1815
     11  O4P       31.8610    1.8440   21.9390 O.3   401  PLP401     -0.2653
     12  P         30.2710    1.6040   21.4560 P.3   401  PLP401      0.5329
     13  O1P       30.2920    0.2530   20.7850 O.3   401  PLP401     -0.1145
     14  O2P       29.5070    1.6590   22.8260 O.3   401  PLP401     -0.1145
     15  O3P       30.0020    2.7160   20.4260 O.2   401  PLP401     -0.2224
@<TRIPOS>BOND
     1     7     6    1
     2    15    12    2
     3    13    12    1
     4    10     8    1
     5    10    11    1
     6     6     4   ar
     7     6     8   ar
     8     5     4    1
     9    12    11    1
    10    12    14    1
    11     4     2   ar
    12     8     9   ar
    13     9     1   ar
    14     2     1   ar
    15     2     3    1
