@<TRIPOS>MOLECULE
4dgz_THP_A_1.pdb
 25 26 0 0 0
SMALL
GASTEIGER

@<TRIPOS>ATOM
      1  P2        17.8910   11.1990    4.8190 P.3   202  THP202      0.5327
      2  O4P       17.8840    9.6730    5.1220 O.2   202  THP202     -0.2224
      3  O5P       16.6640   11.9080    5.3410 O.3   202  THP202     -0.1145
      4  O6P       19.1420   11.9210    5.4080 O.3   202  THP202     -0.1145
      5  P1        21.1320   14.6660    1.0310 P.3   202  THP202      0.5326
      6  O1P       22.1190   15.2960   -0.0360 O.2   202  THP202     -0.2224
      7  O2P       21.8140   13.5150    1.8090 O.3   202  THP202     -0.1145
      8  O3P       20.4620   15.6370    2.0280 O.3   202  THP202     -0.1145
      9  O5'       17.8740   11.2090    3.2990 O.3   202  THP202     -0.2675
     10  C5'       17.9290   12.5680    2.6580 C.3   202  THP202      0.1857
     11  C4'       18.7770   12.3970    1.3840 C.3   202  THP202      0.1748
     12  O4'       18.4540   11.3120    0.5330 O.3   202  THP202     -0.3340
     13  C3'       18.7350   13.6600    0.4710 C.3   202  THP202      0.1600
     14  O3'       20.0920   13.9990   -0.0140 O.3   202  THP202     -0.2700
     15  C2'       17.8620   13.1990   -0.7190 C.3   202  THP202      0.0847
     16  C1'       18.0900   11.6570   -0.7840 C.3   202  THP202      0.2089
     17  N1        16.7730   11.0080   -1.1670 N.am  202  THP202     -0.1794
     18  C2        16.5010   10.8180   -2.4380 C.1   202  THP202      0.2844
     19  O2        17.3320   11.1590   -3.2920 O.2   202  THP202     -0.1918
     20  N3        15.3250   10.3260   -2.8470 N.2   202  THP202     -0.2455
     21  C4        14.3790   10.0530   -1.8960 C.1   202  THP202      0.2134
     22  O4        13.2800    9.6580   -2.3110 O.2   202  THP202     -0.2088
     23  C5        14.6520   10.2620   -0.5420 C.2   202  THP202      0.0891
     24  C5M       13.6420    9.8630    0.5250 C.3   202  THP202      0.0462
     25  C6        15.8760   10.7360   -0.1510 C.2   202  THP202      0.0877
@<TRIPOS>BOND
     1    19    18    2
     2    20    18    2
     3    20    21    2
     4    18    17   am
     5    22    21    2
     6    21    23    1
     7    17    16    1
     8    17    25    1
     9    16    15    1
    10    16    12    1
    11    15    13    1
    12    23    25    2
    13    23    24    1
    14     6     5    2
    15    14    13    1
    16    14     5    1
    17    13    11    1
    18    12    11    1
    19     5     7    1
    20     5     8    1
    21    11    10    1
    22    10     9    1
    23     9     1    1
    24     1     2    2
    25     1     3    1
    26     1     4    1
