@<TRIPOS>MOLECULE
4dh1_ATP_A_1.pdb
 31 33 0 0 0
SMALL
GASTEIGER

@<TRIPOS>ATOM
      1  PG        -0.7360   11.7260  -16.1410 P.3   402  ATP402      0.5373
      2  O1G        0.3490   10.6780  -16.2440 O.3   402  ATP402     -0.1143
      3  O2G       -1.4240   11.9410  -17.4710 O.2   402  ATP402     -0.2221
      4  O3G       -0.1370   12.9760  -15.5960 O.3   402  ATP402     -0.1143
      5  PB        -2.3910   11.7500  -13.5810 P.3   402  ATP402      0.2277
      6  O1B       -3.1950   12.9910  -13.8080 O.2   402  ATP402     -0.5168
      7  O2B       -1.2430   11.7790  -12.6110 O.3   402  ATP402     -0.4368
      8  O3B       -1.8880   11.1610  -15.0690 O.3   402  ATP402     -0.2258
      9  PA        -5.0980   10.5530  -13.1230 P.3   402  ATP402      0.2189
     10  O1A       -5.6530   11.3460  -11.9810 O.3   402  ATP402     -0.4371
     11  O2A       -5.6110   10.8420  -14.4970 O.2   402  ATP402     -0.5170
     12  O3A       -3.4540   10.6010  -13.0720 O.3   402  ATP402     -0.2700
     13  O5'       -5.4210    8.9900  -12.8090 O.3   402  ATP402     -0.3112
     14  C5'       -5.0460    7.9930  -13.7480 C.3   402  ATP402      0.1813
     15  C4'       -6.0100    6.8100  -13.7490 C.3   402  ATP402      0.1821
     16  O4'       -6.9650    6.8110  -12.6590 O.3   402  ATP402     -0.3135
     17  C3'       -6.8700    6.6790  -14.9960 C.3   402  ATP402      0.2184
     18  O3'       -6.0940    6.3010  -16.1370 O.3   402  ATP402     -0.2174
     19  C2'       -7.8780    5.6720  -14.4890 C.3   402  ATP402      0.2570
     20  O2'       -7.3210    4.3440  -14.4740 O.3   402  ATP402     -0.2130
     21  C1'       -8.1660    6.1350  -13.0780 C.3   402  ATP402      0.3186
     22  N9        -9.3210    7.0860  -12.9860 N.pl3 402  ATP402     -0.1439
     23  C8        -9.3130    8.4370  -13.1270 C.3   402  ATP402      0.3377
     24  N7       -10.5460    8.9640  -12.9690 N.2   402  ATP402     -0.2095
     25  C5       -11.3840    7.9360  -12.7160 C.2   402  ATP402      0.2526
     26  C6       -12.8340    7.7580  -12.4430 C.2   402  ATP402      0.4393
     27  N6       -13.6520    8.8360  -12.4030 N.pl3 402  ATP402      0.2180
     28  N1       -13.3190    6.4960  -12.2310 N.2   402  ATP402      0.0021
     29  C2       -12.5210    5.4040  -12.2640 C.3   402  ATP402      0.5254
     30  N3       -11.1870    5.4870  -12.5030 N.2   402  ATP402     -0.0055
     31  C4       -10.5740    6.6980  -12.7320 C.2   402  ATP402      0.3518
@<TRIPOS>BOND
     1     3     1    2
     2     2     1    1
     3     1     4    1
     4     1     8    1
     5    18    17    1
     6     8     5    1
     7    17    19    1
     8    17    15    1
     9    11     9    2
    10    19    20    1
    11    19    21    1
    12     6     5    2
    13    15    14    1
    14    15    16    1
    15    14    13    1
    16     5    12    1
    17     5     7    1
    18    23    22    1
    19    23    24    1
    20     9    12    1
    21     9    13    1
    22     9    10    1
    23    21    22    1
    24    21    16    1
    25    22    31    1
    26    24    25    2
    27    31    25    1
    28    31    30    2
    29    25    26    1
    30    30    29    1
    31    26    27    1
    32    26    28    2
    33    29    28    1
