@<TRIPOS>MOLECULE
4dh3_ATP_A_1.pdb
 31 33 0 0 0
SMALL
GASTEIGER

@<TRIPOS>ATOM
      1  PG        -0.9470   11.4310  -16.1540 P.3   403  ATP403      0.5373
      2  O1G        0.2220   10.5670  -15.7350 O.3   403  ATP403     -0.1143
      3  O2G       -1.4400   11.0660  -17.5380 O.2   403  ATP403     -0.2221
      4  O3G       -0.5290   12.8640  -16.0590 O.3   403  ATP403     -0.1143
      5  PB        -2.5180   11.6450  -13.5300 P.3   403  ATP403      0.2277
      6  O1B       -3.0260   13.0370  -13.5490 O.2   403  ATP403     -0.5168
      7  O2B       -1.3590   11.3090  -12.6460 O.3   403  ATP403     -0.4368
      8  O3B       -2.2240   11.1360  -15.1000 O.3   403  ATP403     -0.2258
      9  PA        -5.3250   10.6750  -13.6790 P.3   403  ATP403      0.2189
     10  O1A       -6.1300   11.8200  -13.1300 O.3   403  ATP403     -0.4371
     11  O2A       -5.3230   10.4710  -15.1500 O.2   403  ATP403     -0.5170
     12  O3A       -3.7920   10.7340  -13.0730 O.3   403  ATP403     -0.2700
     13  O5'       -5.8650    9.3010  -13.0280 O.3   403  ATP403     -0.3112
     14  C5'       -5.0930    8.1120  -13.1930 C.3   403  ATP403      0.1813
     15  C4'       -5.9820    6.9090  -13.4710 C.3   403  ATP403      0.1821
     16  O4'       -7.0420    6.7890  -12.4950 O.3   403  ATP403     -0.3135
     17  C3'       -6.7050    6.9000  -14.8230 C.3   403  ATP403      0.2184
     18  O3'       -5.8250    6.5710  -15.9140 O.3   403  ATP403     -0.2174
     19  C2'       -7.7850    5.8910  -14.5210 C.3   403  ATP403      0.2570
     20  O2'       -7.2570    4.5510  -14.6010 O.3   403  ATP403     -0.2130
     21  C1'       -8.1980    6.2060  -13.1030 C.3   403  ATP403      0.3186
     22  N9        -9.3300    7.1850  -12.9900 N.pl3 403  ATP403     -0.1439
     23  C8        -9.2990    8.5500  -13.0820 C.3   403  ATP403      0.3377
     24  N7       -10.5330    9.0930  -12.9170 N.2   403  ATP403     -0.2095
     25  C5       -11.3800    8.0640  -12.7150 C.2   403  ATP403      0.2526
     26  C6       -12.8310    7.8820  -12.4670 C.2   403  ATP403      0.4393
     27  N6       -13.6530    8.9600  -12.3990 N.pl3 403  ATP403      0.2180
     28  N1       -13.3150    6.6080  -12.3130 N.2   403  ATP403      0.0021
     29  C2       -12.5240    5.5120  -12.3750 C.3   403  ATP403      0.5254
     30  N3       -11.1930    5.5950  -12.5920 N.2   403  ATP403     -0.0055
     31  C4       -10.5750    6.8100  -12.7670 C.2   403  ATP403      0.3518
@<TRIPOS>BOND
     1     3     1    2
     2     1     4    1
     3     1     2    1
     4     1     8    1
     5    18    17    1
     6    11     9    2
     7     8     5    1
     8    17    19    1
     9    17    15    1
    10    20    19    1
    11    19    21    1
    12     9    10    1
    13     9    12    1
    14     9    13    1
    15     6     5    2
    16     5    12    1
    17     5     7    1
    18    15    14    1
    19    15    16    1
    20    14    13    1
    21    21    22    1
    22    21    16    1
    23    23    22    1
    24    23    24    1
    25    22    31    1
    26    24    25    2
    27    31    25    1
    28    31    30    2
    29    25    26    1
    30    30    29    1
    31    26    27    1
    32    26    28    2
    33    29    28    1
