@<TRIPOS>MOLECULE
4dh5_ADP_A_1.pdb
 27 29 0 0 0
SMALL
GASTEIGER

@<TRIPOS>ATOM
      1  PB        -2.7900   11.3590  -13.6130 P.3   403  ADP403      0.5373
      2  O1B       -3.1540   12.7450  -14.0500 O.3   403  ADP403     -0.1143
      3  O2B       -1.6980   11.2150  -12.5770 O.3   403  ADP403     -0.1143
      4  O3B       -2.4720   10.5860  -14.8300 O.2   403  ADP403     -0.2221
      5  PA        -5.6000   10.6020  -13.8310 P.3   403  ADP403      0.2231
      6  O1A       -6.3710   11.7920  -13.4800 O.3   403  ADP403     -0.4370
      7  O2A       -5.4910   10.3630  -15.2840 O.2   403  ADP403     -0.5169
      8  O3A       -4.1330   10.7020  -13.1420 O.3   403  ADP403     -0.2261
      9  O5'       -6.1310    9.2760  -13.1550 O.3   403  ADP403     -0.3111
     10  C5'       -5.2310    8.1520  -13.3220 C.3   403  ADP403      0.1813
     11  C4'       -5.9560    6.8580  -13.5420 C.3   403  ADP403      0.1821
     12  O4'       -6.9500    6.7220  -12.4810 O.3   403  ADP403     -0.3135
     13  C3'       -6.7810    6.7260  -14.8180 C.3   403  ADP403      0.2184
     14  O3'       -6.0170    6.4570  -15.9750 O.3   403  ADP403     -0.2174
     15  C2'       -7.7870    5.6520  -14.3800 C.3   403  ADP403      0.2570
     16  O2'       -7.4000    4.3110  -14.5600 O.3   403  ADP403     -0.2130
     17  C1'       -8.0880    5.9960  -12.9500 C.3   403  ADP403      0.3186
     18  N9        -9.2890    6.8810  -12.7640 N.pl3 403  ADP403     -0.1439
     19  C8        -9.2040    8.2560  -12.7690 C.3   403  ADP403      0.3377
     20  N7       -10.3410    8.8800  -12.5940 N.2   403  ADP403     -0.2095
     21  C5       -11.2610    7.8780  -12.4570 C.2   403  ADP403      0.2526
     22  C6       -12.6910    7.8720  -12.2390 C.2   403  ADP403      0.4393
     23  N6       -13.4400    8.9900  -12.1170 N.pl3 403  ADP403      0.2180
     24  N1       -13.3150    6.6480  -12.1480 N.2   403  ADP403      0.0021
     25  C2       -12.5770    5.4900  -12.2680 C.3   403  ADP403      0.5254
     26  N3       -11.2440    5.3830  -12.4740 N.2   403  ADP403     -0.0055
     27  C4       -10.6290    6.6210  -12.5620 C.2   403  ADP403      0.3518
@<TRIPOS>BOND
     1    14    13    1
     2     7     5    2
     3     4     1    2
     4    13    15    1
     5    13    11    1
     6    16    15    1
     7    15    17    1
     8     2     1    1
     9     5     6    1
    10     5     9    1
    11     5     8    1
    12     1     8    1
    13     1     3    1
    14    11    10    1
    15    11    12    1
    16    10     9    1
    17    17    18    1
    18    17    12    1
    19    19    18    1
    20    19    20    1
    21    18    27    1
    22    20    21    2
    23    27    26    2
    24    27    21    1
    25    26    25    1
    26    21    22    1
    27    25    24    1
    28    22    24    2
    29    22    23    1
