@<TRIPOS>MOLECULE
4dh6_0KN_A_1.pdb
 40 44 0 0 0
SMALL
GASTEIGER

@<TRIPOS>ATOM
      1  C29       62.9460   44.3320    9.4040 C.3   411  0KN411      0.0402
      2  C30       61.4210   44.4750    9.2920 C.3   411  0KN411      0.0072
      3  C31       61.5390   45.9820    9.5360 C.3   411  0KN411      0.0402
      4  C18       63.0780   45.8550    9.5440 C.3   411  0KN411      0.1363
      5  C19       63.7480   46.4820    8.3090 C.3   411  0KN411      0.0620
      6  O17       63.7120   46.2250   10.7860 O.3   411  0KN411     -0.4676
      7  C16       63.9570   47.5610   10.9730 C.ar  411  0KN411      0.2217
      8  N23       64.1600   47.9840   12.2390 N.ar  411  0KN411     -0.2107
      9  C22       64.4100   49.2540   12.5300 C.ar  411  0KN411      0.0977
     10  C21       64.4720   50.2100   11.5160 C.ar  411  0KN411     -0.0031
     11  C24       64.7580   51.6820   11.8590 C.3   411  0KN411      0.0279
     12  C25       63.5280   52.4430   12.3770 C.3   411  0KN411      0.0041
     13  C27       63.9750   53.7740   12.9780 C.3   411  0KN411      0.0003
     14  C28       62.7770   51.6490   13.4510 C.3   411  0KN411      0.0003
     15  C26       62.5700   52.7390   11.2180 C.3   411  0KN411      0.0003
     16  C20       64.2750   49.8120   10.1910 C.ar  411  0KN411     -0.0010
     17  C15       64.0190   48.4710    9.9050 C.ar  411  0KN411      0.0465
     18  C6        63.7940   48.0160    8.4360 C.3   411  0KN411      0.1030
     19  N5        64.8160   48.5710    7.5120 N.3   411  0KN411     -0.2120
     20  C4        66.2250   48.3060    7.8900 C.3   411  0KN411      0.1236
     21  C3        67.1260   49.2910    7.1440 C.3   411  0KN411      0.1894
     22  O14       66.7410   50.6170    7.5050 O.3   411  0KN411     -0.2197
     23  C2        68.6200   49.1030    7.4450 C.3   411  0KN411      0.1314
     24  N1        69.1080   47.7600    7.1050 N.am  411  0KN411     -0.2021
     25  C35       69.3860   46.8360    8.0230 C.2   411  0KN411      0.2686
     26  O36       69.1660   46.9620    9.2290 O.2   411  0KN411     -0.2707
     27  C37       69.9270   45.5080    7.5160 C.3   411  0KN411      0.1926
     28  C38       71.4500   45.5930    7.3670 C.3   411  0KN411      0.0421
     29  O39       69.5050   44.5010    8.4450 O.3   411  0KN411     -0.3443
     30  C40       68.3020   43.8770    7.9600 C.3   411  0KN411      0.1747
     31  C7        69.5120   50.0720    6.6550 C.3   411  0KN411      0.0508
     32  C8        70.9470   49.8950    7.1390 C.ar  411  0KN411     -0.0172
     33  C9        71.9800   49.5490    6.2720 C.ar  411  0KN411      0.0360
     34  C10       73.2680   49.4030    6.7970 C.ar  411  0KN411      0.1761
     35  O32       74.4520   49.0810    6.2020 O.3   411  0KN411     -0.4346
     36  C33       75.2830   48.6350    7.3060 C.3   411  0KN411      0.4294
     37  O34       74.8300   49.3930    8.4360 O.3   411  0KN411     -0.4346
     38  C11       73.5140   49.5940    8.1670 C.ar  411  0KN411      0.1764
     39  C12       72.4800   49.9320    9.0150 C.ar  411  0KN411      0.0399
     40  C13       71.2030   50.0810    8.4930 C.ar  411  0KN411     -0.0009
@<TRIPOS>BOND
     1    35    34    1
     2    35    36    1
     3    33    34   ar
     4    33    32   ar
     5    31    32    1
     6    31    23    1
     7    34    38   ar
     8    24    23    1
     9    24    25   am
    10    32    40   ar
    11    21    23    1
    12    21    22    1
    13    21    20    1
    14    36    37    1
    15    28    27    1
    16    19    20    1
    17    19    18    1
    18    27    25    1
    19    27    29    1
    20    30    29    1
    21    25    26    2
    22    38    37    1
    23    38    39   ar
    24     5    18    1
    25     5     4    1
    26    18    17    1
    27    40    39   ar
    28     2     1    1
    29     2     3    1
    30     1     4    1
    31     3     4    1
    32     4     6    1
    33    17    16   ar
    34    17     7   ar
    35    16    10   ar
    36     6     7    1
    37     7     8   ar
    38    15    12    1
    39    10    11    1
    40    10     9   ar
    41    11    12    1
    42     8     9   ar
    43    12    13    1
    44    12    14    1
