@<TRIPOS>MOLECULE
4dh7_ANP_A_1.pdb
 31 33 0 0 0
SMALL
GASTEIGER

@<TRIPOS>ATOM
      1  PG        -1.0500   11.1360  -16.2110 P.3   403  ANP403      0.4884
      2  O1G        0.2950   10.4670  -16.1270 O.3   403  ANP403     -0.1240
      3  O2G       -1.6490   10.8230  -17.5570 O.2   403  ANP403     -0.2331
      4  O3G       -0.8510   12.5830  -16.0820 O.3   403  ANP403     -0.1240
      5  PB        -2.5080   11.4500  -13.6430 P.3   403  ANP403      0.4669
      6  O1B       -2.8400   12.8420  -13.9930 O.2   403  ANP403     -0.2351
      7  O2B       -1.3600   11.4590  -12.6800 O.3   403  ANP403     -0.1253
      8  N3B       -2.0980   10.4590  -14.9990 N.3   403  ANP403     -0.0163
      9  PA        -5.1730   10.5670  -13.6750 P.3   403  ANP403      0.2220
     10  O1A       -6.0570   11.7580  -13.4840 O.3   403  ANP403     -0.4370
     11  O2A       -4.9790   10.3230  -15.1110 O.2   403  ANP403     -0.5170
     12  O3A       -3.7570   10.7780  -12.8450 O.3   403  ANP403     -0.2360
     13  O5'       -5.8770    9.2780  -13.0410 O.3   403  ANP403     -0.3111
     14  C5'       -4.9780    8.1720  -13.0360 C.3   403  ANP403      0.1813
     15  C4'       -5.7310    6.8940  -13.3450 C.3   403  ANP403      0.1821
     16  O4'       -6.7780    6.7230  -12.3730 O.3   403  ANP403     -0.3135
     17  C3'       -6.4470    6.8630  -14.7100 C.3   403  ANP403      0.2184
     18  O3'       -5.5560    6.5340  -15.7890 O.3   403  ANP403     -0.2174
     19  C2'       -7.5350    5.8520  -14.4100 C.3   403  ANP403      0.2570
     20  O2'       -7.0210    4.5060  -14.4930 O.3   403  ANP403     -0.2130
     21  C1'       -7.9330    6.1540  -12.9910 C.3   403  ANP403      0.3186
     22  N9        -9.0480    7.1310  -12.8480 N.pl3 403  ANP403     -0.1439
     23  C8        -8.9900    8.4940  -12.9250 C.3   403  ANP403      0.3377
     24  N7       -10.2000    9.0530  -12.7400 N.2   403  ANP403     -0.2095
     25  C5       -11.0670    8.0390  -12.5390 C.2   403  ANP403      0.2526
     26  C6       -12.5130    7.9010  -12.2780 C.2   403  ANP403      0.4393
     27  N6       -13.2790    9.0070  -12.1950 N.pl3 403  ANP403      0.2180
     28  N1       -13.0460    6.6440  -12.1240 N.2   403  ANP403      0.0021
     29  C2       -12.2860    5.5190  -12.2050 C.3   403  ANP403      0.5254
     30  N3       -10.9500    5.5680  -12.4420 N.2   403  ANP403     -0.0055
     31  C4       -10.3010    6.7750  -12.6140 C.2   403  ANP403      0.3518
@<TRIPOS>BOND
     1     3     1    2
     2     1     2    1
     3     1     4    1
     4     1     8    1
     5    18    17    1
     6    11     9    2
     7     8     5    1
     8    17    19    1
     9    17    15    1
    10    20    19    1
    11    19    21    1
    12     6     5    2
    13     9    10    1
    14     9    13    1
    15     9    12    1
    16     5    12    1
    17     5     7    1
    18    15    14    1
    19    15    16    1
    20    13    14    1
    21    21    22    1
    22    21    16    1
    23    23    22    1
    24    23    24    1
    25    22    31    1
    26    24    25    2
    27    31    25    1
    28    31    30    2
    29    25    26    1
    30    30    29    1
    31    26    27    1
    32    26    28    2
    33    29    28    1
