@<TRIPOS>MOLECULE
4dh8_ANP_A_1.pdb
 31 33 0 0 0
SMALL
GASTEIGER

@<TRIPOS>ATOM
      1  PG        -0.9100   10.9790  -16.2670 P.3   403  ANP403      0.4884
      2  O1G        0.4420   10.2990  -16.1720 O.3   403  ANP403     -0.1240
      3  O2G       -1.4850   10.6720  -17.6240 O.2   403  ANP403     -0.2331
      4  O3G       -0.7060   12.4250  -16.1400 O.3   403  ANP403     -0.1240
      5  PB        -2.3080   11.3520  -13.7170 P.3   403  ANP403      0.4669
      6  O1B       -2.7100   12.7040  -14.0990 O.2   403  ANP403     -0.2351
      7  O2B       -1.0870   11.4420  -12.8580 O.3   403  ANP403     -0.1253
      8  N3B       -1.9890   10.3320  -15.0680 N.3   403  ANP403     -0.0163
      9  PA        -4.9340   10.5240  -13.5940 P.3   403  ANP403      0.2220
     10  O1A       -5.7850   11.7470  -13.4030 O.3   403  ANP403     -0.4370
     11  O2A       -4.7660   10.3190  -15.0100 O.2   403  ANP403     -0.5170
     12  O3A       -3.4940   10.6990  -12.8070 O.3   403  ANP403     -0.2360
     13  O5'       -5.6670    9.2240  -12.9840 O.3   403  ANP403     -0.3111
     14  C5'       -4.8140    8.0760  -13.1020 C.3   403  ANP403      0.1813
     15  C4'       -5.6320    6.8400  -13.3950 C.3   403  ANP403      0.1821
     16  O4'       -6.6510    6.6980  -12.3870 O.3   403  ANP403     -0.3135
     17  C3'       -6.4010    6.8490  -14.7270 C.3   403  ANP403      0.2184
     18  O3'       -5.5770    6.5130  -15.8580 O.3   403  ANP403     -0.2174
     19  C2'       -7.4970    5.8670  -14.3960 C.3   403  ANP403      0.2570
     20  O2'       -7.0210    4.5240  -14.5160 O.3   403  ANP403     -0.2130
     21  C1'       -7.8380    6.1640  -12.9600 C.3   403  ANP403      0.3186
     22  N9        -8.9350    7.1630  -12.7830 N.pl3 403  ANP403     -0.1439
     23  C8        -8.8650    8.5230  -12.8550 C.3   403  ANP403      0.3377
     24  N7       -10.0650    9.0920  -12.6420 N.2   403  ANP403     -0.2095
     25  C5       -10.9380    8.0850  -12.4290 C.2   403  ANP403      0.2526
     26  C6       -12.3820    7.9520  -12.1400 C.2   403  ANP403      0.4393
     27  N6       -13.1490    9.0600  -12.0400 N.pl3 403  ANP403      0.2180
     28  N1       -12.9170    6.6930  -11.9860 N.2   403  ANP403      0.0021
     29  C2       -12.1600    5.5650  -12.0830 C.3   403  ANP403      0.5254
     30  N3       -10.8300    5.6130  -12.3440 N.2   403  ANP403     -0.0055
     31  C4       -10.1820    6.8160  -12.5220 C.2   403  ANP403      0.3518
@<TRIPOS>BOND
     1     3     1    2
     2     1     2    1
     3     1     4    1
     4     1     8    1
     5    18    17    1
     6     8     5    1
     7    11     9    2
     8    17    19    1
     9    17    15    1
    10    20    19    1
    11    19    21    1
    12     6     5    2
    13     5     7    1
    14     5    12    1
    15     9    10    1
    16     9    13    1
    17     9    12    1
    18    15    14    1
    19    15    16    1
    20    14    13    1
    21    21    22    1
    22    21    16    1
    23    23    22    1
    24    23    24    1
    25    22    31    1
    26    24    25    2
    27    31    25    1
    28    31    30    2
    29    25    26    1
    30    30    29    1
    31    26    27    1
    32    26    28    2
    33    29    28    1
