@<TRIPOS>MOLECULE
4dhf_0K6_A_1.pdb
 33 37 0 0 0
SMALL
GASTEIGER

@<TRIPOS>ATOM
      1  O2       -19.4400   21.0070    0.5950 O.2   401  0K6401     -0.2651
      2  C19      -19.8610   20.1160   -0.1450 C.2   401  0K6401      0.3001
      3  N7       -19.0770   19.4500   -1.0090 N.am  401  0K6401     -0.0824
      4  C18      -21.3170   19.7990   -0.0680 C.ar  401  0K6401      0.1192
      5  N6       -22.1190   19.6520   -1.1350 N.ar  401  0K6401     -0.3003
      6  C13      -21.5950   19.7840   -2.5160 C.3   401  0K6401      0.0880
      7  C17      -21.8660   18.6090   -3.4270 C.3   401  0K6401      0.0226
      8  C16      -21.7210   19.2210   -4.8120 C.3   401  0K6401      0.0020
      9  C15      -22.1190   20.6780   -4.7110 C.3   401  0K6401      0.0020
     10  C14      -22.1620   21.0040   -3.2330 C.3   401  0K6401      0.0226
     11  C20      -22.0280   19.6270    1.1250 C.ar  401  0K6401      0.0277
     12  C21      -23.3330   19.3700    0.6580 C.ar  401  0K6401      0.0690
     13  C12      -23.3700   19.3790   -0.7270 C.ar  401  0K6401      0.2095
     14  N5       -24.5370   19.1450   -1.3660 N.2   401  0K6401     -0.3180
     15  C22      -24.4700   19.1350    1.4120 C.2   401  0K6401      0.1159
     16  N8       -25.6010   18.9050    0.7250 N.2   401  0K6401     -0.1682
     17  C11      -25.6530   18.9120   -0.6400 C.1   401  0K6401      0.1711
     18  N4       -26.8440   18.6960   -1.2630 N.pl3 401  0K6401     -0.1342
     19  C10      -27.0320   18.5610   -2.5950 C.ar  401  0K6401      0.1013
     20  C9       -26.1330   18.8120   -3.6100 C.ar  401  0K6401      0.0936
     21  N3       -26.7140   18.5130   -4.7860 N.ar  401  0K6401     -0.3194
     22  C8       -26.0320   18.6660   -6.1040 C.3   401  0K6401      0.1306
     23  C23      -28.1950   18.1070   -3.1950 C.ar  401  0K6401      0.0407
     24  C7       -27.9890   18.1070   -4.5700 C.ar  401  0K6401      0.1157
     25  C1       -28.9520   17.6340   -5.6190 C.2   401  0K6401      0.2650
     26  O1       -28.4830   16.7320   -6.2830 O.2   401  0K6401     -0.2683
     27  N1       -30.2220   18.0400   -5.8430 N.am  401  0K6401     -0.2720
     28  C6       -30.9520   18.8370   -4.8400 C.3   401  0K6401      0.1111
     29  C5       -31.9330   19.8060   -5.5170 C.3   401  0K6401      0.0939
     30  N2       -32.6960   18.9950   -6.4510 N.3   401  0K6401     -0.2686
     31  C4       -34.0870   18.6140   -6.1470 C.3   401  0K6401      0.0897
     32  C3       -31.9550   18.5900   -7.6350 C.3   401  0K6401      0.0939
     33  C2       -30.9180   17.5970   -7.0850 C.3   401  0K6401      0.1111
@<TRIPOS>BOND
     1    32    33    1
     2    32    30    1
     3    33    27    1
     4    30    31    1
     5    30    29    1
     6    26    25    2
     7    22    21    1
     8    27    25   am
     9    27    28    1
    10    25    24    1
    11    29    28    1
    12     8     9    1
    13     8     7    1
    14    21    24   ar
    15    21    20   ar
    16     9    10    1
    17    24    23   ar
    18    20    19   ar
    19     7     6    1
    20    10     6    1
    21    23    19   ar
    22    19    18    1
    23     6     5    1
    24    14    13    2
    25    14    17    2
    26    18    17    1
    27     5    13   ar
    28     5     4   ar
    29     3     2   am
    30    13    12   ar
    31    17    16    2
    32     2     4    1
    33     2     1    2
    34     4    11   ar
    35    12    11   ar
    36    12    15    2
    37    16    15    1
