@<TRIPOS>MOLECULE
4dhl_0K7_A_1.pdb
 15 16 0 0 0
SMALL
GASTEIGER

@<TRIPOS>ATOM
      1  CAF      -70.1390   33.3710  -45.7470 C.ar  503  0K7503      0.0027
      2  CAD      -70.3560   33.4110  -47.1200 C.ar  503  0K7503     -0.0042
      3  CAL      -71.4880   34.0300  -47.6350 C.ar  503  0K7503     -0.0218
      4  CAA      -71.7080   34.0720  -49.1120 C.3   503  0K7503      0.0310
      5  CAE      -72.4140   34.6060  -46.7700 C.ar  503  0K7503     -0.0042
      6  CAG      -72.2020   34.5610  -45.3950 C.ar  503  0K7503      0.0027
      7  CAM      -71.0630   33.9440  -44.8780 C.ar  503  0K7503      0.0356
      8  CAO      -70.8420   33.8910  -43.3970 C.2   503  0K7503      0.1572
      9  NAI      -70.2050   32.9090  -42.7110 N.2   503  0K7503     -0.3924
     10  SAJ      -71.3740   35.0350  -42.2650 S.3   503  0K7503     -0.0745
     11  CAH      -70.7660   34.2740  -40.8750 C.3   503  0K7503      0.1303
     12  CAN      -70.1530   33.1020  -41.3500 C.2   503  0K7503      0.2000
     13  CAK      -69.4860   32.1530  -40.4240 C.2   503  0K7503      0.4136
     14  OAC      -69.9130   32.0250  -39.2660 O.co2 503  0K7503     -0.2380
     15  OAB      -68.4800   31.5020  -40.7720 O.co2 503  0K7503     -0.2380
@<TRIPOS>BOND
     1     4     3    1
     2     3     2   ar
     3     3     5   ar
     4     2     1   ar
     5     5     6   ar
     6     1     7   ar
     7     6     7   ar
     8     7     8    1
     9     8     9    2
    10     8    10    1
    11     9    12    2
    12    10    11    1
    13    12    11    1
    14    12    13    1
    15    15    13   ar
    16    13    14   ar
