@<TRIPOS>MOLECULE
4dhw_0L1_A_1.pdb
 10 9 0 0 0
SMALL
GASTEIGER

@<TRIPOS>ATOM
      1  O1        13.3080   14.3940   -1.6100 O.co2 201  0L1201     -0.2457
      2  C2        13.1570   13.4370   -2.4060 C.2   201  0L1201      0.3649
      3  O2        13.9100   13.2130   -3.3800 O.co2 201  0L1201     -0.2457
      4  C3        11.8700   12.6040   -2.2970 C.3   201  0L1201      0.1141
      5  C4        11.5400   12.2690   -0.8370 C.3   201  0L1201      0.0124
      6  C5        10.3320   13.0750   -0.3400 C.3   201  0L1201      0.0124
      7  C6        10.6300   13.7010    1.0310 C.3   201  0L1201      0.1141
      8  C7        10.4970   12.7230    2.2060 C.2   201  0L1201      0.3649
      9  O4        11.3420   11.7940    2.2510 O.co2 201  0L1201     -0.2457
     10  O3         9.8880   13.1310    3.2230 O.co2 201  0L1201     -0.2457
@<TRIPOS>BOND
     1     3     2   ar
     2     2     4    1
     3     2     1   ar
     4     4     5    1
     5     5     6    1
     6     6     7    1
     7     7     8    1
     8     8     9   ar
     9     8    10   ar
