@<TRIPOS>MOLECULE
4dhy_GLC_A_1.pdb
 12 12 0 0 0
SMALL
GASTEIGER

@<TRIPOS>ATOM
      1  C1       -28.0050   -5.6310   12.0860 C.3   501  GLC501      0.3024
      2  C2       -26.9770   -6.4120   12.9170 C.3   501  GLC501      0.2434
      3  C3       -25.9610   -5.4630   13.5460 C.3   501  GLC501      0.2199
      4  C4       -25.3330   -4.5540   12.4920 C.3   501  GLC501      0.2144
      5  C5       -26.4160   -3.8530   11.6700 C.3   501  GLC501      0.1836
      6  C6       -25.8790   -3.0640   10.5000 C.3   501  GLC501      0.2142
      7  O1       -28.8430   -4.8330   12.9260 O.3   501  GLC501     -0.1869
      8  O2       -27.6350   -7.1750   13.9210 O.3   501  GLC501     -0.2148
      9  O3       -24.9490   -6.2050   14.2150 O.3   501  GLC501     -0.2174
     10  O4       -24.4780   -3.6030   13.1170 O.3   501  GLC501     -0.2176
     11  O5       -27.3290   -4.8190   11.1220 O.3   501  GLC501     -0.3236
     12  O6       -25.1150   -3.8620    9.6040 O.3   501  GLC501     -0.2176
@<TRIPOS>BOND
     1    12     6    1
     2     6     5    1
     3    11     5    1
     4    11     1    1
     5     5     4    1
     6     1     2    1
     7     1     7    1
     8     4    10    1
     9     4     3    1
    10     2     3    1
    11     2     8    1
    12     3     9    1
