@<TRIPOS>MOLECULE
4dhy_S41_A_1.pdb
 32 35 0 0 0
SMALL
GASTEIGER

@<TRIPOS>ATOM
      1  C1       -11.2410    3.6010   20.9390 C.ar  502  S41502      0.1480
      2  C2       -10.8290    4.2770   19.7580 C.ar  502  S41502      0.0717
      3  C3        -9.8260    3.7390   18.9300 C.ar  502  S41502      0.1482
      4  C4        -9.2860    2.5090   19.2460 C.ar  502  S41502      0.0446
      5  C5        -9.6570    1.8620   20.4400 C.ar  502  S41502      0.0881
      6  C6       -10.6490    2.3900   21.2780 C.ar  502  S41502      0.0446
      7  O7       -12.1800    4.3590   21.5360 O.2   502  S41502     -0.4576
      8  C8       -12.4550    5.4430   20.7850 C.ar  502  S41502      0.1234
      9  C9       -11.6490    5.4830   19.7010 C.ar  502  S41502      0.0390
     10  C10      -13.4850    6.4870   21.1410 C.3   502  S41502      0.0725
     11  C11       -9.0910    0.5430   20.7360 C.2   502  S41502      0.3755
     12  O12       -9.5410    4.3580   17.7500 O.3   502  S41502     -0.4540
     13  O13       -8.5130   -0.0410   19.8450 O.2   502  S41502     -0.2377
     14  N14       -9.3050   -0.0050   21.9500 N.am  502  S41502      0.0337
     15  C15       -8.2860    4.4330   17.2090 C.2   502  S41502      0.1679
     16  C16       -7.1140    4.3730   17.9870 C.2   502  S41502      0.1446
     17  N17       -5.9340    4.4380   17.4040 N.2   502  S41502     -0.1859
     18  C18       -5.8440    4.6160   16.0900 C.1   502  S41502      0.0865
     19  N19       -6.9300    4.7120   15.3130 N.2   502  S41502     -0.2080
     20  C20       -8.1420    4.6440   15.8300 C.3   502  S41502      0.2020
     21  C21       -4.4920    4.7290   15.4690 C.2   502  S41502      0.3120
     22  N22       -3.7450    3.6050   15.2220 N.am  502  S41502     -0.2646
     23  O23       -4.0870    5.8530   15.1930 O.2   502  S41502     -0.2586
     24  C24       -4.2590    2.2660   15.5460 C.3   502  S41502      0.1159
     25  C25       -2.4230    3.7080   14.5910 C.3   502  S41502      0.1159
     26  C26       -8.8990   -1.2580   22.4000 C.2   502  S41502      0.3654
     27  N27       -9.3320   -1.5810   23.6160 N.2   502  S41502     -0.0575
     28  C28       -9.0200   -2.7640   24.1440 C.3   502  S41502      0.3036
     29  C29       -8.2570   -3.6740   23.4170 C.2   502  S41502      0.0857
     30  N30       -7.8190   -3.3640   22.1830 N.2   502  S41502     -0.2617
     31  C31       -8.1450   -2.1840   21.6470 C.3   502  S41502      0.2454
     32  C32       -7.9560   -5.0060   24.0580 C.3   502  S41502      0.0515
@<TRIPOS>BOND
     1    25    22    1
     2    23    21    2
     3    22    21   am
     4    22    24    1
     5    19    20    1
     6    19    18    2
     7    21    18    1
     8    20    15    1
     9    18    17    2
    10    15    12    1
    11    15    16    2
    12    17    16    1
    13    12     3    1
    14     3     4   ar
    15     3     2   ar
    16     4     5   ar
    17     9     2   ar
    18     9     8   ar
    19     2     1   ar
    20    13    11    2
    21     5    11    1
    22     5     6   ar
    23    11    14   am
    24     8    10    1
    25     8     7   ar
    26     1     6   ar
    27     1     7   ar
    28    31    30    1
    29    31    26    1
    30    14    26    1
    31    30    29    2
    32    26    27    2
    33    29    32    1
    34    29    28    1
    35    27    28    1
