@<TRIPOS>MOLECULE
4di2_0K9_A_1.pdb
 42 46 0 0 0
SMALL
GASTEIGER

@<TRIPOS>ATOM
      1  C24       27.5020    0.2960   11.6700 C.3   501  0K9501      0.0402
      2  C25       28.0810   -1.0320   11.1450 C.3   501  0K9501      0.0072
      3  C26       29.2960   -0.2830   10.5860 C.3   501  0K9501      0.0402
      4  C18       28.7770    1.0150   11.2310 C.3   501  0K9501      0.1363
      5  C19       29.6360    1.4710   12.4240 C.3   501  0K9501      0.0620
      6  O17       28.4980    2.0840   10.3030 O.3   501  0K9501     -0.4676
      7  C16       29.5780    2.8130    9.9040 C.ar  501  0K9501      0.2217
      8  N23       29.4230    3.5570    8.7930 N.ar  501  0K9501     -0.2107
      9  C22       30.4070    4.3020    8.3130 C.ar  501  0K9501      0.0977
     10  C21       31.6490    4.3450    8.9440 C.ar  501  0K9501     -0.0031
     11  C27       32.7720    5.2070    8.3370 C.3   501  0K9501      0.0279
     12  C28       33.5630    4.4350    7.2380 C.3   501  0K9501      0.0041
     13  C30       32.6220    3.7560    6.2300 C.3   501  0K9501      0.0003
     14  C31       34.4850    3.3860    7.8570 C.3   501  0K9501      0.0003
     15  C29       34.4350    5.4190    6.4540 C.3   501  0K9501      0.0003
     16  C20       31.8550    3.5890   10.1020 C.ar  501  0K9501     -0.0010
     17  C15       30.8030    2.8160   10.6060 C.ar  501  0K9501      0.0465
     18  C14       30.9990    1.9730   11.8970 C.3   501  0K9501      0.1030
     19  N4        31.7140    2.7350   12.9620 N.3   501  0K9501     -0.2120
     20  C3        31.0660    4.0210   13.3300 C.3   501  0K9501      0.1236
     21  C2        32.1010    4.9720   13.9810 C.3   501  0K9501      0.1894
     22  O5        33.2450    5.0620   13.1410 O.3   501  0K9501     -0.2197
     23  C1        31.5700    6.4040   14.2400 C.3   501  0K9501      0.1314
     24  N6        30.2940    6.3690   14.9830 N.am  501  0K9501     -0.2021
     25  C33       29.1130    6.5630   14.3880 C.2   501  0K9501      0.2686
     26  O34       28.9900    6.7860   13.1830 O.2   501  0K9501     -0.2707
     27  C35       27.8340    6.5140   15.2230 C.3   501  0K9501      0.1926
     28  C42       27.2390    5.1100   15.1770 C.3   501  0K9501      0.0421
     29  O36       28.1260    6.8720   16.5750 O.3   501  0K9501     -0.3443
     30  C37       27.8590    8.2570   16.7610 C.3   501  0K9501      0.1747
     31  C7        32.6220    7.2620   14.9790 C.3   501  0K9501      0.0506
     32  C8        32.0680    8.5880   15.5200 C.ar  501  0K9501     -0.0203
     33  C9        31.5920    8.6330   16.8270 C.ar  501  0K9501     -0.0022
     34  C13       32.0380    9.7420   14.7370 C.ar  501  0K9501     -0.0042
     35  C12       31.5230   10.9300   15.2700 C.ar  501  0K9501     -0.0003
     36  C11       31.0440   10.9650   16.5860 C.ar  501  0K9501      0.0020
     37  C10       31.0880    9.8050   17.3710 C.ar  501  0K9501      0.0235
     38  C32       30.5850    9.7720   18.6730 C.ar  501  0K9501      0.1107
     39  N38       29.5530   10.4620   19.1700 N.ar  501  0K9501     -0.2368
     40  C39       29.2560   10.1980   20.4580 C.ar  501  0K9501      0.1064
     41  C40       30.0150    9.2690   21.0590 C.ar  501  0K9501      0.0575
     42  S41       31.1360    8.7330   19.9090 S.2   501  0K9501     -0.0659
@<TRIPOS>BOND
     1    13    12    1
     2    15    12    1
     3    12    14    1
     4    12    11    1
     5     9     8   ar
     6     9    10   ar
     7    11    10    1
     8     8     7   ar
     9    10    16   ar
    10     7     6    1
    11     7    17   ar
    12    16    17   ar
    13     6     4    1
    14     3     2    1
    15     3     4    1
    16    17    18    1
    17     2     1    1
    18     4     1    1
    19     4     5    1
    20    18     5    1
    21    18    19    1
    22    19    20    1
    23    22    21    1
    24    26    25    2
    25    20    21    1
    26    21    23    1
    27    23    31    1
    28    23    24    1
    29    25    24   am
    30    25    27    1
    31    34    35   ar
    32    34    32   ar
    33    31    32    1
    34    28    27    1
    35    27    29    1
    36    35    36   ar
    37    32    33   ar
    38    29    30    1
    39    36    37   ar
    40    33    37   ar
    41    37    38    1
    42    38    39   ar
    43    38    42   ar
    44    39    40   ar
    45    42    41   ar
    46    40    41   ar
