@<TRIPOS>MOLECULE
4di5_1GA_A_1.pdb
 17 18 0 0 0
SMALL
GASTEIGER

@<TRIPOS>ATOM
      1  C01       37.7020   15.0910   18.3970 C.3   603  1GA603      0.0000
      2  C02       38.2080   15.5940   17.0880 C.3   603  1GA603      0.0000
      3  C03       38.7030   16.8350   17.0080 C.3   603  1GA603      0.0007
      4  C04       39.8870   17.2350   17.8640 C.3   603  1GA603      0.0087
      5  C05       41.0850   16.6040   17.2930 C.3   603  1GA603      0.0441
      6  C06       41.4410   16.9510   15.9970 C.2   603  1GA603     -0.0206
      7  C07       42.0070   16.0080   15.1550 C.2   603  1GA603      0.0144
      8  C08       42.2590   14.7200   15.6250 C.2   603  1GA603      0.0754
      9  N09       42.1790   13.6780   14.7330 N.2   603  1GA603     -0.2704
     10  C10       41.3350   12.5840   14.5220 C.3   603  1GA603      0.1254
     11  C11       39.8990   13.0020   14.6540 C.3   603  1GA603      0.0244
     12  C12       39.2440   12.8130   15.7900 C.3   603  1GA603      0.0020
     13  C13       37.8270   13.3390   15.8960 C.3   603  1GA603      0.0001
     14  C14       37.8500   14.8460   15.8300 C.3   603  1GA603      0.0000
     15  C15       39.1140   13.3610   13.4260 C.3   603  1GA603      0.0021
     16  C16       42.0760   14.4290   16.9790 C.2   603  1GA603      0.0144
     17  C17       41.5030   15.3810   17.8170 C.2   603  1GA603     -0.0206
@<TRIPOS>BOND
     1    15    11    1
     2    10    11    1
     3    10     9    1
     4    11    12    1
     5     9     8    2
     6     7     8    1
     7     7     6    2
     8     8    16    1
     9    12    13    1
    10    14    13    1
    11    14     2    1
    12     6     5    1
    13    16    17    2
    14     3     2    1
    15     3     4    1
    16     2     1    1
    17     5    17    1
    18     5     4    1
