@<TRIPOS>MOLECULE
4di7_NDP_A_1.pdb
 48 52 0 0 0
SMALL
GASTEIGER

@<TRIPOS>ATOM
      1  PA        10.5830   22.6480   24.7090 P.3   601  NDP601      0.2189
      2  O1A       10.4220   23.6150   25.8750 O.3   601  NDP601     -0.4371
      3  O2A        9.7660   21.3690   24.6420 O.2   601  NDP601     -0.5170
      4  O5B       10.3410   23.4840   23.3720 O.3   601  NDP601     -0.3112
      5  C5B       10.1610   22.8220   22.1330 C.3   601  NDP601      0.1813
      6  C4B        9.4470   23.7730   21.2010 C.3   601  NDP601      0.1820
      7  O4B        9.5080   23.2920   19.8590 O.3   601  NDP601     -0.3136
      8  C3B        7.9780   23.8900   21.5790 C.3   601  NDP601      0.2157
      9  O3B        7.7070   25.1810   22.1550 O.3   601  NDP601     -0.2175
     10  C2B        7.2340   23.7740   20.2730 C.3   601  NDP601      0.2314
     11  O2B        6.4340   24.9460   20.0900 O.3   601  NDP601     -0.2630
     12  C1B        8.3090   23.6580   19.1880 C.3   601  NDP601      0.3158
     13  N9A        7.8710   22.6720   18.1660 N.pl3 601  NDP601     -0.1439
     14  C8A        7.4320   21.4300   18.4010 C.3   601  NDP601      0.3377
     15  N7A        6.9890   20.8970   17.2290 N.2   601  NDP601     -0.2095
     16  C5A        7.1220   21.8260   16.2670 C.2   601  NDP601      0.2526
     17  C6A        6.8020   21.8630   14.9120 C.2   601  NDP601      0.4393
     18  N6A        6.2930   20.7690   14.2880 N.pl3 601  NDP601      0.2180
     19  N1A        7.0180   22.9950   14.2020 N.2   601  NDP601      0.0021
     20  C2A        7.5440   24.0710   14.8100 C.3   601  NDP601      0.5254
     21  N3A        7.8520   24.0680   16.1250 N.2   601  NDP601     -0.0055
     22  C4A        7.6580   22.9500   16.8690 C.2   601  NDP601      0.3518
     23  O3        12.1350   22.2660   24.5680 O.3   601  NDP601     -0.2703
     24  PN        13.2450   23.1600   25.3160 P.3   601  NDP601      0.2189
     25  O1N       13.3650   22.6450   26.7330 O.3   601  NDP601     -0.4371
     26  O2N       12.9270   24.6220   25.0680 O.2   601  NDP601     -0.5170
     27  O5D       14.5890   22.7980   24.4990 O.3   601  NDP601     -0.3112
     28  C5D       14.6070   22.7040   23.0690 C.3   601  NDP601      0.1813
     29  C4D       15.8490   21.9170   22.6620 C.3   601  NDP601      0.1799
     30  O4D       16.7670   21.8580   23.7750 O.3   601  NDP601     -0.3327
     31  C3D       15.4860   20.4800   22.3110 C.3   601  NDP601      0.2158
     32  O3D       16.2010   20.0950   21.1310 O.3   601  NDP601     -0.2175
     33  C2D       15.9980   19.6410   23.4550 C.3   601  NDP601      0.2309
     34  O2D       16.5370   18.4320   22.9310 O.3   601  NDP601     -0.2158
     35  C1D       17.1100   20.4860   24.0490 C.3   601  NDP601      0.2263
     36  N1N       17.3650   20.1660   25.4750 N.pl3 601  NDP601     -0.2787
     37  C2N       16.8510   20.9030   26.4820 C.3   601  NDP601      0.1244
     38  C3N       17.1400   20.5870   27.8200 C.2   601  NDP601      0.0544
     39  C7N       16.5600   21.4030   28.9430 C.2   601  NDP601      0.2818
     40  O7N       16.9750   21.2660   30.0850 O.2   601  NDP601     -0.2670
     41  N7N       15.6010   22.2730   28.6580 N.am  601  NDP601     -0.0839
     42  C4N       17.9640   19.5050   28.1100 C.2   601  NDP601      0.0033
     43  C5N       18.5020   18.7780   27.0550 C.2   601  NDP601      0.0157
     44  C6N       18.1870   19.1340   25.7450 C.2   601  NDP601      0.0633
     45  P2B        5.0000   24.8700   19.3650 P.3   601  NDP601      0.5328
     46  O1X        4.4400   23.5070   19.7060 O.3   601  NDP601     -0.1145
     47  O2X        4.2350   26.0030   19.9990 O.3   601  NDP601     -0.1145
     48  O3X        5.3330   25.0520   17.9000 O.2   601  NDP601     -0.2224
@<TRIPOS>BOND
     1    19    20    1
     2    19    17    2
     3    18    17    1
     4    20    21    1
     5    17    16    1
     6    21    22    2
     7    16    22    1
     8    16    15    2
     9    22    13    1
    10    15    14    1
    11    48    45    2
    12    13    14    1
    13    13    12    1
    14    12     7    1
    15    12    10    1
    16    45    46    1
    17    45    47    1
    18    45    11    1
    19     7     6    1
    20    11    10    1
    21    10     8    1
    22    32    31    1
    23     6     8    1
    24     6     5    1
    25     8     9    1
    26     5     4    1
    27    31    29    1
    28    31    33    1
    29    29    28    1
    30    29    30    1
    31    34    33    1
    32    28    27    1
    33     4     1    1
    34    33    35    1
    35    30    35    1
    36    35    36    1
    37    27    24    1
    38    23     1    1
    39    23    24    1
    40     3     1    2
    41     1     2    1
    42    26    24    2
    43    24    25    1
    44    36    44    1
    45    36    37    1
    46    44    43    2
    47    37    38    1
    48    43    42    1
    49    38    42    2
    50    38    39    1
    51    41    39   am
    52    39    40    2
