@<TRIPOS>MOLECULE
4di8_0GY_A_1.pdb
 14 13 0 0 0
SMALL
GASTEIGER

@<TRIPOS>ATOM
      1  C2        22.1950    8.4660   -4.1760 C.2   403  0GY403      0.3882
      2  C3        23.4720    8.4140   -4.9100 C.2   403  0GY403      0.0928
      3  C4        23.5750    7.8740   -6.1340 C.2   403  0GY403      0.0897
      4  C5        22.4510    7.1250   -6.7440 C.2   403  0GY403      0.0558
      5  C6        21.2710    7.7060   -7.0450 C.2   403  0GY403      0.2749
      6  O6B       19.0160    7.1960   -7.3640 O.co2 403  0GY403     -0.2369
      7  C6A       20.2040    6.9140   -7.6460 C.2   403  0GY403      0.4261
      8  O6A       20.5080    5.9790   -8.4260 O.co2 403  0GY403     -0.2369
      9  O6        21.0400    8.9970   -6.8150 O.2   403  0GY403     -0.2795
     10  C4A       24.8460    8.0400   -6.8480 C.2   403  0GY403      0.3881
     11  O4A       25.5520    9.0520   -6.6040 O.co2 403  0GY403     -0.2405
     12  O4B       25.2050    7.1640   -7.6630 O.co2 403  0GY403     -0.2405
     13  O2        22.1200    9.2220   -3.1940 O.co2 403  0GY403     -0.2405
     14  O1        21.2340    7.7540   -4.5330 O.co2 403  0GY403     -0.2405
@<TRIPOS>BOND
     1     8     7   ar
     2    12    10   ar
     3     7     6   ar
     4     7     5    1
     5     5     9    1
     6     5     4    2
     7    10    11   ar
     8    10     3    1
     9     4     3    1
    10     3     2    2
    11     2     1    1
    12    14     1   ar
    13     1    13   ar
