@<TRIPOS>MOLECULE
4di8_0GZ_A_1.pdb
 13 13 0 0 0
SMALL
GASTEIGER

@<TRIPOS>ATOM
      1  C8        24.9340    8.0900   -6.9490 C.2   401  0GZ401      0.3881
      2  C11       20.1280    6.9150   -7.5910 C.2   401  0GZ401      0.4218
      3  C6        21.2120    7.4840   -6.7190 C.ar  401  0GZ401      0.2282
      4  C4        23.5280    8.0470   -6.4200 C.ar  401  0GZ401      0.0895
      5  C2        21.9230    8.5140   -4.6920 C.ar  401  0GZ401      0.3463
      6  C5        22.5160    7.5070   -7.1980 C.ar  401  0GZ401      0.0513
      7  C3        23.2340    8.5510   -5.1560 C.ar  401  0GZ401      0.0890
      8  O10       25.6790    9.0450   -6.6080 O.co2 401  0GZ401     -0.2405
      9  O9        25.3080    7.1940   -7.7340 O.co2 401  0GZ401     -0.2405
     10  O7        21.6330    9.0030   -3.4600 O.2   401  0GZ401     -0.2445
     11  O1        20.9240    7.9840   -5.4690 O.2   401  0GZ401     -0.4142
     12  O13       18.9340    7.2030   -7.3350 O.co2 401  0GZ401     -0.2371
     13  O12       20.4360    6.1880   -8.5660 O.co2 401  0GZ401     -0.2371
@<TRIPOS>BOND
     1    13     2   ar
     2     9     1   ar
     3     2    12   ar
     4     2     3    1
     5     6     3   ar
     6     6     4   ar
     7     1     8   ar
     8     1     4    1
     9     3    11   ar
    10     4     7   ar
    11    11     5   ar
    12     7     5   ar
    13     5    10    2
