@<TRIPOS>MOLECULE
4di9_0GY_A_1.pdb
 14 13 0 0 0
SMALL
GASTEIGER

@<TRIPOS>ATOM
      1  C2        14.4220   -8.4590   21.4080 C.2   401  0GY401      0.3658
      2  C3        13.3280   -8.6900   22.3860 C.3   401  0GY401      0.1298
      3  C4        12.1920   -7.9640   22.4860 C.3   401  0GY401      0.1399
      4  C5        11.6500   -7.2160   21.3200 C.2   401  0GY401      0.0343
      5  C6        11.4940   -7.7660   20.0850 C.2   401  0GY401      0.2710
      6  O6B       10.2310   -6.0070   19.1890 O.co2 401  0GY401     -0.2369
      7  C6A       10.9300   -6.9990   18.9480 C.2   401  0GY401      0.4257
      8  O6A       11.1580   -7.3900   17.7800 O.co2 401  0GY401     -0.2369
      9  O6        11.8060   -9.1180   19.8010 O.2   401  0GY401     -0.2798
     10  C4A       11.3710   -8.1110   23.6920 C.2   401  0GY401      0.3690
     11  O4A       11.4610   -9.1470   24.3990 O.co2 401  0GY401     -0.2453
     12  O4B       10.6030   -7.1670   23.9730 O.co2 401  0GY401     -0.2453
     13  O2        15.3890   -9.2260   21.4040 O.co2 401  0GY401     -0.2456
     14  O1        14.3890   -7.4790   20.6230 O.co2 401  0GY401     -0.2456
@<TRIPOS>BOND
     1     8     7   ar
     2     7     6   ar
     3     7     5    1
     4     9     5    1
     5     5     4    2
     6    14     1   ar
     7     4     3    1
     8    13     1   ar
     9     1     2    1
    10     2     3    1
    11     3    10    1
    12    10    12   ar
    13    10    11   ar
