@<TRIPOS>MOLECULE
4did_GDP_A_1.pdb
 28 30 0 0 0
SMALL
GASTEIGER

@<TRIPOS>ATOM
      1  PB        28.5450  -12.5420    7.1670 P.3   200  GDP200      0.5373
      2  O1B       30.0340  -12.6730    6.9450 O.3   200  GDP200     -0.1143
      3  O2B       28.0580  -13.7570    7.9310 O.3   200  GDP200     -0.1143
      4  O3B       27.8550  -12.4400    5.8150 O.2   200  GDP200     -0.2221
      5  O3A       28.1350  -11.2190    7.9730 O.3   200  GDP200     -0.2261
      6  PA        27.9120  -11.1040    9.5730 P.3   200  GDP200      0.2231
      7  O1A       29.0510  -11.7860   10.3110 O.3   200  GDP200     -0.4370
      8  O2A       26.5470  -11.6310   10.0020 O.2   200  GDP200     -0.5169
      9  O5'       27.9320   -9.4960    9.7360 O.3   200  GDP200     -0.3111
     10  C5'       29.1460   -8.7740    9.4460 C.3   200  GDP200      0.1813
     11  C4'       29.1400   -7.3820   10.0810 C.3   200  GDP200      0.1799
     12  O4'       27.9850   -6.6360    9.6520 O.3   200  GDP200     -0.3326
     13  C3'       29.0610   -7.5010   11.5920 C.3   200  GDP200      0.2158
     14  O3'       29.9390   -6.5330   12.1870 O.3   200  GDP200     -0.2175
     15  C2'       27.6070   -7.1860   11.9060 C.3   200  GDP200      0.2310
     16  O2'       27.4070   -6.6010   13.1910 O.3   200  GDP200     -0.2158
     17  C1'       27.2130   -6.2270   10.7900 C.3   200  GDP200      0.2293
     18  N9        25.7870   -6.3570   10.4470 N.pl3 200  GDP200     -0.2354
     19  C8        25.1480   -7.4840   10.0480 C.3   200  GDP200      0.2246
     20  N7        23.8320   -7.2130    9.7920 N.2   200  GDP200     -0.2322
     21  C5        23.6310   -5.9040   10.0260 C.2   200  GDP200      0.2182
     22  C6        22.4880   -4.9770    9.9540 C.1   200  GDP200      0.2372
     23  O6        21.3540   -5.3910    9.5960 O.2   200  GDP200     -0.2069
     24  N1        22.7090   -3.6950   10.2780 N.2   200  GDP200     -0.2485
     25  C2        23.9160   -3.2290   10.6630 C.1   200  GDP200      0.2531
     26  N2        24.0520   -1.9160   10.9750 N.pl3 200  GDP200     -0.0226
     27  N3        25.0080   -4.0250   10.7570 N.2   200  GDP200     -0.3074
     28  C4        24.9220   -5.3400   10.4520 C.2   200  GDP200      0.2300
@<TRIPOS>BOND
     1     4     1    2
     2     2     1    1
     3     1     3    1
     4     1     5    1
     5     5     6    1
     6    10     9    1
     7    10    11    1
     8     6     9    1
     9     6     8    2
    10     6     7    1
    11    23    22    2
    12    12    11    1
    13    12    17    1
    14    20    21    2
    15    20    19    1
    16    22    21    1
    17    22    24    2
    18    21    28    1
    19    19    18    1
    20    11    13    1
    21    24    25    2
    22    18    28    1
    23    18    17    1
    24    28    27    2
    25    25    27    2
    26    25    26    1
    27    17    15    1
    28    13    15    1
    29    13    14    1
    30    15    16    1
