@<TRIPOS>MOLECULE
4die_C5P_A_1.pdb
 21 22 0 0 0
SMALL
GASTEIGER

@<TRIPOS>ATOM
      1  O3P      -11.6400   33.8650   -3.9510 O.2   301  C5P301     -0.2224
      2  P        -11.7700   32.6420   -3.0630 P.3   301  C5P301      0.5327
      3  O1P      -10.4880   31.8540   -2.8740 O.3   301  C5P301     -0.1145
      4  O2P      -12.5300   32.8910   -1.7750 O.3   301  C5P301     -0.1145
      5  O5'      -12.7070   31.6330   -3.9120 O.3   301  C5P301     -0.2675
      6  C5'      -12.1570   30.4750   -4.5500 C.3   301  C5P301      0.1859
      7  C4'      -13.1150   29.9920   -5.6430 C.3   301  C5P301      0.1801
      8  O4'      -14.2460   30.8760   -5.7560 O.3   301  C5P301     -0.3320
      9  C3'      -12.4940   29.8750   -7.0420 C.3   301  C5P301      0.2158
     10  O3'      -11.9880   28.5580   -7.3340 O.3   301  C5P301     -0.2175
     11  C2'      -13.6410   30.2370   -7.9710 C.3   301  C5P301      0.2319
     12  O2'      -14.2060   29.0450   -8.5480 O.3   301  C5P301     -0.2157
     13  C1'      -14.6800   30.9770   -7.1220 C.3   301  C5P301      0.2400
     14  N1       -14.8860   32.3970   -7.4860 N.am  301  C5P301     -0.1778
     15  C2       -15.4470   32.7750   -8.7480 C.1   301  C5P301      0.2756
     16  N3       -15.6370   34.0960   -9.0410 N.2   301  C5P301     -0.3024
     17  C4       -15.3180   35.0730   -8.1290 C.2   301  C5P301      0.2346
     18  C5       -14.7660   34.7170   -6.8920 C.2   301  C5P301      0.0687
     19  C6       -14.5600   33.3670   -6.5940 C.2   301  C5P301      0.0836
     20  O2       -15.7610   31.9120   -9.6010 O.2   301  C5P301     -0.1925
     21  N4       -15.5170   36.3930   -8.4110 N.pl3 301  C5P301     -0.0921
@<TRIPOS>BOND
     1    20    15    2
     2    16    15    2
     3    16    17    2
     4    15    14   am
     5    12    11    1
     6    21    17    1
     7    17    18    1
     8    11    13    1
     9    11     9    1
    10    14    13    1
    11    14    19    1
    12    10     9    1
    13    13     8    1
    14     9     7    1
    15    18    19    2
    16     8     7    1
    17     7     6    1
    18     6     5    1
    19     1     2    2
    20     5     2    1
    21     2     3    1
    22     2     4    1
