@<TRIPOS>MOLECULE
4dif_NDP_A_1.pdb
 48 52 0 0 0
SMALL
GASTEIGER

@<TRIPOS>ATOM
      1  PA       -19.5140   17.6510  -18.0720 P.3   501  NDP501      0.2189
      2  O1A      -20.3700   18.5150  -17.2100 O.3   501  NDP501     -0.4371
      3  O2A      -19.8830   17.3740  -19.5010 O.2   501  NDP501     -0.5170
      4  O5B      -18.0240   18.1880  -18.0360 O.3   501  NDP501     -0.3112
      5  C5B      -17.0410   17.6640  -18.9170 C.3   501  NDP501      0.1813
      6  C4B      -16.0230   18.7580  -19.0970 C.3   501  NDP501      0.1820
      7  O4B      -14.9210   18.3180  -19.8800 O.3   501  NDP501     -0.3136
      8  C3B      -16.5970   19.9880  -19.7720 C.3   501  NDP501      0.2157
      9  O3B      -16.0370   21.1140  -19.0550 O.3   501  NDP501     -0.2175
     10  C2B      -16.0150   19.9120  -21.1810 C.3   501  NDP501      0.2314
     11  O2B      -15.9150   21.2200  -21.7710 O.3   501  NDP501     -0.2630
     12  C1B      -14.6640   19.2780  -20.8890 C.3   501  NDP501      0.3158
     13  N9A      -13.9670   18.6330  -22.0160 N.pl3 501  NDP501     -0.1439
     14  C8A      -14.4360   17.6440  -22.8030 C.3   501  NDP501      0.3377
     15  N7A      -13.4700   17.3200  -23.6920 N.2   501  NDP501     -0.2095
     16  C5A      -12.3940   18.0930  -23.4290 C.2   501  NDP501      0.2526
     17  C6A      -11.1420   18.2310  -24.0120 C.2   501  NDP501      0.4393
     18  N6A      -10.7890   17.4830  -25.0860 N.pl3 501  NDP501      0.2180
     19  N1A      -10.2670   19.1170  -23.4870 N.2   501  NDP501      0.0021
     20  C2A      -10.5650   19.8180  -22.3770 C.3   501  NDP501      0.5254
     21  N3A      -11.8070   19.7790  -21.8680 N.2   501  NDP501     -0.0055
     22  C4A      -12.6930   18.8570  -22.3280 C.2   501  NDP501      0.3518
     23  O3       -19.3660   16.2090  -17.3880 O.3   501  NDP501     -0.2703
     24  PN       -19.1190   15.8920  -15.8300 P.3   501  NDP501      0.2189
     25  O1N      -20.3300   15.1250  -15.3620 O.2   501  NDP501     -0.5170
     26  O2N      -18.6720   17.0910  -15.0530 O.3   501  NDP501     -0.4371
     27  O5D      -17.9310   14.8160  -15.9170 O.3   501  NDP501     -0.3112
     28  C5D      -16.6380   15.1910  -15.4640 C.3   501  NDP501      0.1813
     29  C4D      -15.7370   13.9710  -15.5040 C.3   501  NDP501      0.1799
     30  O4D      -16.2770   12.9650  -14.6280 O.3   501  NDP501     -0.3327
     31  C3D      -15.6820   13.3630  -16.8980 C.3   501  NDP501      0.2158
     32  O3D      -14.3170   12.9760  -17.1640 O.3   501  NDP501     -0.2175
     33  C2D      -16.5700   12.1290  -16.7800 C.3   501  NDP501      0.2309
     34  O2D      -16.1800   11.0580  -17.6520 O.3   501  NDP501     -0.2158
     35  C1D      -16.4720   11.7290  -15.3190 C.3   501  NDP501      0.2263
     36  N1N      -17.6740   11.0340  -14.8170 N.pl3 501  NDP501     -0.2787
     37  C2N      -18.8470   11.6730  -14.6300 C.3   501  NDP501      0.1244
     38  C3N      -19.9260   10.9930  -14.0740 C.2   501  NDP501      0.0544
     39  C7N      -21.2450   11.6540  -13.8210 C.2   501  NDP501      0.2818
     40  O7N      -22.1360   11.0020  -13.2850 O.2   501  NDP501     -0.2670
     41  N7N      -21.4170   12.9220  -14.1840 N.am  501  NDP501     -0.0839
     42  C4N      -19.8090    9.6460  -13.7580 C.2   501  NDP501      0.0033
     43  C5N      -18.5960    9.0210  -13.9690 C.2   501  NDP501      0.0157
     44  C6N      -17.5390    9.7330  -14.5140 C.2   501  NDP501      0.0633
     45  P2B      -15.6770   21.4480  -23.3710 P.3   501  NDP501      0.5328
     46  O1X      -15.8240   22.9490  -23.4960 O.3   501  NDP501     -0.1145
     47  O2X      -14.3070   20.9630  -23.7070 O.3   501  NDP501     -0.1145
     48  O3X      -16.7920   20.6920  -24.0740 O.2   501  NDP501     -0.2224
@<TRIPOS>BOND
     1    18    17    1
     2    48    45    2
     3    17    19    2
     4    17    16    1
     5    47    45    1
     6    15    16    2
     7    15    14    1
     8    46    45    1
     9    19    20    1
    10    16    22    1
    11    45    11    1
    12    14    13    1
    13    20    21    1
    14    22    13    1
    15    22    21    2
    16    13    12    1
    17    11    10    1
    18    10    12    1
    19    10     8    1
    20    12     7    1
    21     7     6    1
    22     8     6    1
    23     8     9    1
    24     3     1    2
    25     6     5    1
    26     5     4    1
    27     1     4    1
    28     1    23    1
    29     1     2    1
    30    34    33    1
    31    23    24    1
    32    32    31    1
    33    31    33    1
    34    31    29    1
    35    33    35    1
    36    27    24    1
    37    27    28    1
    38    24    25    2
    39    24    26    1
    40    29    28    1
    41    29    30    1
    42    35    36    1
    43    35    30    1
    44    36    37    1
    45    36    44    1
    46    37    38    1
    47    44    43    2
    48    41    39   am
    49    38    39    1
    50    38    42    2
    51    43    42    1
    52    39    40    2
