@<TRIPOS>MOLECULE
4dig_III_B_1.pdb
 44 44 0 0 0
SMALL
GASTEIGER

@<TRIPOS>ATOM
      1  N        -27.8140    7.4490   33.4080 N.3   681  LEU681     -0.1231
      2  CA       -26.9540    8.2120   32.5120 C.3   681  LEU681      0.1693
      3  C        -25.9080    9.0020   33.2920 C.2   681  LEU681      0.2592
      4  O        -25.5220   10.1010   32.8940 O.2   681  LEU681     -0.2718
      5  CB       -27.7880    9.1570   31.6450 C.3   681  LEU681      0.0284
      6  CG       -28.5870   10.2300   32.3870 C.3   681  LEU681      0.0019
      7  CD1      -27.6920   11.3990   32.7700 C.3   681  LEU681      0.0001
      8  CD2      -29.7620   10.7040   31.5440 C.3   681  LEU681      0.0001
      9  N        -25.4540    8.4350   34.4050 N.am  682  GLU682     -0.1966
     10  CA       -24.4340    9.0970   35.2580 C.3   682  GLU682      0.1733
     11  C        -23.0130    8.4590   35.2530 C.2   682  GLU682      0.2616
     12  O        -22.4050    8.2930   34.1930 O.2   682  GLU682     -0.2715
     13  CB       -24.9480    9.2380   36.7130 C.3   682  GLU682      0.0429
     14  CG       -26.4140    9.6580   36.8740 C.3   682  GLU682      0.1163
     15  CD       -26.6540   11.1610   36.7580 C.2   682  GLU682      0.3649
     16  OE1      -27.7510   11.5530   36.3050 O.co2 682  GLU682     -0.2457
     17  OE2      -25.7590   11.9570   37.1190 O.co2 682  GLU682     -0.2457
     18  N        -22.5440    8.0850   36.4520 N.am  683  ALA683     -0.1963
     19  CA       -21.1410    7.7160   36.8100 C.3   683  ALA683      0.1728
     20  C        -20.2470    6.8210   35.8920 C.2   683  ALA683      0.2616
     21  O        -20.7080    6.2270   34.9050 O.2   683  ALA683     -0.2715
     22  CB       -21.1250    7.1590   38.2350 C.3   683  ALA683      0.0334
     23  N        -18.9470    6.7810   36.2170 N.am  684  CYS684     -0.1954
     24  CA       -17.9920    5.8800   35.5640 C.3   684  CYS684      0.1843
     25  C        -18.4570    4.4330   35.8170 C.2   684  CYS684      0.2625
     26  O        -18.8760    4.0840   36.9500 O.2   684  CYS684     -0.2714
     27  CB       -16.5760    6.0650   36.1230 C.3   684  CYS684      0.0997
     28  SG       -15.3040    4.9740   35.4440 S.3   684  CYS684     -0.0797
     29  N        -18.3720    3.6200   34.7730 N.am  685  ALA685     -0.1963
     30  CA       -18.7180    2.2090   34.8250 C.3   685  ALA685      0.1728
     31  C        -17.7550    1.3880   35.6790 C.2   685  ALA685      0.2616
     32  O        -18.0900    0.2510   36.0710 O.2   685  ALA685     -0.2715
     33  CB       -18.8470    1.6020   33.4170 C.3   685  ALA685      0.0334
     34  N        -16.5790    1.9290   35.9910 N.am  686  PHE686     -0.1974
     35  CA       -15.6450    1.1450   36.7860 C.3   686  PHE686      0.1639
     36  C        -15.4740    1.6750   38.2150 C.2   686  PHE686      0.2290
     37  O        -14.9370    0.9050   39.0400 O.2   686  PHE686     -0.2864
     38  CB       -14.2800    0.9600   36.0980 C.3   686  PHE686      0.0560
     39  CG       -14.3890    0.6600   34.6320 C.ar  686  PHE686     -0.0200
     40  CD1      -14.8080   -0.6190   34.1970 C.ar  686  PHE686     -0.0042
     41  CD2      -14.1780    1.7030   33.6430 C.ar  686  PHE686     -0.0042
     42  CE1      -14.9510   -0.8740   32.8160 C.ar  686  PHE686     -0.0003
     43  CE2      -14.3140    1.4240   32.2990 C.ar  686  PHE686     -0.0003
     44  CZ       -14.6930    0.1380   31.8850 C.ar  686  PHE686     -0.0000
@<TRIPOS>BOND
     1     8     6    1
     2     5     6    1
     3     5     2    1
     4    44    43   ar
     5    44    42   ar
     6    43    41   ar
     7     6     7    1
     8     2     3    1
     9     2     1    1
    10    42    40   ar
    11     4     3    2
    12     3     9   am
    13    33    30    1
    14    41    39   ar
    15    12    11    2
    16    40    39   ar
    17     9    10    1
    18    39    38    1
    19    29    30    1
    20    29    25   am
    21    30    31    1
    22    21    20    2
    23    11    10    1
    24    11    18   am
    25    10    13    1
    26    28    27    1
    27    24    25    1
    28    24    27    1
    29    24    23    1
    30    31    34   am
    31    31    32    2
    32    25    26    2
    33    20    23   am
    34    20    19    1
    35    34    35    1
    36    38    35    1
    37    16    15   ar
    38    18    19    1
    39    13    14    1
    40    15    14    1
    41    15    17   ar
    42    35    36    1
    43    19    22    1
    44    36    37    2
