@<TRIPOS>MOLECULE
4dig_MU2_A_1.pdb
 34 34 0 0 0
SMALL
GASTEIGER

@<TRIPOS>ATOM
      1  C1       -17.6190   14.9100   15.1890 C.3   711  MU2711      0.2916
      2  O1       -17.2280   15.3600   16.4920 O.3   711  MU2711     -0.1879
      3  C2       -19.0900   15.2230   14.9630 C.3   711  MU2711      0.1839
      4  N2       -19.7190   15.5870   16.2190 N.am  711  MU2711     -0.1993
      5  C7       -19.9960   16.8480   16.5150 C.2   711  MU2711      0.2420
      6  O7       -19.1690   17.5930   17.0120 O.2   711  MU2711     -0.2733
      7  C8       -21.3910   17.2910   16.2010 C.3   711  MU2711      0.0964
      8  C3       -19.8090   14.0270   14.3480 C.3   711  MU2711      0.1734
      9  O3       -21.0580   14.4470   13.8090 O.3   711  MU2711     -0.3449
     10  C4       -18.9690   13.3910   13.2500 C.3   711  MU2711      0.2103
     11  O4       -19.6250   12.2060   12.7720 O.3   711  MU2711     -0.2178
     12  C5       -17.5790   13.0290   13.7600 C.3   711  MU2711      0.1834
     13  O5       -17.4200   13.5020   15.0960 O.3   711  MU2711     -0.3242
     14  C6       -16.4210   13.6180   13.1530 C.3   711  MU2711      0.2142
     15  O6       -15.2670   12.5820   13.5290 O.3   711  MU2711     -0.2176
     16  C18      -22.1190   13.5910   14.1680 C.3   711  MU2711      0.1926
     17  C20      -21.6520   12.1420   14.1800 C.3   711  MU2711      0.0421
     18  C19      -23.2220   13.7420   13.1690 C.2   711  MU2711      0.2689
     19  O18      -23.3820   14.8000   12.5930 O.2   711  MU2711     -0.2707
     20  N4       -23.9910   12.6710   12.9600 N.am  711  MU2711     -0.1957
     21  C21      -25.4360   12.7310   13.0830 C.3   711  MU2711      0.1729
     22  C23      -25.8440   14.0770   13.6660 C.3   711  MU2711      0.0334
     23  C22      -26.1070   12.5210   11.7640 C.2   711  MU2711      0.2617
     24  O19      -26.8090   11.5320   11.5700 O.2   711  MU2711     -0.2715
     25  N5       -25.8900   13.4560   10.8460 N.am  711  MU2711     -0.1941
     26  C24      -26.8010   13.6330    9.7460 C.3   711  MU2711      0.1983
     27  C25      -26.1820   14.5770    8.7250 C.3   711  MU2711      0.0429
     28  C26      -27.2440   15.1150    7.8010 C.3   711  MU2711      0.0909
     29  C27      -27.5430   16.5420    8.1820 C.2   711  MU2711      0.2608
     30  N20      -27.6190   17.4010    7.1900 N.am  711  MU2711     -0.0878
     31  O21      -27.7010   16.8600    9.3460 O.2   711  MU2711     -0.2717
     32  C28      -28.1200   14.1700   10.2110 C.2   711  MU2711      0.3842
     33  O22      -28.1230   15.2080   10.9100 O.co2 711  MU2711     -0.2437
     34  O23      -29.1660   13.5550    9.8840 O.co2 711  MU2711     -0.2437
@<TRIPOS>BOND
     1    30    29   am
     2    28    29    1
     3    28    27    1
     4    29    31    2
     5    27    26    1
     6    26    32    1
     7    26    25    1
     8    34    32   ar
     9    32    33   ar
    10    25    23   am
    11    24    23    2
    12    23    21    1
    13    19    18    2
    14    11    10    1
    15    20    21    1
    16    20    18   am
    17    21    22    1
    18    14    15    1
    19    14    12    1
    20    18    16    1
    21    10    12    1
    22    10     8    1
    23    12    13    1
    24     9    16    1
    25     9     8    1
    26    16    17    1
    27     8     3    1
    28     3     1    1
    29     3     4    1
    30    13     1    1
    31     1     2    1
    32     7     5    1
    33     4     5   am
    34     5     6    2
