@<TRIPOS>MOLECULE
4dih_0G6_H_1.pdb
 30 31 0 0 0
SMALL
GASTEIGER

@<TRIPOS>ATOM
      1  N         12.8910   21.5420    7.6560 N.3   301  0G6301     -0.1228
      2  CA        13.1710   20.9830    6.3530 C.3   301  0G6301      0.1721
      3  C         12.1100   19.8080    6.5710 C.2   301  0G6301      0.2437
      4  O         10.9630   19.6530    6.9900 O.2   301  0G6301     -0.2733
      5  CB        12.5140   21.8460    5.2670 C.3   301  0G6301      0.0547
      6  CG        12.6390   21.2680    3.8730 C.ar  301  0G6301     -0.0202
      7  CD1       11.4960   20.9230    3.1900 C.ar  301  0G6301     -0.0042
      8  CD2       13.8880   21.1170    3.2950 C.ar  301  0G6301     -0.0042
      9  CE1       11.5940   20.4330    1.9010 C.ar  301  0G6301     -0.0003
     10  CE2       13.9800   20.6200    2.0040 C.ar  301  0G6301     -0.0003
     11  CZ        12.8320   20.2810    1.3010 C.ar  301  0G6301     -0.0000
     12  N1        12.5400   18.6020    6.0930 N.am  301  0G6301     -0.2718
     13  CA1       11.7890   17.3430    6.2490 C.3   301  0G6301      0.1535
     14  C1        11.6640   16.9630    7.7260 C.2   301  0G6301      0.2595
     15  O1        12.5990   17.1920    8.4920 O.2   301  0G6301     -0.2716
     16  CB1       12.6670   16.2780    5.5870 C.3   301  0G6301      0.0310
     17  CG1       13.5140   17.1030    4.6190 C.3   301  0G6301      0.0237
     18  CD        13.8470   18.3360    5.4680 C.3   301  0G6301      0.0939
     19  N2        10.5210   16.3980    8.0360 N.am  301  0G6301     -0.2032
     20  CA2       10.2390   15.8820    9.3790 C.3   301  0G6301      0.1257
     21  C2        10.1980   14.3480    9.4160 C.3   301  0G6301      0.1718
     22  O2        10.2830   13.7970   10.7270 O.3   301  0G6301     -0.2213
     23  CB2        8.9170   16.4050    9.9140 C.3   301  0G6301      0.0280
     24  CG2        9.0620   17.9050   10.2020 C.3   301  0G6301      0.0488
     25  CD3        7.7060   18.4940   10.5960 C.3   301  0G6301      0.2205
     26  NE         7.9020   19.8790   11.0490 N.pl3 301  0G6301     -0.0865
     27  CZ1        6.9200   20.6930   11.4390 C.cat 301  0G6301      0.5346
     28  NH1        7.2330   21.8840   11.9560 N.pl3 301  0G6301      0.1354
     29  NH2        5.6430   20.3180   11.4240 N.pl3 301  0G6301      0.1354
     30  C3        11.1470   13.7220    8.3790 C.3   301  0G6301      0.0373
@<TRIPOS>BOND
     1    11     9   ar
     2    11    10   ar
     3     9     7   ar
     4    10     8   ar
     5     7     6   ar
     6     8     6   ar
     7     6     5    1
     8    17    18    1
     9    17    16    1
    10     5     2    1
    11    18    12    1
    12    16    13    1
    13    12    13    1
    14    12     3   am
    15    13    14    1
    16     2     3    1
    17     2     1    1
    18     3     4    2
    19    14    19   am
    20    14    15    2
    21    19    20    1
    22    30    21    1
    23    20    21    1
    24    20    23    1
    25    21    22    1
    26    23    24    1
    27    24    25    1
    28    25    26    1
    29    26    27    2
    30    29    27    1
    31    27    28    1
