@<TRIPOS>MOLECULE
4dii_0G6_H_1.pdb
 30 31 0 0 0
SMALL
GASTEIGER

@<TRIPOS>ATOM
      1  N         12.8910   21.5420    7.6560 N.3   301  0G6301     -0.1228
      2  CA        13.1710   20.9830    6.3530 C.3   301  0G6301      0.1721
      3  C         12.1100   19.8080    6.5710 C.2   301  0G6301      0.2437
      4  O         10.9630   19.6530    6.9900 O.2   301  0G6301     -0.2733
      5  CB        12.5140   21.8460    5.2670 C.3   301  0G6301      0.0547
      6  CG        12.6390   21.2680    3.8730 C.ar  301  0G6301     -0.0202
      7  CD1       11.4960   20.9230    3.1900 C.ar  301  0G6301     -0.0042
      8  CD2       13.8880   21.1170    3.2950 C.ar  301  0G6301     -0.0042
      9  CE1       11.5940   20.4330    1.9010 C.ar  301  0G6301     -0.0003
     10  CE2       13.9800   20.6200    2.0040 C.ar  301  0G6301     -0.0003
     11  CZ        12.8320   20.2810    1.3010 C.ar  301  0G6301     -0.0000
     12  N1        12.4460   18.7100    6.0750 N.am  301  0G6301     -0.2718
     13  CA1       11.7480   17.4150    6.1790 C.3   301  0G6301      0.1535
     14  C1        11.6280   16.9770    7.6390 C.2   301  0G6301      0.2595
     15  O1        12.5100   17.2740    8.4470 O.2   301  0G6301     -0.2716
     16  CB1       12.6670   16.4070    5.4780 C.3   301  0G6301      0.0310
     17  CG1       13.6030   17.2890    4.6460 C.3   301  0G6301      0.0237
     18  CD        13.8100   18.4950    5.5670 C.3   301  0G6301      0.0939
     19  N2        10.5280   16.2980    7.9480 N.am  301  0G6301     -0.2032
     20  CA2       10.3100   15.7610    9.2990 C.3   301  0G6301      0.1257
     21  C2        10.2610   14.2290    9.3480 C.3   301  0G6301      0.1718
     22  O2        10.2990   13.6760   10.6610 O.3   301  0G6301     -0.2213
     23  CB2        9.0000   16.3380    9.8940 C.3   301  0G6301      0.0280
     24  CG2        9.1120   17.8280   10.2340 C.3   301  0G6301      0.0488
     25  CD3        7.7560   18.4310   10.6270 C.3   301  0G6301      0.2205
     26  NE         7.9610   19.8100   11.1000 N.pl3 301  0G6301     -0.0865
     27  CZ1        6.9880   20.6610   11.4270 C.cat 301  0G6301      0.5346
     28  NH1        7.2890   21.8620   11.9210 N.pl3 301  0G6301      0.1354
     29  NH2        5.7080   20.3150   11.3300 N.pl3 301  0G6301      0.1354
     30  C3        11.2030   13.5920    8.3220 C.3   301  0G6301      0.0373
@<TRIPOS>BOND
     1    11     9   ar
     2    11    10   ar
     3     9     7   ar
     4    10     8   ar
     5     7     6   ar
     6     8     6   ar
     7     6     5    1
     8    17    16    1
     9    17    18    1
    10     5     2    1
    11    16    13    1
    12    18    12    1
    13    12    13    1
    14    12     3   am
    15    13    14    1
    16     2     3    1
    17     2     1    1
    18     3     4    2
    19    14    19   am
    20    14    15    2
    21    19    20    1
    22    30    21    1
    23    20    21    1
    24    20    23    1
    25    21    22    1
    26    23    24    1
    27    24    25    1
    28    25    26    1
    29    26    27    2
    30    29    27    1
    31    27    28    1
