@<TRIPOS>MOLECULE
4dij_BLF_A_1.pdb
 40 45 0 0 0
SMALL
GASTEIGER

@<TRIPOS>ATOM
      1 CL1        12.7090   -9.0750   18.8870 Cl    201  BLF201     -0.0822
      2  C2        12.0520   -7.6310   18.1510 C.ar  201  BLF201      0.0602
      3 CL2         8.7670   -6.0910   22.2560 Cl    201  BLF201     -0.0822
      4  C3        12.7340   -6.4230   18.3160 C.ar  201  BLF201      0.0434
      5  C5        12.1610   -5.3010   17.7070 C.ar  201  BLF201      0.1322
      6  N6        12.5870   -4.0290   17.7100 N.2   201  BLF201     -0.3975
      7  C8        11.7800   -3.2440   17.0240 C.2   201  BLF201      0.1838
      8  C9        10.7620   -3.9760   16.5050 C.2   201  BLF201      0.0346
      9  C10       10.9960   -5.3890   16.9740 C.ar  201  BLF201      0.0299
     10  C11       10.3070   -6.5850   16.7980 C.ar  201  BLF201      0.0032
     11  C13       10.8650   -7.7180   17.4000 C.ar  201  BLF201      0.0116
     12  C15        9.5420   -3.6910   15.7060 C.3   201  BLF201      0.1249
     13  N16        8.4990   -3.0080   16.1850 N.3   201  BLF201     -0.2407
     14  C17        7.5430   -2.9440   15.2960 C.3   201  BLF201      0.2013
     15  N19        7.8920   -3.5820   14.2700 N.2   201  BLF201     -0.2549
     16  C20        9.2090   -4.1250   14.4630 C.2   201  BLF201      0.0741
     17  C21        9.9100   -4.9320   13.3980 C.ar  201  BLF201      0.0148
     18  C22       11.3070   -4.9210   13.3500 C.ar  201  BLF201      0.0012
     19  C24       11.9860   -5.6430   12.3550 C.ar  201  BLF201      0.0000
     20  C26       11.2530   -6.3720   11.4080 C.ar  201  BLF201      0.0000
     21  C28        9.8570   -6.3800   11.4430 C.ar  201  BLF201      0.0000
     22  C30        9.1840   -5.6520   12.4330 C.ar  201  BLF201      0.0012
     23  C32        8.4020   -2.3500   17.4820 C.3   201  BLF201      0.1012
     24  C35        8.4870   -3.3210   18.6600 C.ar  201  BLF201     -0.0060
     25  C36        7.8890   -4.5910   18.6150 C.ar  201  BLF201     -0.0021
     26  C38        7.9810   -5.4480   19.7210 C.ar  201  BLF201      0.0111
     27  C40        8.6630   -5.0230   20.8690 C.ar  201  BLF201      0.0577
     28  C41        9.2600   -3.7520   20.9160 C.ar  201  BLF201      0.0111
     29  C43        9.1770   -2.8980   19.8040 C.ar  201  BLF201     -0.0021
     30  C46       12.0350   -1.8030   16.8540 C.2   201  BLF201      0.2943
     31  O47       12.9800   -1.3500   17.4920 O.2   201  BLF201     -0.2656
     32  N48       11.2970   -1.0570   16.0050 N.am  201  BLF201     -0.1980
     33  C50       11.5740    0.3650   15.8210 C.3   201  BLF201      0.1328
     34  C53       11.4420    0.7060   14.3170 C.3   201  BLF201      0.0959
     35  N56       10.0940    0.3220   13.8200 N.3   201  BLF201     -0.2669
     36  C57       10.0240    0.0680   12.3590 C.3   201  BLF201      0.1047
     37  C60        8.6370   -0.5130   11.9940 C.3   201  BLF201      0.1595
     38  O63        7.5890    0.3420   12.4850 O.3   201  BLF201     -0.3508
     39  C64        7.6240    0.5300   13.9140 C.3   201  BLF201      0.1595
     40  C67        8.9770    1.1740   14.3090 C.3   201  BLF201      0.1047
@<TRIPOS>BOND
     1    20    21   ar
     2    20    19   ar
     3    21    22   ar
     4    37    36    1
     5    37    38    1
     6    19    18   ar
     7    36    35    1
     8    22    17   ar
     9    38    39    1
    10    18    17   ar
    11    17    16    1
    12    35    40    1
    13    35    34    1
    14    39    40    1
    15    15    16    2
    16    15    14    1
    17    34    33    1
    18    16    12    1
    19    14    13    1
    20    12    13    1
    21    12     8    1
    22    33    32    1
    23    32    30   am
    24    13    23    1
    25     8     9    2
    26     8     7    1
    27    10     9   ar
    28    10    11   ar
    29    30     7    1
    30    30    31    2
    31     9     5   ar
    32     7     6    2
    33    11     2   ar
    34    23    24    1
    35     5     6    2
    36     5     4   ar
    37     2     4   ar
    38     2     1    1
    39    25    24   ar
    40    25    26   ar
    41    24    29   ar
    42    26    27   ar
    43    29    28   ar
    44    27    28   ar
    45    27     3    1
