@<TRIPOS>MOLECULE
4diq_PD2_A_1.pdb
 12 12 0 0 0
SMALL
GASTEIGER

@<TRIPOS>ATOM
      1  O42      -22.9850  -51.7050   -5.5110 O.co2 701  PD2701     -0.2406
      2  C41      -22.6550  -51.6300   -6.7160 C.2   701  PD2701      0.3879
      3  O41      -21.4420  -51.7360   -7.0460 O.co2 701  PD2701     -0.2406
      4  C4       -23.7440  -51.4580   -7.7530 C.ar  701  PD2701      0.0830
      5  C5       -23.3940  -51.3980   -9.0970 C.ar  701  PD2701      0.0273
      6  C6       -24.3710  -51.2240  -10.0680 C.ar  701  PD2701      0.0993
      7  C3       -25.1040  -51.3850   -7.4060 C.ar  701  PD2701      0.0325
      8  C2       -26.0590  -51.2460   -8.4170 C.ar  701  PD2701      0.1610
      9  N1       -25.6510  -51.1740   -9.7160 N.ar  701  PD2701     -0.2372
     10  C21      -27.5500  -51.1140   -8.1730 C.2   701  PD2701      0.4051
     11  O21      -28.1560  -51.2990   -7.0680 O.co2 701  PD2701     -0.2388
     12  O22      -28.1510  -50.7590   -9.1990 O.co2 701  PD2701     -0.2388
@<TRIPOS>BOND
     1     6     9   ar
     2     6     5   ar
     3     9     8   ar
     4    12    10   ar
     5     5     4   ar
     6     8    10    1
     7     8     7   ar
     8    10    11   ar
     9     4     7   ar
    10     4     2    1
    11     3     2   ar
    12     2     1   ar
