@<TRIPOS>MOLECULE
4dit_0KD_A_1.pdb
 23 26 0 0 0
SMALL
GASTEIGER

@<TRIPOS>ATOM
      1  C1        10.6270   -3.2410  -14.1720 C.ar  501  0KD501      0.0196
      2  C2         9.7340   -3.7100  -15.1050 C.ar  501  0KD501      0.0362
      3  S3         8.6840   -4.9030  -14.4790 S.2   501  0KD501     -0.0851
      4  C4         9.4330   -4.7990  -12.9280 C.ar  501  0KD501      0.0475
      5  C5        10.4630   -3.8630  -12.8960 C.ar  501  0KD501      0.0933
      6  C6        11.2440   -3.5920  -11.7030 C.1   501  0KD501      0.1491
      7  N7        12.2480   -2.6690  -11.6560 N.2   501  0KD501     -0.2841
      8  C8        12.7490   -2.6590  -10.3860 C.1   501  0KD501      0.1275
      9  C9        11.9940   -3.6270   -9.6760 C.2   501  0KD501      0.2075
     10  N10       11.0330   -4.1970  -10.5760 N.2   501  0KD501     -0.3316
     11  N11       13.7560   -1.8780   -9.9270 N.2   501  0KD501     -0.1801
     12  C12       14.0280   -2.0900   -8.6200 C.2   501  0KD501      0.1070
     13  C13       13.3480   -3.0300   -7.7910 C.2   501  0KD501      0.0120
     14  C14       12.2870   -3.8490   -8.3010 C.3   501  0KD501      0.1659
     15  C15       11.6150   -4.8390   -7.3740 C.2   501  0KD501      0.2569
     16  N16       10.6030   -5.6470   -7.9190 N.am  501  0KD501     -0.1770
     17  C17        9.8590   -6.6790   -7.2440 C.ar  501  0KD501      0.0925
     18  C18        9.2190   -7.7130   -8.0350 C.ar  501  0KD501      0.0198
     19  C19        8.4910   -8.7520   -7.3730 C.ar  501  0KD501      0.0220
     20  C20        8.4200   -8.7340   -5.9540 C.ar  501  0KD501      0.0990
     21  N21        9.0110   -7.7770   -5.1930 N.ar  501  0KD501     -0.2410
     22  C22        9.7110   -6.7790   -5.8080 C.ar  501  0KD501      0.1154
     23  O23       11.9910   -4.9040   -6.2050 O.2   501  0KD501     -0.2722
@<TRIPOS>BOND
     1     2     3   ar
     2     2     1   ar
     3     3     4   ar
     4     1     5   ar
     5     4     5   ar
     6     5     6    1
     7     6     7    2
     8     6    10    2
     9     7     8    2
    10    10     9    2
    11     8    11    2
    12     8     9    1
    13    11    12    1
    14     9    14    1
    15    12    13    2
    16    14    13    1
    17    14    15    1
    18    18    19   ar
    19    18    17   ar
    20    16    15   am
    21    16    17    1
    22    15    23    2
    23    19    20   ar
    24    17    22   ar
    25    20    21   ar
    26    22    21   ar
