@<TRIPOS>MOLECULE
4dj4_MAN_B_1.pdb
 11 11 0 0 0
SMALL
GASTEIGER

@<TRIPOS>ATOM
      1  C1        -9.3780   26.2680  -29.9190 C.3   514  MAN514      0.1777
      2  C2        -8.0770   25.4970  -29.6850 C.3   514  MAN514      0.2141
      3  C3        -8.0560   24.9780  -28.2460 C.3   514  MAN514      0.2173
      4  C4        -8.2900   26.1010  -27.2410 C.3   514  MAN514      0.2142
      5  C5        -9.4940   26.9770  -27.6310 C.3   514  MAN514      0.1810
      6  C6        -9.6350   28.2110  -26.7290 C.3   514  MAN514      0.2141
      7  O2        -6.9460   26.3100  -29.9600 O.3   514  MAN514     -0.2176
      8  O3        -6.8300   24.3540  -27.9530 O.3   514  MAN514     -0.2175
      9  O4        -8.5060   25.4970  -25.9870 O.3   514  MAN514     -0.2176
     10  O5        -9.4350   27.3570  -29.0030 O.3   514  MAN514     -0.3481
     11  O6        -9.2140   29.4020  -27.3590 O.3   514  MAN514     -0.2176
@<TRIPOS>BOND
     1     7     2    1
     2     1     2    1
     3     1    10    1
     4     2     3    1
     5    10     5    1
     6     3     8    1
     7     3     4    1
     8     5     4    1
     9     5     6    1
    10    11     6    1
    11     4     9    1
