@<TRIPOS>MOLECULE
4dj7_SIA_A_1.pdb
 20 20 0 0 0
SMALL
GASTEIGER

@<TRIPOS>ATOM
      1  C1        56.7560  -19.8760   85.2120 C.2   405  SIA405      0.3914
      2  C2        56.4630  -20.0570   86.6880 C.3   405  SIA405      0.2203
      3  C3        57.7060  -19.4430   87.3420 C.3   405  SIA405      0.0760
      4  C4        57.8280  -18.0120   86.8180 C.3   405  SIA405      0.1773
      5  C5        56.6230  -17.2300   87.3210 C.3   405  SIA405      0.1552
      6  C6        55.4440  -17.8800   86.6040 C.3   405  SIA405      0.1710
      7  C7        54.1520  -17.0820   86.7270 C.3   405  SIA405      0.2134
      8  C8        52.9380  -17.7810   86.1200 C.3   405  SIA405      0.2173
      9  C9        51.7520  -16.8270   86.0490 C.3   405  SIA405      0.2175
     10  C10       56.1850  -14.8650   87.7850 C.2   405  SIA405      0.2420
     11  C11       55.5080  -15.3010   89.0520 C.3   405  SIA405      0.0964
     12  N5        56.7210  -15.8150   87.0170 N.am  405  SIA405     -0.2020
     13  O1A       55.9670  -19.1710   84.5350 O.co2 405  SIA405     -0.2430
     14  O1B       57.8260  -20.3570   84.7430 O.co2 405  SIA405     -0.2430
     15  O4        59.0860  -17.4010   87.1040 O.3   405  SIA405     -0.2211
     16  O6        55.3270  -19.2380   87.0470 O.3   405  SIA405     -0.3429
     17  O7        53.8850  -16.7930   88.0950 O.3   405  SIA405     -0.2176
     18  O8        53.2450  -18.2490   84.8050 O.3   405  SIA405     -0.2175
     19  O9        50.5800  -17.5850   85.7600 O.3   405  SIA405     -0.2175
     20  O10       56.2490  -13.6820   87.4950 O.2   405  SIA405     -0.2733
@<TRIPOS>BOND
     1    13     1   ar
     2    14     1   ar
     3    18     8    1
     4     1     2    1
     5    19     9    1
     6     9     8    1
     7     8     7    1
     8     6     7    1
     9     6    16    1
    10     6     5    1
    11     2    16    1
    12     2     3    1
    13     7    17    1
    14     4    15    1
    15     4     5    1
    16     4     3    1
    17    12     5    1
    18    12    10   am
    19    20    10    2
    20    10    11    1
