@<TRIPOS>MOLECULE
4dj7_GAL_A_1.pdb
 11 11 0 0 0
SMALL
GASTEIGER

@<TRIPOS>ATOM
      1  C1        54.9650  -23.6040   89.8270 C.3   407  GAL407      0.1777
      2  C2        55.7380  -23.1910   88.5650 C.3   407  GAL407      0.2141
      3  C3        55.5590  -21.7070   88.2190 C.3   407  GAL407      0.2173
      4  C4        54.0780  -21.3470   88.2910 C.3   407  GAL407      0.2142
      5  C5        53.5360  -21.7590   89.6500 C.3   407  GAL407      0.1810
      6  C6        52.1060  -21.2740   89.8660 C.3   407  GAL407      0.2141
      7  O2        57.1110  -23.4990   88.6970 O.3   407  GAL407     -0.2176
      8  O3        56.0670  -21.4420   86.9180 O.3   407  GAL407     -0.2175
      9  O4        53.3900  -22.0780   87.3020 O.3   407  GAL407     -0.2176
     10  O5        53.6220  -23.1650   89.7350 O.3   407  GAL407     -0.3481
     11  O6        51.3690  -22.2350   90.5920 O.3   407  GAL407     -0.2176
@<TRIPOS>BOND
     1     8     3    1
     2     9     4    1
     3     3     4    1
     4     3     2    1
     5     4     5    1
     6     2     7    1
     7     2     1    1
     8     5    10    1
     9     5     6    1
    10    10     1    1
    11     6    11    1
