@<TRIPOS>MOLECULE
4dj8_SIA_A_1.pdb
 20 20 0 0 0
SMALL
GASTEIGER

@<TRIPOS>ATOM
      1  C1        57.3630  -23.2430   85.7400 C.2   404  SIA404      0.3914
      2  C2        56.6650  -23.0400   87.0800 C.3   404  SIA404      0.2203
      3  C3        57.6420  -22.3590   88.0340 C.3   404  SIA404      0.0760
      4  C4        57.7370  -20.9010   87.6020 C.3   404  SIA404      0.1773
      5  C5        56.3730  -20.2540   87.8580 C.3   404  SIA404      0.1552
      6  C6        55.2680  -20.9160   86.9910 C.3   404  SIA404      0.1710
      7  C7        53.8430  -20.3610   87.3250 C.3   404  SIA404      0.2134
      8  C8        52.5710  -21.0060   86.7070 C.3   404  SIA404      0.2173
      9  C9        51.3190  -20.1230   86.8980 C.3   404  SIA404      0.2175
     10  C10       56.8260  -17.9120   88.6040 C.2   404  SIA404      0.2420
     11  C11       56.7840  -18.2850   90.0670 C.3   404  SIA404      0.0964
     12  N5        56.4520  -18.8070   87.6720 N.am  404  SIA404     -0.2020
     13  O1A       58.3360  -24.0290   85.6810 O.co2 404  SIA404     -0.2430
     14  O1B       56.9820  -22.6200   84.7240 O.co2 404  SIA404     -0.2430
     15  O4        58.8270  -20.2370   88.2610 O.3   404  SIA404     -0.2211
     16  O6        55.3700  -22.3680   87.0420 O.3   404  SIA404     -0.3429
     17  O7        53.6560  -20.3060   88.7510 O.3   404  SIA404     -0.2176
     18  O8        52.7170  -21.2600   85.3010 O.3   404  SIA404     -0.2175
     19  O9        50.2490  -20.7350   87.6460 O.3   404  SIA404     -0.2175
     20  O10       57.1950  -16.8030   88.2700 O.2   404  SIA404     -0.2733
@<TRIPOS>BOND
     1    14     1   ar
     2    18     8    1
     3    13     1   ar
     4     1     2    1
     5     8     9    1
     6     8     7    1
     7     9    19    1
     8     6    16    1
     9     6     7    1
    10     6     5    1
    11    16     2    1
    12     2     3    1
    13     7    17    1
    14     4     5    1
    15     4     3    1
    16     4    15    1
    17    12     5    1
    18    12    10   am
    19    20    10    2
    20    10    11    1
