@<TRIPOS>MOLECULE
4dje_C2F_A_1.pdb
 33 35 0 0 0
SMALL
GASTEIGER

@<TRIPOS>ATOM
      1  N1         3.9690   51.8970  -46.2620 N.2   300  C2F300     -0.2726
      2  C2         4.2490   52.0070  -44.9580 C.1   300  C2F300      0.2603
      3  NA2        5.5670   52.6070  -44.5330 N.pl3 300  C2F300     -0.0221
      4  N3         3.3890   51.5980  -44.0160 N.2   300  C2F300     -0.2515
      5  C4         2.2060   51.0580  -44.3650 C.1   300  C2F300      0.2218
      6  O4         1.3290   50.6430  -43.3810 O.2   300  C2F300     -0.2109
      7  C4A        1.8760   50.9230  -45.7170 C.3   300  C2F300      0.2763
      8  N5         0.6090   50.3510  -46.0860 N.3   300  C2F300     -0.2435
      9  C6         0.2450   50.5520  -47.4600 C.3   300  C2F300      0.1062
     10  C7         1.4540   50.4410  -48.4300 C.3   300  C2F300      0.1547
     11  N8         2.5580   51.2750  -48.0650 N.2   300  C2F300     -0.2096
     12  C8A        2.7930   51.3640  -46.6660 C.1   300  C2F300      0.1050
     13  C9        -0.4270   51.8980  -47.6060 C.3   300  C2F300      0.1302
     14  N10       -1.2890   52.1060  -48.7290 N.pl3 300  C2F300     -0.2361
     15  C11        0.6500   48.8680  -45.9100 C.3   300  C2F300      0.0915
     16  C12       -5.2300   50.5110  -48.7850 C.ar  300  C2F300      0.0551
     17  C13       -4.5530   50.7290  -49.9690 C.ar  300  C2F300      0.0059
     18  C14       -3.2650   51.2500  -49.9520 C.ar  300  C2F300      0.0162
     19  C15       -2.6560   51.5530  -48.7400 C.ar  300  C2F300      0.0654
     20  C16       -3.3360   51.3350  -47.5440 C.ar  300  C2F300      0.0162
     21  C17       -4.6230   50.8140  -47.5660 C.ar  300  C2F300      0.0059
     22  C         -6.6080   49.9530  -48.8230 C.2   300  C2F300      0.2655
     23  O         -7.3190   50.0350  -47.8410 O.2   300  C2F300     -0.2683
     24  N         -7.0770   49.3210  -50.0450 N.am  300  C2F300     -0.1872
     25  CA        -8.4180   48.7370  -50.1980 C.3   300  C2F300      0.2202
     26  CB        -8.5950   47.9430  -51.4960 C.2   300  C2F300      0.0133
     27  CG        -9.6110   48.4570  -52.5270 C.2   300  C2F300      0.0838
     28  CD        -9.6690   47.7370  -53.8630 C.2   300  C2F300      0.3877
     29  OE1       -9.0620   46.6200  -54.0150 O.co2 300  C2F300     -0.2406
     30  OE2      -10.3100   48.2380  -54.8190 O.co2 300  C2F300     -0.2406
     31  CT        -8.7410   47.8270  -49.0550 C.2   300  C2F300      0.3884
     32  O1        -7.8140   47.1780  -48.4640 O.co2 300  C2F300     -0.2434
     33  O2        -9.9350   47.6970  -48.6790 O.co2 300  C2F300     -0.2434
@<TRIPOS>BOND
     1    30    28   ar
     2    29    28   ar
     3    28    27    1
     4    27    26    2
     5    26    25    1
     6    25    24    1
     7    25    31    1
     8    24    22   am
     9    17    18   ar
    10    17    16   ar
    11    18    19   ar
    12    31    33   ar
    13    31    32   ar
    14    22    16    1
    15    22    23    2
    16    16    21   ar
    17    19    14    1
    18    19    20   ar
    19    14    13    1
    20    10    11    1
    21    10     9    1
    22    11    12    2
    23    13     9    1
    24    21    20   ar
    25     9     8    1
    26    12     1    2
    27    12     7    1
    28     1     2    2
    29     8    15    1
    30     8     7    1
    31     7     5    1
    32     2     3    1
    33     2     4    2
    34     5     4    2
    35     5     6    2
