@<TRIPOS>MOLECULE
4djf_C2F_A_1.pdb
 32 34 0 0 0
SMALL
GASTEIGER

@<TRIPOS>ATOM
      1  N1         4.5830   51.4250  -46.0860 N.2   300  C2F300     -0.2683
      2  C2         5.0360   51.6360  -44.8440 C.1   300  C2F300      0.2608
      3  NA2        6.3770   52.2990  -44.6490 N.pl3 300  C2F300     -0.0220
      4  N3         4.3300   51.2730  -43.7650 N.2   300  C2F300     -0.2474
      5  C4         3.1310   50.6790  -43.9080 C.1   300  C2F300      0.2441
      6  O4         2.4040   50.3060  -42.7930 O.2   300  C2F300     -0.2063
      7  C4A        2.6250   50.4400  -45.1850 C.2   300  C2F300      0.2463
      8  N5         1.3420   49.8090  -45.3220 N.2   300  C2F300     -0.2469
      9  C6         0.7710   49.9310  -46.6320 C.3   300  C2F300      0.1514
     10  C7         1.8220   49.7700  -47.7650 C.3   300  C2F300      0.1634
     11  N8         2.9550   50.6350  -47.6240 N.2   300  C2F300     -0.2054
     12  C8A        3.3830   50.8320  -46.2830 C.1   300  C2F300      0.1270
     13  C9         0.0720   51.2660  -46.7440 C.3   300  C2F300      0.1385
     14  N10       -0.7350   51.5130  -47.8990 N.pl3 300  C2F300     -0.2355
     15  C12       -4.7270   50.0690  -48.0860 C.ar  300  C2F300      0.0551
     16  C13       -4.0050   50.2590  -49.2490 C.ar  300  C2F300      0.0059
     17  C14       -2.7000   50.7310  -49.1910 C.ar  300  C2F300      0.0162
     18  C15       -2.1190   51.0120  -47.9590 C.ar  300  C2F300      0.0654
     19  C16       -2.8440   50.8210  -46.7860 C.ar  300  C2F300      0.0162
     20  C17       -4.1480   50.3490  -46.8480 C.ar  300  C2F300      0.0059
     21  C         -6.1240   49.5610  -48.1610 C.2   300  C2F300      0.2655
     22  O         -6.8560   49.6710  -47.1990 O.2   300  C2F300     -0.2683
     23  N         -6.5860   48.9400  -49.3900 N.am  300  C2F300     -0.1872
     24  CA        -7.9460   48.4090  -49.5500 C.3   300  C2F300      0.2202
     25  CB        -8.1750   47.6940  -50.8850 C.2   300  C2F300      0.0133
     26  CG        -9.3310   48.1760  -51.7770 C.2   300  C2F300      0.0838
     27  CD        -9.4120   47.6060  -53.1820 C.2   300  C2F300      0.3877
     28  OE1       -8.6340   46.6510  -53.5330 O.co2 300  C2F300     -0.2406
     29  OE2      -10.2400   48.0740  -54.0020 O.co2 300  C2F300     -0.2406
     30  CT        -8.2580   47.4440  -48.4510 C.2   300  C2F300      0.3884
     31  O1        -7.3270   46.7530  -47.9180 O.co2 300  C2F300     -0.2434
     32  O2        -9.4450   47.3080  -48.0550 O.co2 300  C2F300     -0.2434
@<TRIPOS>BOND
     1    29    27   ar
     2    28    27   ar
     3    27    26    1
     4    26    25    2
     5    25    24    1
     6    24    23    1
     7    24    30    1
     8    23    21   am
     9    16    17   ar
    10    16    15   ar
    11    17    18   ar
    12    30    32   ar
    13    30    31   ar
    14    21    15    1
    15    21    22    2
    16    15    20   ar
    17    18    14    1
    18    18    19   ar
    19    14    13    1
    20    10    11    1
    21    10     9    1
    22    11    12    2
    23    20    19   ar
    24    13     9    1
    25     9     8    1
    26    12     1    2
    27    12     7    1
    28     1     2    2
    29     8     7    2
    30     7     5    1
    31     2     3    1
    32     2     4    2
    33     5     4    2
    34     5     6    2
