@<TRIPOS>MOLECULE
4djh_JDC_A_1.pdb
 34 37 0 0 0
SMALL
GASTEIGER

@<TRIPOS>ATOM
      1  C1         3.2120  -20.4100   59.6680 C.3   1300  JDC1300     0.1153
      2  N2         2.9250  -21.7880   59.5580 N.3   1300  JDC1300    -0.2051
      3  C3         2.2000  -22.0810   58.3660 C.3   1300  JDC1300     0.1550
      4  C4         0.8340  -21.4170   58.3950 C.3   1300  JDC1300     0.0528
      5  C4A        0.9410  -19.9830   58.8450 C.ar  1300  JDC1300    -0.0227
      6  C5        -0.1620  -19.0560   58.6390 C.ar  1300  JDC1300    -0.0012
      7  C6        -0.0500  -17.7050   59.0610 C.ar  1300  JDC1300     0.0417
      8  C7         1.1110  -17.2580   59.6700 C.ar  1300  JDC1300     0.1955
      9  O7         1.2310  -15.9780   60.0740 O.3   1300  JDC1300    -0.2866
     10  C8         2.1660  -18.1470   59.8630 C.ar  1300  JDC1300     0.0388
     11  C8A        2.0500  -19.5400   59.4310 C.ar  1300  JDC1300    -0.0055
     12  C1A        2.1110  -23.5980   58.1900 C.2   1300  JDC1300     0.2575
     13  O1         1.7270  -24.3180   59.1200 O.2   1300  JDC1300    -0.2718
     14  N2A        2.5030  -24.1780   56.9210 N.am  1300  JDC1300    -0.2046
     15  C2A        2.4450  -25.5850   56.7110 C.3   1300  JDC1300     0.1112
     16  C3A        1.6140  -25.7430   55.4290 C.3   1300  JDC1300     0.0214
     17  C3D        0.1930  -25.0530   55.5450 C.3   1300  JDC1300     0.0018
     18  C3B        1.5760  -27.1070   54.8640 C.3   1300  JDC1300     0.0018
     19  C4D        3.8110  -26.2230   56.5650 C.3   1300  JDC1300     0.0940
     20  N11        4.6780  -26.2930   57.8350 N.3   1300  JDC1300    -0.2712
     21  C21        4.0430  -27.0360   58.9030 C.3   1300  JDC1300     0.0724
     22  C31        4.6790  -26.8460   60.2290 C.3   1300  JDC1300     0.0198
     23  C34        4.3120  -25.4010   60.7390 C.3   1300  JDC1300     0.0018
     24  C41        6.1290  -27.0320   60.2020 C.3   1300  JDC1300     0.0216
     25  C51        6.7520  -26.2720   59.1520 C.3   1300  JDC1300     0.0214
     26  C61        6.1150  -26.4610   57.8180 C.3   1300  JDC1300     0.0725
     27  C4E        6.4230  -28.4780   59.8440 C.3   1300  JDC1300     0.0045
     28  C1C        6.7210  -26.8030   61.5930 C.ar  1300  JDC1300    -0.0195
     29  C2C        6.1110  -27.3820   62.7090 C.ar  1300  JDC1300     0.0377
     30  C3C        6.6580  -27.1750   63.9920 C.ar  1300  JDC1300     0.1954
     31  O3C        6.0210  -27.7740   65.1510 O.3   1300  JDC1300    -0.2866
     32  C4C        7.8390  -26.3720   64.1480 C.ar  1300  JDC1300     0.0420
     33  C5C        8.4410  -25.8010   63.0380 C.ar  1300  JDC1300     0.0030
     34  C6C        7.8990  -26.0050   61.7540 C.ar  1300  JDC1300    -0.0041
@<TRIPOS>BOND
     1    18    16    1
     2    16    17    1
     3    16    15    1
     4    19    15    1
     5    19    20    1
     6    15    14    1
     7    14    12   am
     8    26    20    1
     9    26    25    1
    10    20    21    1
    11    12     3    1
    12    12    13    2
    13     3     4    1
    14     3     2    1
    15     4     5    1
    16     6     5   ar
    17     6     7   ar
    18     5    11   ar
    19    21    22    1
    20     7     8   ar
    21    25    24    1
    22    11     1    1
    23    11    10   ar
    24     2     1    1
    25     8    10   ar
    26     8     9    1
    27    27    24    1
    28    24    22    1
    29    24    28    1
    30    22    23    1
    31    28    34   ar
    32    28    29   ar
    33    34    33   ar
    34    29    30   ar
    35    33    32   ar
    36    30    32   ar
    37    30    31    1
