@<TRIPOS>MOLECULE
4djj_PML_A_1.pdb
 11 10 0 0 0
SMALL
GASTEIGER

@<TRIPOS>ATOM
      1  C1        15.7320    2.9630   -1.8500 C.2   201  PML201      0.3649
      2  O11       16.6330    2.6150   -2.5960 O.co2 201  PML201     -0.2457
      3  O12       14.5580    3.4920   -2.3330 O.co2 201  PML201     -0.2457
      4  C2        15.6730    2.9670   -0.4100 C.3   201  PML201      0.1141
      5  C3        16.4650    3.4850    0.6750 C.3   201  PML201      0.0118
      6  C4        16.0830    4.2060    1.9540 C.3   201  PML201      0.0011
      7  C5        17.4520    4.5270    2.2030 C.3   201  PML201      0.0118
      8  C6        18.2750    5.6250    2.3300 C.3   201  PML201      0.1141
      9  C7        19.7540    5.5230    2.0870 C.2   201  PML201      0.3649
     10  O71       20.3650    6.6540    1.7690 O.co2 201  PML201     -0.2457
     11  O72       20.4790    4.2020    2.1270 O.co2 201  PML201     -0.2457
@<TRIPOS>BOND
     1     2     1   ar
     2     3     1   ar
     3     1     4    1
     4     4     5    1
     5     5     6    1
     6    10     9   ar
     7     6     7    1
     8     9    11   ar
     9     9     8    1
    10     7     8    1
