@<TRIPOS>MOLECULE
4djo_MK5_A_1.pdb
 40 41 0 0 0
SMALL
GASTEIGER

@<TRIPOS>ATOM
      1  C1        15.4990   36.9610   18.7020 C.3   101  MK5101      0.2525
      2  O1        14.9390   35.6570   18.4960 O.3   101  MK5101     -0.4714
      3  C2        15.6860   34.9120   17.6260 C.ar  101  MK5101      0.1388
      4  C7        15.4380   33.5480   17.5110 C.ar  101  MK5101      0.0383
      5  C6        16.1810   32.7710   16.6290 C.ar  101  MK5101      0.0230
      6  C3        16.6780   35.5010   16.8480 C.ar  101  MK5101      0.0383
      7  C4        17.4200   34.7230   15.9670 C.ar  101  MK5101      0.0230
      8  C5        17.1750   33.3580   15.8560 C.ar  101  MK5101      0.1224
      9  S8        18.1290   32.3780   14.7510 S.O2  101  MK5101      0.0634
     10  O9        18.6630   33.2640   13.6630 O.2   101  MK5101     -0.1528
     11  O10       17.2930   31.2880   14.1890 O.2   101  MK5101     -0.1528
     12  N11       19.4210   31.7040   15.5600 N.3   101  MK5101     -0.1529
     13  C12       20.0250   32.6110   16.5580 C.3   101  MK5101      0.0958
     14  C13       21.3270   33.2380   16.0490 C.3   101  MK5101      0.0178
     15  C14       22.1270   33.9280   17.1690 C.3   101  MK5101      0.0015
     16  C15       22.1890   32.2090   15.3220 C.3   101  MK5101      0.0014
     17  C18       22.9720   32.8770   14.1990 C.3   101  MK5101      0.0000
     18  C16       19.0270   30.4390   16.2090 C.3   101  MK5101      0.1304
     19  C17       19.9660   29.3410   15.6850 C.3   101  MK5101      0.1898
     20  O18       19.9210   28.1890   16.5220 O.3   101  MK5101     -0.2197
     21  C19       19.6160   28.9540   14.2480 C.3   101  MK5101      0.1347
     22  C32       18.2850   28.1880   14.1640 C.3   101  MK5101      0.0508
     23  C38       17.9740   27.8330   12.7060 C.ar  101  MK5101     -0.0204
     24  C33       18.1990   26.5400   12.2500 C.ar  101  MK5101     -0.0042
     25  C34       17.9340   26.2050   10.9290 C.ar  101  MK5101     -0.0003
     26  C35       17.4370   27.1690   10.0580 C.ar  101  MK5101     -0.0000
     27  C36       17.2140   28.4640   10.5090 C.ar  101  MK5101     -0.0003
     28  C37       17.4770   28.7910   11.8350 C.ar  101  MK5101     -0.0042
     29  N20       20.6860   28.1170   13.6950 N.am  101  MK5101     -0.1675
     30  C21       21.6280   28.5490   12.8660 C.2   101  MK5101      0.4212
     31  O22       21.7200   29.7060   12.4640 O.2   101  MK5101     -0.2246
     32  O23       22.5370   27.6300   12.4370 O.3   101  MK5101     -0.4316
     33  C23       23.5610   28.3010   11.7000 C.3   101  MK5101      0.2335
     34  C24       24.3070   27.2780   10.8440 C.3   101  MK5101      0.1625
     35  N25       23.3420   26.4320   10.1300 N.am  101  MK5101     -0.1993
     36  C26       23.2430   25.1370   10.3960 C.2   101  MK5101      0.2720
     37  O27       23.9140   24.5800   11.2640 O.2   101  MK5101     -0.2706
     38  C28       22.2100   24.3460    9.5840 C.3   101  MK5101      0.2356
     39 CL2        21.5060   25.2740    8.2100 Cl    101  MK5101     -0.0870
     40 CL1        20.9000   23.9090   10.7100 Cl    101  MK5101     -0.0870
@<TRIPOS>BOND
     1    39    38    1
     2    38    36    1
     3    38    40    1
     4    26    27   ar
     5    26    25   ar
     6    35    36   am
     7    35    34    1
     8    36    37    2
     9    27    28   ar
    10    34    33    1
    11    25    24   ar
    12    33    32    1
    13    28    23   ar
    14    24    23   ar
    15    32    30    1
    16    31    30    2
    17    23    22    1
    18    30    29   am
    19    10     9    2
    20    29    21    1
    21    22    21    1
    22    11     9    2
    23    17    16    1
    24    21    19    1
    25     9    12    1
    26     9     8    1
    27    16    14    1
    28    12    18    1
    29    12    13    1
    30    19    18    1
    31    19    20    1
    32     8     7   ar
    33     8     5   ar
    34     7     6   ar
    35    14    13    1
    36    14    15    1
    37     5     4   ar
    38     6     3   ar
    39     4     3   ar
    40     3     2    1
    41     2     1    1
