@<TRIPOS>MOLECULE
4djp_M73_A_1.pdb
 39 40 0 0 0
SMALL
GASTEIGER

@<TRIPOS>ATOM
      1  O22       20.8290   29.5300   11.8510 O.2   200  M73200     -0.2246
      2  C21       21.0400   28.5350   12.5210 C.2   200  M73200      0.4212
      3  O23       21.7910   27.4770   11.9620 O.3   200  M73200     -0.4329
      4  C22       22.0280   27.5610   10.5510 C.3   200  M73200      0.2212
      5  C23       22.7890   26.3110   10.1390 C.3   200  M73200      0.1427
      6  C24       21.9370   25.0630   10.2850 C.3   200  M73200      0.0156
      7  C25       24.0200   26.2660   10.9700 C.2   200  M73200      0.3203
      8  O26       24.3350   25.3320   11.6870 O.2   200  M73200     -0.2500
      9  O27       24.8710   27.3890   10.9130 O.3   200  M73200     -0.4443
     10  C28       26.0620   27.4600   11.7110 C.3   200  M73200      0.2556
     11  N20       20.5700   28.2480   13.7160 N.am  200  M73200     -0.1675
     12  C19       19.4860   29.0290   14.3020 C.3   200  M73200      0.1347
     13  C32       18.1920   28.1990   14.2110 C.3   200  M73200      0.0508
     14  C38       17.9070   27.8950   12.7510 C.ar  200  M73200     -0.0204
     15  C37       17.3260   28.8620   11.9470 C.ar  200  M73200     -0.0042
     16  C36       17.1310   28.6110   10.5950 C.ar  200  M73200     -0.0003
     17  C35       17.4910   27.3790   10.0540 C.ar  200  M73200     -0.0000
     18  C34       18.0610   26.4000   10.8520 C.ar  200  M73200     -0.0003
     19  C33       18.2660   26.6600   12.2000 C.ar  200  M73200     -0.0042
     20  C17       19.8820   29.4910   15.7060 C.3   200  M73200      0.1898
     21  O18       19.8470   28.3480   16.5930 O.3   200  M73200     -0.2197
     22  C16       18.9640   30.5750   16.3000 C.3   200  M73200      0.1304
     23  N11       19.1430   31.8060   15.5050 N.3   200  M73200     -0.1529
     24  C12       19.9520   32.8370   16.2060 C.3   200  M73200      0.0958
     25  C13       21.4550   32.5400   16.1410 C.3   200  M73200      0.0178
     26  C14       21.9510   32.4930   14.6970 C.3   200  M73200      0.0015
     27  C15       22.2050   33.5590   17.0110 C.3   200  M73200      0.0014
     28  C18       22.0170   34.9940   16.5720 C.3   200  M73200      0.0000
     29  S8        17.8340   32.3970   14.7510 S.O2  200  M73200      0.0634
     30  O9        18.3480   33.2390   13.6900 O.2   200  M73200     -0.1528
     31  O10       17.0480   31.2990   14.3430 O.2   200  M73200     -0.1528
     32  C5        16.9430   33.3280   15.7780 C.ar  200  M73200      0.1224
     33  C4        17.1450   34.7210   15.9140 C.ar  200  M73200      0.0230
     34  C3        16.4470   35.5010   16.8360 C.ar  200  M73200      0.0383
     35  C6        15.9830   32.7550   16.6240 C.ar  200  M73200      0.0230
     36  C7        15.2980   33.5280   17.5740 C.ar  200  M73200      0.0383
     37  C2        15.5220   34.8950   17.6760 C.ar  200  M73200      0.1388
     38  O1        14.8160   35.6090   18.6190 O.3   200  M73200     -0.4714
     39  C1        15.1220   36.9940   18.8160 C.3   200  M73200      0.2525
@<TRIPOS>BOND
     1    17    16   ar
     2    17    18   ar
     3     5     6    1
     4     5     4    1
     5     5     7    1
     6     4     3    1
     7    16    15   ar
     8    18    19   ar
     9     9     7    1
    10     9    10    1
    11     7     8    2
    12     1     2    2
    13    15    14   ar
    14     3     2    1
    15    19    14   ar
    16     2    11   am
    17    14    13    1
    18    30    29    2
    19    11    12    1
    20    13    12    1
    21    12    20    1
    22    31    29    2
    23    26    25    1
    24    29    23    1
    25    29    32    1
    26    23    24    1
    27    23    22    1
    28    20    22    1
    29    20    21    1
    30    32    33   ar
    31    32    35   ar
    32    33    34   ar
    33    25    24    1
    34    25    27    1
    35    28    27    1
    36    35    36   ar
    37    34    37   ar
    38    36    37   ar
    39    37    38    1
    40    38    39    1
