@<TRIPOS>MOLECULE
4djq_M86_A_1.pdb
 40 42 0 0 0
SMALL
GASTEIGER

@<TRIPOS>ATOM
      1  O10       -8.1590   -2.3030  -14.1170 O.2   200  M86200     -0.1528
      2  S8        -7.3710   -3.3730  -14.6280 S.O2  200  M86200      0.0634
      3  O9        -6.7960   -4.2250  -13.6000 O.2   200  M86200     -0.1528
      4  C5        -8.2690   -4.2950  -15.6490 C.ar  200  M86200      0.1224
      5  C6        -9.2550   -3.7150  -16.4510 C.ar  200  M86200      0.0230
      6  C7        -9.9880   -4.4930  -17.3600 C.ar  200  M86200      0.0383
      7  C4        -8.0450   -5.6690  -15.7850 C.ar  200  M86200      0.0230
      8  C3        -8.7710   -6.4470  -16.6910 C.ar  200  M86200      0.0383
      9  C2        -9.7520   -5.8520  -17.4840 C.ar  200  M86200      0.1388
     10  O1       -10.4760   -6.5740  -18.4060 O.3   200  M86200     -0.4714
     11  C1       -10.0910   -7.9340  -18.6570 C.3   200  M86200      0.2525
     12  N11       -6.0830   -2.7400  -15.3950 N.3   200  M86200     -0.1529
     13  C12       -5.3110   -3.7560  -16.1620 C.3   200  M86200      0.0958
     14  C13       -3.8070   -3.4620  -16.1810 C.3   200  M86200      0.0178
     15  C14       -3.1840   -3.4540  -14.7870 C.3   200  M86200      0.0015
     16  C15       -3.0910   -4.4400  -17.1290 C.3   200  M86200      0.0014
     17  C18       -3.2490   -5.8830  -16.7340 C.3   200  M86200      0.0000
     18  C16       -6.3600   -1.5050  -16.1660 C.3   200  M86200      0.1304
     19  C17       -5.4540   -0.3950  -15.6030 C.3   200  M86200      0.1898
     20  O18       -5.5240    0.7600  -16.4640 O.3   200  M86200     -0.2197
     21  C19       -5.8100    0.0360  -14.1730 C.3   200  M86200      0.1347
     22  C32       -7.1370    0.8010  -14.0470 C.3   200  M86200      0.0508
     23  C38       -7.4020    1.1200  -12.5850 C.ar  200  M86200     -0.0204
     24  C37       -7.8910    0.1330  -11.7350 C.ar  200  M86200     -0.0042
     25  C36       -8.1300    0.4240  -10.3920 C.ar  200  M86200     -0.0003
     26  C35       -7.8780    1.6950   -9.8910 C.ar  200  M86200     -0.0000
     27  C34       -7.3870    2.6800  -10.7380 C.ar  200  M86200     -0.0003
     28  C33       -7.1550    2.3960  -12.0810 C.ar  200  M86200     -0.0042
     29  N20       -4.7520    0.8960  -13.6600 N.am  200  M86200     -0.1675
     30  C21       -3.8710    0.5570  -12.7310 C.2   200  M86200      0.4212
     31  O22       -3.7370   -0.5290  -12.2020 O.2   200  M86200     -0.2246
     32  O23       -3.0190    1.6460  -12.3160 O.3   200  M86200     -0.4316
     33  C22       -2.0510    1.4940  -11.2680 C.3   200  M86200      0.2323
     34  C23       -1.7670    2.8880  -10.7090 C.3   200  M86200      0.1502
     35  N24       -2.9900    3.3650  -10.0260 N.am  200  M86200     -0.2308
     36  C25       -2.8470    3.6220   -8.5750 C.3   200  M86200      0.1301
     37  C28       -3.7300    4.4840  -10.5130 C.1   200  M86200      0.2112
     38  O29       -3.7090    4.9140  -11.6540 O.2   200  M86200     -0.2063
     39  N27       -4.4530    5.0010   -9.5320 N.2   200  M86200     -0.1882
     40  C26       -4.1350    4.3900   -8.2590 C.3   200  M86200      0.1613
@<TRIPOS>BOND
     1    11    10    1
     2    10     9    1
     3     9     6   ar
     4     9     8   ar
     5     6     5   ar
     6    16    17    1
     7    16    14    1
     8     8     7   ar
     9    20    19    1
    10     5     4   ar
    11    14    13    1
    12    14    15    1
    13    18    19    1
    14    18    12    1
    15    13    12    1
    16     7     4   ar
    17     4     2    1
    18    19    21    1
    19    12     2    1
    20     2     1    2
    21     2     3    2
    22    21    22    1
    23    21    29    1
    24    22    23    1
    25    29    30   am
    26    30    32    1
    27    30    31    2
    28    23    28   ar
    29    23    24   ar
    30    32    33    1
    31    28    27   ar
    32    24    25   ar
    33    38    37    2
    34    33    34    1
    35    27    26   ar
    36    34    35    1
    37    37    35   am
    38    37    39    2
    39    25    26   ar
    40    35    36    1
    41    39    40    1
    42    36    40    1
