@<TRIPOS>MOLECULE
4djr_0KJ_A_1.pdb
 40 43 0 0 0
SMALL
GASTEIGER

@<TRIPOS>ATOM
      1  O28       21.8200   23.3930   11.4910 O.2   101  0KJ101     -0.2270
      2  C27       21.7650   24.4410   10.8910 C.1   101  0KJ101      0.1261
      3  N29       22.8010   25.1420   10.4650 N.2   101  0KJ101     -0.2044
      4  C24       22.4460   26.3660    9.7980 C.3   101  0KJ101      0.1592
      5  C25       20.9310   26.2580    9.6210 C.3   101  0KJ101      0.0467
      6  C26       20.4700   25.1100   10.5050 C.3   101  0KJ101      0.1238
      7  C22       22.8550   27.5520   10.6540 C.3   101  0KJ101      0.2351
      8  O23       22.2100   27.3810   11.9170 O.3   101  0KJ101     -0.4314
      9  C21       21.3290   28.4180   12.4250 C.2   101  0KJ101      0.4212
     10  O22       21.3440   29.5100   11.8810 O.2   101  0KJ101     -0.2246
     11  N20       20.5450   28.0630   13.4380 N.am  101  0KJ101     -0.1675
     12  C19       19.5100   28.8850   14.0440 C.3   101  0KJ101      0.1347
     13  C32       18.1880   28.1130   13.9920 C.3   101  0KJ101      0.0508
     14  C38       17.7990   27.7770   12.5600 C.ar  101  0KJ101     -0.0204
     15  C37       17.7010   26.4470   12.1700 C.ar  101  0KJ101     -0.0042
     16  C36       17.3410   26.1240   10.8630 C.ar  101  0KJ101     -0.0003
     17  C35       17.0710   27.1300    9.9430 C.ar  101  0KJ101     -0.0000
     18  C34       17.1660   28.4610   10.3320 C.ar  101  0KJ101     -0.0003
     19  C33       17.5220   28.7780   11.6400 C.ar  101  0KJ101     -0.0042
     20  C17       19.9440   29.2990   15.4520 C.3   101  0KJ101      0.1898
     21  O18       19.8780   28.1760   16.3360 O.3   101  0KJ101     -0.2197
     22  C16       19.0960   30.4320   16.0480 C.3   101  0KJ101      0.1304
     23  N11       19.3380   31.6740   15.2670 N.3   101  0KJ101     -0.1529
     24  C12       20.1170   32.6720   16.0360 C.3   101  0KJ101      0.0958
     25  C13       21.6270   32.3790   15.9880 C.3   101  0KJ101      0.0178
     26  C14       22.2330   32.4320   14.5850 C.3   101  0KJ101      0.0015
     27  C15       22.3540   33.3630   16.9120 C.3   101  0KJ101      0.0014
     28  C18       22.2010   34.8180   16.4970 C.3   101  0KJ101      0.0000
     29  S8        18.0170   32.2920   14.5410 S.O2  101  0KJ101      0.0631
     30  O10       17.2470   31.1870   14.0580 O.2   101  0KJ101     -0.1528
     31  O9        18.5130   33.1710   13.5080 O.2   101  0KJ101     -0.1528
     32  C5        17.1270   33.1930   15.5900 C.2   101  0KJ101      0.1192
     33  C6        16.1470   32.5440   16.3440 C.2   101  0KJ101      0.0208
     34  C7        15.3930   33.2270   17.2970 C.2   101  0KJ101      0.0168
     35  C4        17.3050   34.5670   15.8150 C.2   101  0KJ101      0.0102
     36  C3        16.5410   35.2630   16.7670 C.3   101  0KJ101      0.1122
     37  S1        16.6740   36.9330   17.1210 S.3   101  0KJ101     -0.1045
     38  C1        15.4140   36.6730   18.2880 C.3   101  0KJ101      0.1833
     39  N1        14.9560   35.4140   18.3750 N.2   101  0KJ101     -0.2616
     40  C2        15.5810   34.5770   17.5140 C.2   101  0KJ101      0.0686
@<TRIPOS>BOND
     1     5     4    1
     2     5     6    1
     3     4     3    1
     4     4     7    1
     5    17    18   ar
     6    17    16   ar
     7    18    19   ar
     8     3     2    2
     9     6     2    1
    10     7     8    1
    11    16    15   ar
    12     2     1    2
    13    19    14   ar
    14    10     9    2
    15     8     9    1
    16    15    14   ar
    17     9    11   am
    18    14    13    1
    19    11    12    1
    20    31    29    2
    21    13    12    1
    22    12    20    1
    23    30    29    2
    24    29    23    1
    25    29    32    1
    26    26    25    1
    27    23    24    1
    28    23    22    1
    29    20    22    1
    30    20    21    1
    31    32    35    2
    32    32    33    1
    33    35    36    1
    34    25    24    1
    35    25    27    1
    36    33    34    2
    37    28    27    1
    38    36    37    1
    39    36    40    1
    40    37    38    1
    41    34    40    1
    42    40    39    2
    43    38    39    1
