@<TRIPOS>MOLECULE
4djt_GDP_A_1.pdb
 28 30 0 0 0
SMALL
GASTEIGER

@<TRIPOS>ATOM
      1  PB        17.4730    9.7990   30.3310 P.3   301  GDP301      0.5373
      2  O1B       16.5090   10.9640   30.0530 O.2   301  GDP301     -0.2221
      3  O2B       16.8530    8.4180   30.1950 O.3   301  GDP301     -0.1143
      4  O3B       18.2990   10.0310   31.5940 O.3   301  GDP301     -0.1143
      5  O3A       18.6320    9.8150   29.2040 O.3   301  GDP301     -0.2261
      6  PA        19.1360   11.0240   28.2970 P.3   301  GDP301      0.2231
      7  O1A       18.1970   11.3110   27.1420 O.2   301  GDP301     -0.5169
      8  O2A       19.5290   12.1450   29.2070 O.3   301  GDP301     -0.4370
      9  O5'       20.4400   10.4560   27.6000 O.3   301  GDP301     -0.3111
     10  C5'       21.4810    9.9110   28.4330 C.3   301  GDP301      0.1813
     11  C4'       22.7500    9.8550   27.6030 C.3   301  GDP301      0.1799
     12  O4'       22.5970    8.8770   26.5950 O.3   301  GDP301     -0.3326
     13  C3'       23.0280   11.1440   26.8770 C.3   301  GDP301      0.2158
     14  O3'       24.4290   11.3150   26.8080 O.3   301  GDP301     -0.2175
     15  C2'       22.5230   10.9430   25.4820 C.3   301  GDP301      0.2310
     16  O2'       23.2320   11.6810   24.4680 O.3   301  GDP301     -0.2158
     17  C1'       22.7280    9.4530   25.3270 C.3   301  GDP301      0.2293
     18  N9        21.7280    8.8730   24.4420 N.pl3 301  GDP301     -0.2354
     19  C8        20.3800    8.9110   24.5380 C.3   301  GDP301      0.2246
     20  N7        19.8270    8.2540   23.4870 N.2   301  GDP301     -0.2322
     21  C5        20.8180    7.7380   22.7630 C.2   301  GDP301      0.2182
     22  C6        20.9380    6.9250   21.5400 C.1   301  GDP301      0.2372
     23  O6        19.9230    6.5090   20.9070 O.2   301  GDP301     -0.2069
     24  N1        22.1840    6.6250   21.1160 N.2   301  GDP301     -0.2485
     25  C2        23.2990    7.0540   21.7720 C.1   301  GDP301      0.2531
     26  N2        24.5080    6.7320   21.3090 N.pl3 301  GDP301     -0.0226
     27  N3        23.2550    7.8040   22.8900 N.2   301  GDP301     -0.3074
     28  C4        22.0610    8.1580   23.3980 C.2   301  GDP301      0.2300
@<TRIPOS>BOND
     1    23    22    2
     2    24    22    2
     3    24    25    2
     4    26    25    1
     5    22    21    1
     6    25    27    2
     7    21    28    1
     8    21    20    2
     9    27    28    2
    10    28    18    1
    11    20    19    1
    12    18    19    1
    13    18    17    1
    14    16    15    1
    15    17    15    1
    16    17    12    1
    17    15    13    1
    18    12    11    1
    19    14    13    1
    20    13    11    1
    21     7     6    2
    22     9     6    1
    23     9    10    1
    24    11    10    1
    25     6     5    1
    26     6     8    1
    27     5     1    1
    28     2     1    2
    29     3     1    1
    30     1     4    1
