@<TRIPOS>MOLECULE
4dju_0KK_A_1.pdb
 20 22 0 0 0
SMALL
GASTEIGER

@<TRIPOS>ATOM
      1  O1        21.8230   13.1940   22.6510 O.2   501  0KK501     -0.2520
      2  C1        21.9860   12.0030   22.8380 C.2   501  0KK501      0.3315
      3  C2        21.7410   10.8480   21.8250 C.3   501  0KK501      0.2671
      4  N1        22.0950    9.6270   22.5950 N.2   501  0KK501     -0.0835
      5  C3        22.4580   10.0150   23.8380 C.2   501  0KK501      0.4499
      6  N2        22.4180   11.4310   24.0130 N.am  501  0KK501     -0.1363
      7  N3        22.8270    9.1960   24.8210 N.pl3 501  0KK501      0.1440
      8  C4        22.7430   12.2060   25.2160 C.3   501  0KK501      0.2162
      9  C5        20.2620   10.6920   21.4230 C.ar  501  0KK501      0.0273
     10  C6        19.8770    9.7650   20.4590 C.ar  501  0KK501     -0.0002
     11  C7        18.5430    9.6320   20.0900 C.ar  501  0KK501     -0.0002
     12  C8        17.5760   10.4230   20.6790 C.ar  501  0KK501     -0.0000
     13  C9        17.9390   11.3360   21.6450 C.ar  501  0KK501     -0.0002
     14  C10       19.2720   11.4690   22.0180 C.ar  501  0KK501     -0.0002
     15  C11       22.6270   11.0910   20.5900 C.ar  501  0KK501      0.0273
     16  C12       22.4470   12.2110   19.7790 C.ar  501  0KK501     -0.0002
     17  C13       23.2720   12.4360   18.6790 C.ar  501  0KK501     -0.0002
     18  C14       24.2900   11.5520   18.3800 C.ar  501  0KK501     -0.0000
     19  C15       24.4810   10.4370   19.1730 C.ar  501  0KK501     -0.0002
     20  C16       23.6520   10.2040   20.2690 C.ar  501  0KK501     -0.0002
@<TRIPOS>BOND
     1    18    17   ar
     2    18    19   ar
     3    17    16   ar
     4    19    20   ar
     5    16    15   ar
     6    11    10   ar
     7    11    12   ar
     8    20    15   ar
     9    10     9   ar
    10    15     3    1
    11    12    13   ar
    12     9     3    1
    13     9    14   ar
    14    13    14   ar
    15     3     4    1
    16     3     2    1
    17     4     5    2
    18     1     2    2
    19     2     6   am
    20     5     6    1
    21     5     7    1
    22     6     8    1
