@<TRIPOS>MOLECULE
4djv_0KM_A_1.pdb
 28 31 0 0 0
SMALL
GASTEIGER

@<TRIPOS>ATOM
      1  O1        22.8640   12.9180   22.1510 O.2   501  0KM501     -0.2520
      2  C1        22.7760   11.7400   22.4370 C.2   501  0KM501      0.3315
      3  C2        22.5330   10.5520   21.4300 C.3   501  0KM501      0.2671
      4  N1        22.6980    9.3620   22.3290 N.2   501  0KM501     -0.0835
      5  C3        22.8530    9.7820   23.5950 C.2   501  0KM501      0.4499
      6  N2        22.9440   11.2000   23.6910 N.am  501  0KM501     -0.1363
      7  N3        22.9790    8.9880   24.6570 N.pl3 501  0KM501      0.1440
      8  C4        23.1800   11.9990   24.9000 C.3   501  0KM501      0.2162
      9  C5        21.1000   10.5960   20.8630 C.ar  501  0KM501      0.0273
     10  C6        20.3420    9.4330   20.7660 C.ar  501  0KM501     -0.0002
     11  C7        19.0400    9.4670   20.2690 C.ar  501  0KM501     -0.0002
     12  C8        18.4810   10.6590   19.8700 C.ar  501  0KM501     -0.0000
     13  C9        19.2200   11.8240   19.9540 C.ar  501  0KM501     -0.0002
     14  C10       20.5250   11.7940   20.4410 C.ar  501  0KM501     -0.0002
     15  C11       23.6440   10.6010   20.3640 C.ar  501  0KM501      0.0273
     16  C12       23.3550   10.8820   19.0310 C.ar  501  0KM501     -0.0002
     17  C13       24.3740   11.0650   18.1080 C.ar  501  0KM501     -0.0002
     18  C14       25.6940   10.9560   18.5040 C.ar  501  0KM501     -0.0000
     19  C15       26.0150   10.6440   19.8290 C.ar  501  0KM501     -0.0001
     20  C16       24.9770   10.4620   20.7510 C.ar  501  0KM501     -0.0002
     21  C17       29.9970   10.4940   21.4150 C.ar  501  0KM501      0.0369
     22  C18       27.7730    9.5760   21.2460 C.ar  501  0KM501      0.0369
     23  C19       27.4290   10.5160   20.2730 C.ar  501  0KM501      0.0030
     24  C20       28.4120   11.4120   19.8460 C.ar  501  0KM501      0.0002
     25  C21       29.6820   11.4000   20.4130 C.ar  501  0KM501      0.0031
     26  C22       29.0400    9.5690   21.8180 C.ar  501  0KM501      0.1387
     27  O2        29.2030    8.6170   22.7950 O.3   501  0KM501     -0.4714
     28  C23       30.4090    8.6530   23.5740 C.3   501  0KM501      0.2525
@<TRIPOS>BOND
     1    17    18   ar
     2    17    16   ar
     3    18    19   ar
     4    16    15   ar
     5    19    23    1
     6    19    20   ar
     7    24    23   ar
     8    24    25   ar
     9    12    13   ar
    10    12    11   ar
    11    13    14   ar
    12    11    10   ar
    13    23    22   ar
    14    15    20   ar
    15    15     3    1
    16    25    21   ar
    17    14     9   ar
    18    10     9   ar
    19     9     3    1
    20    22    26   ar
    21    21    26   ar
    22     3     4    1
    23     3     2    1
    24    26    27    1
    25     1     2    2
    26     4     5    2
    27     2     6   am
    28    27    28    1
    29     5     6    1
    30     5     7    1
    31     6     8    1
