@<TRIPOS>MOLECULE
4djw_0KP_A_1.pdb
 26 29 0 0 0
SMALL
GASTEIGER

@<TRIPOS>ATOM
      1  O1        22.3600   13.0630   22.3480 O.2   501  0KP501     -0.2520
      2  C1        22.4950   11.8750   22.5810 C.2   501  0KP501      0.3315
      3  C2        22.3390   10.6680   21.5610 C.3   501  0KP501      0.2671
      4  N1        22.5380    9.4930   22.4640 N.2   501  0KP501     -0.0835
      5  C3        22.7800    9.9140   23.7010 C.2   501  0KP501      0.4499
      6  N2        22.7860   11.3350   23.8120 N.am  501  0KP501     -0.1363
      7  N3        22.9970    9.1110   24.7490 N.pl3 501  0KP501      0.1440
      8  C4        23.0220   12.1410   25.0180 C.3   501  0KP501      0.2162
      9  C5        20.9020   10.6270   21.0050 C.ar  501  0KP501      0.0273
     10  C6        20.2720    9.4140   20.7470 C.ar  501  0KP501     -0.0002
     11  C7        18.9690    9.3760   20.2600 C.ar  501  0KP501     -0.0002
     12  C8        18.2800   10.5440   20.0210 C.ar  501  0KP501     -0.0000
     13  C9        18.8920   11.7530   20.2590 C.ar  501  0KP501     -0.0002
     14  C10       20.1950   11.7970   20.7440 C.ar  501  0KP501     -0.0002
     15  C11       23.4880   10.6920   20.5300 C.ar  501  0KP501      0.0273
     16  C12       23.2110   10.7890   19.1730 C.ar  501  0KP501     -0.0002
     17  C13       24.2350   10.8650   18.2430 C.ar  501  0KP501     -0.0002
     18  C14       25.5500   10.8410   18.6560 C.ar  501  0KP501      0.0000
     19  C15       25.8710   10.7460   20.0070 C.ar  501  0KP501      0.0013
     20  C16       24.8260   10.6610   20.9430 C.ar  501  0KP501     -0.0001
     21  C17       29.8540   10.9130   21.4510 C.ar  501  0KP501      0.0989
     22  N4        29.1260    9.8230   21.7090 N.ar  501  0KP501     -0.2423
     23  C18       27.8830    9.7800   21.2080 C.ar  501  0KP501      0.0988
     24  C19       27.3000   10.8010   20.4650 C.ar  501  0KP501      0.0192
     25  C20       28.0930   11.9190   20.2200 C.ar  501  0KP501      0.0031
     26  C21       29.3850   11.9780   20.7130 C.ar  501  0KP501      0.0207
@<TRIPOS>BOND
     1    17    18   ar
     2    17    16   ar
     3    18    19   ar
     4    16    15   ar
     5    19    24    1
     6    19    20   ar
     7    12    13   ar
     8    12    11   ar
     9    25    24   ar
    10    25    26   ar
    11    13    14   ar
    12    11    10   ar
    13    24    23   ar
    14    15    20   ar
    15    15     3    1
    16    26    21   ar
    17    14     9   ar
    18    10     9   ar
    19     9     3    1
    20    23    22   ar
    21    21    22   ar
    22     3     4    1
    23     3     2    1
    24     1     2    2
    25     4     5    2
    26     2     6   am
    27     5     6    1
    28     5     7    1
    29     6     8    1
