@<TRIPOS>MOLECULE
4djx_0KQ_A_1.pdb
 24 27 0 0 0
SMALL
GASTEIGER

@<TRIPOS>ATOM
      1  C1        22.5500   11.8310   22.8170 C.2   501  0KQ501      0.3274
      2  C2        22.3730   10.6620   21.8140 C.3   501  0KQ501      0.2484
      3  N1        22.5910    9.4540   22.6840 N.2   501  0KQ501     -0.0879
      4  C3        22.7060    9.8770   23.9680 C.2   501  0KQ501      0.4496
      5  N2        22.7440   11.2800   24.0610 N.am  501  0KQ501     -0.1366
      6  N3        22.8490    9.1120   25.0430 N.pl3 501  0KQ501      0.1440
      7  C4        22.9510   12.0640   25.2770 C.3   501  0KQ501      0.2162
      8  O1        22.5400   13.0220   22.5650 O.2   501  0KQ501     -0.2524
      9  C5        23.4570   10.7360   20.7400 C.ar  501  0KQ501      0.0233
     10  C6        20.9140   10.7470   21.3480 C.3   501  0KQ501      0.0507
     11  C7        23.1270   10.9510   19.4040 C.ar  501  0KQ501     -0.0005
     12  C8        24.1210   11.1010   18.4510 C.ar  501  0KQ501     -0.0002
     13  C9        25.4530   11.0630   18.8270 C.ar  501  0KQ501      0.0000
     14  C10       25.8130   10.8510   20.1640 C.ar  501  0KQ501      0.0013
     15  C11       24.8020   10.6620   21.1060 C.ar  501  0KQ501     -0.0005
     16  C12       27.2440   10.8520   20.5880 C.ar  501  0KQ501      0.0200
     17  C13       28.1840   11.7050   20.0240 C.ar  501  0KQ501      0.0989
     18  C15       29.8270   11.0800   21.5030 C.ar  501  0KQ501      0.1102
     19  C16       27.6670   10.0400   21.6440 C.ar  501  0KQ501      0.0145
     20  N5        29.4450   11.8280   20.4560 N.ar  501  0KQ501     -0.2414
     21  C17       20.2010    9.4730   20.9960 C.3   501  0KQ501      0.0044
     22  C18       19.7710   10.2720   22.1860 C.3   501  0KQ501      0.0044
     23  C19       28.9610   10.1830   22.0930 C.ar  501  0KQ501      0.0768
     24 CL1        29.5100    9.2030   23.4200 Cl    501  0KQ501     -0.0806
@<TRIPOS>BOND
     1    12    13   ar
     2    12    11   ar
     3    13    14   ar
     4    11     9   ar
     5    17    20   ar
     6    17    16   ar
     7    14    16    1
     8    14    15   ar
     9    20    18   ar
    10    16    19   ar
    11     9    15   ar
    12     9     2    1
    13    21    10    1
    14    21    22    1
    15    10     2    1
    16    10    22    1
    17    18    23   ar
    18    19    23   ar
    19     2     3    1
    20     2     1    1
    21    23    24    1
    22     8     1    2
    23     3     4    2
    24     1     5   am
    25     4     5    1
    26     4     6    1
    27     5     7    1
