@<TRIPOS>MOLECULE
4djy_0KR_A_1.pdb
 26 29 0 0 0
SMALL
GASTEIGER

@<TRIPOS>ATOM
      1  C1        22.3990   10.6480   21.7870 C.3   501  0KR501      0.2484
      2  N1        22.6830    9.4330   22.6490 N.2   501  0KR501     -0.0879
      3  C2        22.8520    9.8470   23.9060 C.2   501  0KR501      0.4496
      4  N2        22.8900   11.2620   24.0190 N.am  501  0KR501     -0.1366
      5  C3        22.6100   11.8220   22.7940 C.2   501  0KR501      0.3274
      6  C4        20.9080   10.7270   21.3440 C.3   501  0KR501      0.0507
      7  O1        22.5650   13.0160   22.5590 O.2   501  0KR501     -0.2524
      8  C5        23.4290   10.7860   20.6630 C.ar  501  0KR501      0.0233
      9  C6        24.7930   10.7570   20.9620 C.ar  501  0KR501     -0.0005
     10  C7        25.7480   10.9310   19.9540 C.ar  501  0KR501      0.0013
     11  C8        25.3090   11.1160   18.6380 C.ar  501  0KR501      0.0000
     12  C9        23.9590   11.1550   18.3400 C.ar  501  0KR501     -0.0002
     13  C10       23.0220   10.9930   19.3450 C.ar  501  0KR501     -0.0005
     14  N3        23.0560    9.0720   24.9750 N.pl3 501  0KR501      0.1440
     15  C11       23.1460   12.0470   25.2320 C.3   501  0KR501      0.2162
     16  C12       19.7850   10.2290   22.2140 C.3   501  0KR501      0.0044
     17  C13       20.1580    9.4850   20.9650 C.3   501  0KR501      0.0044
     18  C14       27.2010   11.0000   20.3020 C.ar  501  0KR501      0.0198
     19  C15       27.7290   10.1920   21.3140 C.ar  501  0KR501      0.0113
     20  C16       29.0780   10.3030   21.6500 C.ar  501  0KR501      0.0608
     21  C17       29.8540   11.2290   20.9470 C.ar  501  0KR501      0.1071
     22  C19       28.0710   11.8820   19.6670 C.ar  501  0KR501      0.0989
     23  C21       29.6450    9.4810   22.6860 C.1   501  0KR501     -0.0628
     24  N5        29.3690   12.0030   19.9720 N.ar  501  0KR501     -0.2417
     25  C22       30.1780    8.8420   23.5350 C.1   501  0KR501     -0.0853
     26  C23       30.8660    8.0790   24.5790 C.3   501  0KR501      0.0903
@<TRIPOS>BOND
     1    12    11   ar
     2    12    13   ar
     3    11    10   ar
     4    13     8   ar
     5    22    24   ar
     6    22    18   ar
     7    10    18    1
     8    10     9   ar
     9    24    21   ar
    10    18    19   ar
    11     8     9   ar
    12     8     1    1
    13    21    20   ar
    14    17     6    1
    15    17    16    1
    16    19    20   ar
    17     6     1    1
    18     6    16    1
    19    20    23    1
    20     1     2    1
    21     1     5    1
    22     7     5    2
    23     2     3    2
    24    23    25    3
    25     5     4   am
    26    25    26    1
    27     3     4    1
    28     3    14    1
    29     4    15    1
