@<TRIPOS>MOLECULE
4dk5_0KO_A_1.pdb
 34 37 0 0 0
SMALL
GASTEIGER

@<TRIPOS>ATOM
      1  C31       28.8560   11.6840   20.6950 C.3   1204  0KO1204     0.2542
      2  O30       27.9590   12.3380   19.7860 O.3   1204  0KO1204    -0.4561
      3  C27       26.8160   12.7730   20.3880 C.ar  1204  0KO1204     0.2251
      4  C28       25.8730   13.4540   19.6180 C.ar  1204  0KO1204     0.0591
      5  C29       24.6990   13.8920   20.2200 C.ar  1204  0KO1204     0.0229
      6  N26       26.5930   12.5470   21.6990 N.ar  1204  0KO1204    -0.2088
      7  C25       25.4880   12.9610   22.2990 C.ar  1204  0KO1204     0.1185
      8  C24       24.5090   13.6480   21.5850 C.ar  1204  0KO1204     0.0915
      9  N7        23.4060   14.0430   22.2200 N.pl3 1204  0KO1204    -0.1919
     10  C2        22.8560   15.2520   22.0660 C.ar  1204  0KO1204     0.1631
     11  N1        23.4940   16.2190   21.3690 N.ar  1204  0KO1204    -0.2269
     12  C6        22.9770   17.4220   21.1890 C.ar  1204  0KO1204     0.0975
     13  C5        21.7360   17.7290   21.7440 C.ar  1204  0KO1204     0.0139
     14  C9        21.1430   19.1230   21.5430 C.3   1204  0KO1204     0.1008
     15  N10       20.4110   19.1080   20.2730 N.3   1204  0KO1204    -0.2664
     16  C15       20.8160   20.2310   19.4090 C.3   1204  0KO1204     0.0917
     17  C14       20.1100   20.0580   18.0590 C.3   1204  0KO1204     0.1128
     18  C11       18.9620   19.1440   20.5410 C.3   1204  0KO1204     0.0917
     19  C12       18.2580   18.8820   19.2120 C.3   1204  0KO1204     0.1128
     20  N13       18.6450   19.9420   18.2570 N.3   1204  0KO1204    -0.1565
     21  S16       17.9230   19.6880   16.8060 S.O2  1204  0KO1204     0.0457
     22  C32       16.9950   21.1470   16.3680 C.3   1204  0KO1204     0.1960
     23  O34       16.9860   18.5030   16.8520 O.2   1204  0KO1204    -0.1572
     24  O33       18.9830   19.4420   15.7710 O.2   1204  0KO1204    -0.1572
     25  C4        21.0410   16.7620   22.4750 C.ar  1204  0KO1204     0.0136
     26  C3        21.6070   15.5010   22.6310 C.ar  1204  0KO1204     0.1202
     27  C8        20.9620   14.5150   23.3740 C.1   1204  0KO1204     0.1642
     28  N21       19.6700   14.6190   23.7270 N.2   1204  0KO1204    -0.2576
     29  N17       21.6660   13.4480   23.7830 N.2   1204  0KO1204    -0.2775
     30  C18       21.0850   12.4900   24.5150 C.1   1204  0KO1204     0.1395
     31  C22       21.9120   11.2920   24.9580 C.3   1204  0KO1204     0.1448
     32  N19       19.7920   12.5920   24.8550 N.2   1204  0KO1204    -0.2621
     33  C20       19.0870   13.6600   24.4660 C.1   1204  0KO1204     0.2608
     34  N23       17.8080   13.7610   24.8110 N.pl3 1204  0KO1204    -0.0220
@<TRIPOS>BOND
     1    24    21    2
     2    22    21    1
     3    21    23    2
     4    21    20    1
     5    17    20    1
     6    17    16    1
     7    20    19    1
     8    19    18    1
     9    16    15    1
    10     4     5   ar
    11     4     3   ar
    12     2     3    1
    13     2     1    1
    14     5     8   ar
    15    15    18    1
    16    15    14    1
    17     3     6   ar
    18    12    11   ar
    19    12    13   ar
    20    11    10   ar
    21    14    13    1
    22     8     9    1
    23     8     7   ar
    24     6     7   ar
    25    13    25   ar
    26    10     9    1
    27    10    26   ar
    28    25    26   ar
    29    26    27    1
    30    27    28    2
    31    27    29    2
    32    28    33    2
    33    29    30    2
    34    33    34    1
    35    33    32    2
    36    30    32    2
    37    30    31    1
