@<TRIPOS>MOLECULE
4dk7_0KS_A_1.pdb
 27 28 0 0 0
SMALL
GASTEIGER

@<TRIPOS>ATOM
      1  C1        41.5400   68.0850   41.2280 C.ar  501  0KS501      0.0216
      2  C2        40.6920   67.3820   42.1320 C.ar  501  0KS501     -0.0000
      3  C3        40.9840   68.4550   39.9750 C.ar  501  0KS501     -0.0000
      4  C4        39.3670   67.0720   41.7960 C.ar  501  0KS501      0.0159
      5  C5        39.6690   68.1470   39.6380 C.ar  501  0KS501      0.0159
      6  C6        38.8240   67.4450   40.5480 C.ar  501  0KS501      0.0688
      7  N1        37.4590   67.0790   40.2750 N.pl3 501  0KS501     -0.1888
      8  S2        36.9630   65.4040   40.0170 S.O2  501  0KS501      0.0766
      9  O4        35.6080   65.4530   39.5150 O.2   501  0KS501     -0.1497
     10  O5        37.1310   64.7550   41.2970 O.2   501  0KS501     -0.1497
     11  C8        38.0180   64.5890   38.8050 C.ar  501  0KS501      0.1254
     12  C9        39.2110   63.9300   39.2230 C.ar  501  0KS501      0.0202
     13  C10       37.6440   64.6020   37.4290 C.ar  501  0KS501      0.0202
     14  C11       38.4550   63.9600   36.4670 C.ar  501  0KS501      0.0014
     15  C12       40.0210   63.2870   38.2650 C.ar  501  0KS501      0.0014
     16  C13       39.6330   63.3100   36.8980 C.ar  501  0KS501      0.0001
     17  C7        36.9780   67.9490   39.1720 C.3   501  0KS501      0.1392
     18  C18       42.9970   68.4480   41.5400 C.3   501  0KS501      0.3171
     19  C19       43.9500   67.2380   41.2270 C.3   501  0KS501      0.4344
     20  C20       43.1470   69.0520   43.0080 C.3   501  0KS501      0.4344
     21  F5        45.2500   67.5470   41.4750 F     501  0KS501     -0.1668
     22  F4        43.8540   66.8780   39.9130 F     501  0KS501     -0.1668
     23  F6        43.6550   66.1270   41.9650 F     501  0KS501     -0.1668
     24  F7        44.4370   69.4030   43.2610 F     501  0KS501     -0.1668
     25  F9        42.8110   68.1670   43.9780 F     501  0KS501     -0.1668
     26  F8        42.3410   70.1610   43.1720 F     501  0KS501     -0.1668
     27  O1        43.4470   69.5230   40.6980 O.3   501  0KS501     -0.2033
@<TRIPOS>BOND
     1    14    16   ar
     2    14    13   ar
     3    16    15   ar
     4    13    11   ar
     5    15    12   ar
     6    11    12   ar
     7    11     8    1
     8    17     7    1
     9     9     8    2
    10     5     3   ar
    11     5     6   ar
    12    22    19    1
    13     3     1   ar
    14     8     7    1
    15     8    10    2
    16     7     6    1
    17     6     4   ar
    18    27    18    1
    19    19    21    1
    20    19    18    1
    21    19    23    1
    22     1    18    1
    23     1     2   ar
    24    18    20    1
    25     4     2   ar
    26    20    26    1
    27    20    24    1
    28    20    25    1
