@<TRIPOS>MOLECULE
4dk8_0KT_A_1.pdb
 32 34 0 0 0
SMALL
GASTEIGER

@<TRIPOS>ATOM
      1  C1        39.7500   66.6120   40.6160 C.ar  501  0KT501      0.0186
      2  C2        40.3300   67.6170   39.7780 C.ar  501  0KT501      0.0000
      3  C3        40.3160   66.4070   41.8860 C.ar  501  0KT501      0.0000
      4  C4        41.4400   68.3570   40.1960 C.ar  501  0KT501      0.0159
      5  C5        41.4160   67.1440   42.3030 C.ar  501  0KT501      0.0159
      6  C6        41.9980   68.1270   41.4680 C.ar  501  0KT501      0.0688
      7  N1        43.1560   68.8610   41.8240 N.pl3 501  0KT501     -0.1888
      8  S2        44.6620   67.9600   42.2360 S.O2  501  0KT501      0.0766
      9  O4        45.6370   68.9900   42.4930 O.2   501  0KT501     -0.1497
     10  O5        44.9010   67.0860   41.0990 O.2   501  0KT501     -0.1497
     11  C8        44.5620   66.9670   43.7150 C.ar  501  0KT501      0.1254
     12  C9        44.0600   65.6450   43.6590 C.ar  501  0KT501      0.0202
     13  C10       44.9920   67.5230   44.9450 C.ar  501  0KT501      0.0202
     14  C11       44.9180   66.7550   46.1280 C.ar  501  0KT501      0.0014
     15  C12       43.9850   64.8780   44.8450 C.ar  501  0KT501      0.0014
     16  C13       44.4130   65.4330   46.0800 C.ar  501  0KT501      0.0001
     17  C7        42.7030   69.8220   42.8590 C.3   501  0KT501      0.1392
     18  C18       38.5660   65.7660   40.1740 C.3   501  0KT501      0.2643
     19  C19       38.9420   65.0480   38.8500 C.ar  501  0KT501      0.0771
     20  C20       37.2750   66.6600   40.0470 C.3   501  0KT501      0.4314
     21  F7        36.2290   65.9220   39.6680 F     501  0KT501     -0.1668
     22  F9        37.4060   67.6240   39.1410 F     501  0KT501     -0.1668
     23  F8        37.0090   67.2440   41.2140 F     501  0KT501     -0.1668
     24  O1        38.2230   64.8110   41.1770 O.3   501  0KT501     -0.2062
     25  C14       38.3660   65.2280   37.5690 C.ar  501  0KT501      0.0173
     26  N2        39.9370   64.1040   38.7280 N.ar  501  0KT501     -0.3244
     27  C16       39.9770   63.7130   37.4250 C.ar  501  0KT501      0.0758
     28  C17       39.0160   64.3930   36.6890 C.ar  501  0KT501      0.0199
     29  C15       40.8640   63.5380   39.7500 C.3   501  0KT501      0.1378
     30  C21       40.4650   62.1210   40.1620 C.3   501  0KT501      0.1666
     31  O2        39.0870   62.0010   40.4670 O.3   501  0KT501     -0.3490
     32  C23       38.8170   60.8850   41.2930 C.3   501  0KT501      0.1742
@<TRIPOS>BOND
     1    28    27   ar
     2    28    25   ar
     3    27    26   ar
     4    25    19   ar
     5    26    19   ar
     6    26    29    1
     7    19    18    1
     8    22    20    1
     9    21    20    1
    10    29    30    1
    11     2     4   ar
    12     2     1   ar
    13    20    18    1
    14    20    23    1
    15    30    31    1
    16    18     1    1
    17    18    24    1
    18     4     6   ar
    19    31    32    1
    20     1     3   ar
    21    10     8    2
    22     6     7    1
    23     6     5   ar
    24     7     8    1
    25     7    17    1
    26     3     5   ar
    27     8     9    2
    28     8    11    1
    29    12    11   ar
    30    12    15   ar
    31    11    13   ar
    32    15    16   ar
    33    13    14   ar
    34    16    14   ar
