@<TRIPOS>MOLECULE
4dkj_SAH_A_1.pdb
 26 28 0 0 0
SMALL
GASTEIGER

@<TRIPOS>ATOM
      1  N         23.0060   26.2250   46.6360 N.3   501  SAH501     -0.1208
      2  CA        23.0170   26.1920   45.1430 C.3   501  SAH501      0.1952
      3  CB        23.8600   25.0160   44.6010 C.3   501  SAH501      0.0422
      4  CG        25.2770   24.9360   45.1650 C.3   501  SAH501      0.0597
      5  SD        26.1300   23.5050   44.5640 S.3   501  SAH501     -0.1375
      6  C         21.6080   26.1410   44.5390 C.2   501  SAH501      0.3819
      7  O         20.6370   26.7130   44.9410 O.co2 501  SAH501     -0.2441
      8  OXT       21.3660   25.4970   43.5490 O.co2 501  SAH501     -0.2441
      9  C5'       27.8080   24.0780   44.5140 C.3   501  SAH501      0.0899
     10  C4'       28.0130   25.0420   43.3430 C.3   501  SAH501      0.1630
     11  O4'       29.2820   25.7140   43.3980 O.3   501  SAH501     -0.3153
     12  C3'       27.9190   24.3920   41.9630 C.3   501  SAH501      0.2168
     13  O3'       26.7670   24.9520   41.2940 O.3   501  SAH501     -0.2175
     14  C2'       29.2560   24.7560   41.3070 C.3   501  SAH501      0.2569
     15  O2'       29.1440   25.0260   39.9300 O.3   501  SAH501     -0.2130
     16  C1'       29.7080   25.9990   42.0700 C.3   501  SAH501      0.3185
     17  N9        31.1680   26.2790   42.0190 N.pl3 501  SAH501     -0.1439
     18  C8        32.1590   25.3820   42.1100 C.3   501  SAH501      0.3377
     19  N7        33.3690   25.9860   42.0320 N.2   501  SAH501     -0.2095
     20  C5        33.1550   27.3010   41.8990 C.2   501  SAH501      0.2526
     21  C6        34.0090   28.4950   41.7790 C.2   501  SAH501      0.4393
     22  N6        35.3550   28.3750   41.7600 N.pl3 501  SAH501      0.2180
     23  N1        33.3930   29.6690   41.6580 N.2   501  SAH501      0.0021
     24  C2        32.0490   29.7840   41.6430 C.3   501  SAH501      0.5254
     25  N3        31.2170   28.7380   41.7300 N.2   501  SAH501     -0.0055
     26  C4        31.7060   27.4940   41.8810 C.2   501  SAH501      0.3518
@<TRIPOS>BOND
     1    15    14    1
     2    13    12    1
     3    14    12    1
     4    14    16    1
     5    24    23    1
     6    24    25    1
     7    23    21    2
     8    25    26    2
     9    22    21    1
    10    21    20    1
    11    26    20    1
    12    26    17    1
    13    20    19    2
    14    12    10    1
    15    17    16    1
    16    17    18    1
    17    19    18    1
    18    16    11    1
    19    10    11    1
    20    10     9    1
    21     8     6   ar
    22     9     5    1
    23     6     7   ar
    24     6     2    1
    25     5     4    1
    26     3     2    1
    27     3     4    1
    28     2     1    1
