@<TRIPOS>MOLECULE
4dkl_BF0_A_1.pdb
 33 38 0 0 0
SMALL
GASTEIGER

@<TRIPOS>ATOM
      1  CBF      -27.6740   -8.7430  -15.0070 C.3   601  BF0601      0.0014
      2  CBG      -27.4340   -7.3530  -14.4480 C.3   601  BF0601      0.0014
      3  CBE      -26.3360   -8.4070  -14.3300 C.3   601  BF0601      0.0160
      4  CBD      -25.9840   -8.8510  -12.8780 C.3   601  BF0601      0.0721
      5  NAJ      -25.9340  -10.3080  -12.5950 N.3   601  BF0601     -0.2715
      6  CAK      -25.5100  -10.4600  -11.2220 C.3   601  BF0601      0.0727
      7  CAL      -25.4140  -11.9060  -10.7800 C.3   601  BF0601      0.0275
      8  CAM      -26.8120  -12.5260  -10.9600 C.3   601  BF0601      0.0883
      9  CBC      -27.6990  -11.8430  -10.0900 C.ar  601  BF0601      0.0163
     10  CAN      -26.8440  -13.7820  -10.3830 C.3   601  BF0601      0.1917
     11  OAA      -26.6080  -13.2970   -9.0000 O.3   601  BF0601     -0.4741
     12  CAB      -27.6560  -12.4410   -8.8640 C.ar  601  BF0601      0.1729
     13  CAC      -28.1810  -11.6190   -7.9740 C.ar  601  BF0601      0.2289
     14  OAD      -28.1560  -12.1130   -6.7080 O.3   601  BF0601     -0.2833
     15  CAE      -29.1070  -10.6180   -8.2630 C.ar  601  BF0601      0.0449
     16  CAF      -29.2380  -10.1400   -9.5550 C.ar  601  BF0601     -0.0010
     17  CAG      -28.4290  -10.7750  -10.4750 C.ar  601  BF0601     -0.0214
     18  CAH      -28.4990  -10.4940  -11.8600 C.3   601  BF0601      0.0446
     19  CAI      -27.2590  -10.9960  -12.6820 C.3   601  BF0601      0.0904
     20  CAR      -27.2600  -12.4760  -12.4100 C.3   601  BF0601      0.1469
     21  OAS      -26.3320  -13.1470  -13.2630 O.3   601  BF0601     -0.2238
     22  CAQ      -28.6560  -13.0910  -12.5220 C.3   601  BF0601      0.0341
     23  CAP      -28.6740  -14.5190  -12.0440 C.3   601  BF0601      0.0280
     24  CAO      -28.2260  -14.4460  -10.5370 C.3   601  BF0601      0.1355
     25  NAT      -28.1940  -15.7790   -9.9090 N.am  601  BF0601     -0.2035
     26  CAU      -29.3020  -16.5380   -9.8120 C.2   601  BF0601      0.2420
     27  OAV      -30.4190  -16.1870  -10.1900 O.2   601  BF0601     -0.2733
     28  CAW      -29.1180  -17.8980   -9.1380 C.3   601  BF0601      0.0985
     29  CAX      -30.1720  -18.8530   -9.7230 C.3   601  BF0601      0.1192
     30  CAY      -30.0530  -19.0030  -11.2520 C.2   601  BF0601      0.3176
     31  OAZ      -31.0560  -19.2200  -11.9340 O.2   601  BF0601     -0.2501
     32  OBA      -28.8010  -18.8780  -11.7720 O.3   601  BF0601     -0.4444
     33  CBB      -28.8600  -19.0340  -13.1960 C.3   601  BF0601      0.2556
@<TRIPOS>BOND
     1     1     2    1
     2     1     3    1
     3     2     3    1
     4     3     4    1
     5    21    20    1
     6    33    32    1
     7     4     5    1
     8    19     5    1
     9    19    20    1
    10    19    18    1
    11     5     6    1
    12    22    20    1
    13    22    23    1
    14    20     8    1
    15    23    24    1
    16    31    30    2
    17    18    17    1
    18    32    30    1
    19    30    29    1
    20     6     7    1
    21     8     7    1
    22     8    10    1
    23     8     9    1
    24    24    10    1
    25    24    25    1
    26    17     9   ar
    27    17    16   ar
    28    10    11    1
    29    27    26    2
    30     9    12   ar
    31    25    26   am
    32    26    28    1
    33    29    28    1
    34    16    15   ar
    35    11    12    1
    36    12    13   ar
    37    15    13   ar
    38    13    14    1
