@<TRIPOS>MOLECULE
4dkl_CLR_A_1.pdb
 28 31 0 0 0
SMALL
GASTEIGER

@<TRIPOS>ATOM
      1  C1       -44.3470  -14.2660  -10.7190 C.3   614  CLR614      0.0063
      2  C2       -44.5190  -15.7410  -11.0610 C.3   614  CLR614      0.0335
      3  C3       -44.6650  -15.9160  -12.5660 C.3   614  CLR614      0.1560
      4  C4       -43.3580  -15.4860  -13.2180 C.3   614  CLR614      0.0545
      5  C5       -43.0840  -14.0500  -12.8370 C.2   614  CLR614     -0.0466
      6  C6       -42.8100  -13.1810  -13.8230 C.2   614  CLR614     -0.0345
      7  C7       -42.8070  -11.6880  -13.6200 C.3   614  CLR614      0.0254
      8  C8       -42.3580  -11.3600  -12.2080 C.3   614  CLR614      0.0046
      9  C9       -43.1670  -12.1440  -11.1800 C.3   614  CLR614      0.0038
     10  C10      -43.1090  -13.6590  -11.3750 C.3   614  CLR614      0.0150
     11  C11      -42.7590  -11.7450   -9.7560 C.3   614  CLR614      0.0003
     12  C12      -42.8490  -10.2370   -9.5080 C.3   614  CLR614      0.0000
     13  C13      -42.0440   -9.4920  -10.5610 C.3   614  CLR614      0.0000
     14  C14      -42.5810   -9.8860  -11.9190 C.3   614  CLR614      0.0003
     15  C15      -41.9830   -8.8720  -12.8820 C.3   614  CLR614      0.0000
     16  C16      -41.9720   -7.5830  -12.0610 C.3   614  CLR614      0.0000
     17  C17      -42.1840   -7.9750  -10.5930 C.3   614  CLR614      0.0000
     18  C18      -40.5650   -9.8560  -10.4460 C.3   614  CLR614      0.0000
     19  C19      -41.8590  -14.2270  -10.7150 C.3   614  CLR614      0.0040
     20  C20      -41.2550   -7.2180   -9.6430 C.3   614  CLR614      0.0000
     21  C21      -41.9070   -7.0190   -8.2760 C.3   614  CLR614      0.0000
     22  C22      -40.8090   -5.8960  -10.2660 C.3   614  CLR614      0.0000
     23  C23      -40.7590   -4.7330   -9.2810 C.3   614  CLR614      0.0000
     24  C24      -41.2690   -3.4640   -9.9560 C.3   614  CLR614      0.0000
     25  C25      -40.2200   -2.3610   -9.9610 C.3   614  CLR614      0.0000
     26  C26      -40.2580   -1.5640   -8.6630 C.3   614  CLR614      0.0000
     27  C27      -40.4120   -1.4380  -11.1590 C.3   614  CLR614      0.0000
     28  O1       -44.9400  -17.2850  -12.8780 O.3   614  CLR614     -0.2228
@<TRIPOS>BOND
     1     6     7    1
     2     6     5    2
     3     7     8    1
     4     4     5    1
     5     4     3    1
     6    15    16    1
     7    15    14    1
     8    28     3    1
     9     5    10    1
    10     3     2    1
    11     8    14    1
    12     8     9    1
    13    16    17    1
    14    14    13    1
    15    10     9    1
    16    10     1    1
    17    10    19    1
    18     9    11    1
    19    27    25    1
    20     2     1    1
    21    17    13    1
    22    17    20    1
    23    13    18    1
    24    13    12    1
    25    22    20    1
    26    22    23    1
    27    25    24    1
    28    25    26    1
    29    24    23    1
    30    11    12    1
    31    20    21    1
