@<TRIPOS>MOLECULE
4dkl_MPG_A_1.pdb
 25 24 0 0 0
SMALL
GASTEIGER

@<TRIPOS>ATOM
      1  C2        -6.6590    9.3620  -14.2220 C.3   615  MPG615      0.0474
      2  C3        -7.0380    9.3880  -12.7450 C.3   615  MPG615      0.0038
      3  C4        -8.2720   10.2530  -12.5090 C.3   615  MPG615      0.0001
      4  C5        -9.4440    9.7910  -13.3710 C.3   615  MPG615      0.0000
      5  C6       -10.5270    9.0980  -12.5530 C.3   615  MPG615      0.0003
      6  C7       -10.0200    7.8150  -11.8990 C.3   615  MPG615      0.0047
      7  C8       -11.1730    7.0090  -11.3210 C.3   615  MPG615      0.0257
      8  C9       -10.8830    6.6250   -9.8900 C.2   615  MPG615     -0.0307
      9  C10      -10.9240    5.3490   -9.5210 C.2   615  MPG615     -0.0307
     10  C11      -11.2380    4.2700  -10.5300 C.3   615  MPG615      0.0257
     11  C12      -10.1550    3.2000  -10.4840 C.3   615  MPG615      0.0047
     12  C13      -10.2980    2.3560   -9.2210 C.3   615  MPG615      0.0003
     13  C14       -9.9190    0.9050   -9.4900 C.3   615  MPG615      0.0000
     14  C15      -10.7000    0.3590  -10.6800 C.3   615  MPG615      0.0000
     15  C16      -10.2760   -1.0660  -11.0170 C.3   615  MPG615      0.0000
     16  C17      -11.0170   -1.5760  -12.2480 C.3   615  MPG615      0.0000
     17  C18      -10.5690   -2.9740  -12.6150 C.3   615  MPG615      0.0000
     18  O1        -5.1080   11.1090  -13.8070 O.3   615  MPG615     -0.4467
     19  C1        -6.1810   10.7390  -14.6650 C.3   615  MPG615      0.2085
     20  O11       -5.2210   13.4080  -14.0800 O.2   615  MPG615     -0.2472
     21  CXD       -4.5330   12.7050  -11.9180 C.3   615  MPG615      0.2822
     22  O2        -4.2890   14.0990  -11.6990 O.3   615  MPG615     -0.2082
     23  C21       -3.2690   11.8970  -11.6450 C.3   615  MPG615      0.2264
     24  O3        -3.5300   10.5080  -11.8800 O.3   615  MPG615     -0.2169
     25  CX3       -4.9690   12.4760  -13.3340 C.2   615  MPG615      0.3505
@<TRIPOS>BOND
     1    19     1    1
     2    19    18    1
     3     1     2    1
     4    20    25    2
     5    18    25    1
     6     4     5    1
     7     4     3    1
     8    25    21    1
     9     2     3    1
    10    17    16    1
    11     5     6    1
    12    16    15    1
    13    21    22    1
    14    21    23    1
    15     6     7    1
    16    24    23    1
    17     7     8    1
    18    15    14    1
    19    14    13    1
    20    10    11    1
    21    10     9    1
    22    11    12    1
    23     8     9    2
    24    13    12    1
