@<TRIPOS>MOLECULE
4dko_0LM_A_1.pdb
 25 26 0 0 0
SMALL
GASTEIGER

@<TRIPOS>ATOM
      1  C10       28.1020  -15.4540   37.4700 C.2   513  0LM513      0.3204
      2  C13       28.4590  -15.3320   34.9130 C.3   513  0LM513      0.0984
      3  C15       28.2240  -13.3160   33.4590 C.3   513  0LM513      0.0471
      4  C17       30.3380  -13.6710   34.7480 C.3   513  0LM513      0.0471
      5  C20       31.7850  -13.6890   34.3800 C.3   513  0LM513      0.0161
      6  C21       27.3240  -12.3480   34.1470 C.3   513  0LM513      0.0161
      7  C22       27.9760  -13.1160   31.9980 C.3   513  0LM513      0.0161
      8  C01       27.2230  -14.7080   43.5510 C.ar  513  0LM513      0.0150
      9  C02       25.8460  -14.5560   43.6230 C.ar  513  0LM513      0.0851
     10  C03       25.0720  -14.7230   42.4840 C.ar  513  0LM513      0.1519
     11  C04       25.6730  -15.0430   41.2750 C.ar  513  0LM513      0.0471
     12  C05       27.0540  -15.1890   41.1960 C.ar  513  0LM513      0.0761
     13  C06       27.8230  -15.0280   42.3400 C.ar  513  0LM513      0.0176
     14  N07       27.7050  -15.5290   39.9590 N.am  513  0LM513     -0.1714
     15  C08       27.3400  -15.0090   38.6740 C.2   513  0LM513      0.3243
     16  O09       26.4280  -14.2070   38.5420 O.2   513  0LM513     -0.2629
     17  N11       27.7540  -14.9350   36.1830 N.am  513  0LM513     -0.1994
     18  O12       29.0140  -16.2570   37.6060 O.2   513  0LM513     -0.2633
     19  C14       27.8110  -14.7220   33.7860 C.3   513  0LM513      0.0364
     20  N16       29.6200  -12.9590   33.7090 N.3   513  0LM513     -0.2764
     21  C18       29.9160  -15.0810   34.9430 C.3   513  0LM513      0.0364
     22  C19       30.2240  -12.9400   36.0450 C.3   513  0LM513      0.0161
     23  C23       30.1050  -11.6550   33.3590 C.3   513  0LM513      0.0895
     24 CL         25.0910  -14.1580   45.1260 Cl    513  0LM513     -0.0799
     25  F25       23.7520  -14.5770   42.5560 F     513  0LM513     -0.2032
@<TRIPOS>BOND
     1     7     3    1
     2    23    20    1
     3     3    20    1
     4     3    19    1
     5     3     6    1
     6    20     4    1
     7    19     2    1
     8     5     4    1
     9     4    21    1
    10     4    22    1
    11     2    21    1
    12     2    17    1
    13    17     1   am
    14     1    18    2
    15     1    15    1
    16    16    15    2
    17    15    14   am
    18    14    12    1
    19    12    11   ar
    20    12    13   ar
    21    11    10   ar
    22    13     8   ar
    23    10    25    1
    24    10     9   ar
    25     8     9   ar
    26     9    24    1
