@<TRIPOS>MOLECULE
4dkp_0LL_A_1.pdb
 24 26 0 0 0
SMALL
GASTEIGER

@<TRIPOS>ATOM
      1  C13       27.1830  -14.8660   38.9990 C.2   513  0LL513      0.3243
      2  C15       26.8590  -15.0220   41.5330 C.ar  513  0LL513      0.0761
      3  C20       25.4430  -14.5530   43.9530 C.ar  513  0LL513      0.0851
      4  C21       24.7850  -14.5850   42.7360 C.ar  513  0LL513      0.1519
      5  C22       25.4700  -14.8040   41.5340 C.ar  513  0LL513      0.0471
      6  C01       25.9120  -14.3330   32.0590 C.ar  513  0LL513     -0.0003
      7  C02       26.4890  -14.9600   33.1720 C.ar  513  0LL513     -0.0029
      8  C03       27.4570  -14.3210   33.9320 C.ar  513  0LL513     -0.0050
      9  C04       27.8400  -13.0140   33.5570 C.ar  513  0LL513     -0.0230
     10  C05       27.2720  -12.3800   32.4500 C.ar  513  0LL513     -0.0045
     11  C06       26.2970  -13.0460   31.6920 C.ar  513  0LL513     -0.0003
     12  C07       28.2110  -14.8030   35.1750 C.3   513  0LL513      0.1354
     13  C08       29.4170  -13.7810   35.2310 C.3   513  0LL513      0.1202
     14  C09       28.8880  -12.5100   34.4980 C.3   513  0LL513      0.0472
     15  N10       30.5980  -14.3520   34.5740 N.3   513  0LL513     -0.1304
     16  N11       27.5180  -14.7010   36.4720 N.am  513  0LL513     -0.1935
     17  C12       28.0340  -15.0650   37.7020 C.2   513  0LL513      0.3208
     18  N14       27.5970  -15.2220   40.3030 N.am  513  0LL513     -0.1714
     19  O16       26.0670  -14.3700   38.8060 O.2   513  0LL513     -0.2629
     20  O17       29.1620  -15.5640   37.8220 O.2   513  0LL513     -0.2633
     21  C18       27.5160  -14.9700   42.7930 C.ar  513  0LL513      0.0176
     22  C19       26.8140  -14.7470   43.9720 C.ar  513  0LL513      0.0150
     23 CL         24.5550  -14.2660   45.3710 Cl    513  0LL513     -0.0799
     24  F24       23.4710  -14.4040   42.7100 F     513  0LL513     -0.2032
@<TRIPOS>BOND
     1    11     6   ar
     2    11    10   ar
     3     6     7   ar
     4    10     9   ar
     5     7     8   ar
     6     9     8   ar
     7     9    14    1
     8     8    12    1
     9    14    13    1
    10    15    13    1
    11    12    13    1
    12    12    16    1
    13    16    17   am
    14    17    20    2
    15    17     1    1
    16    19     1    2
    17     1    18   am
    18    18     2    1
    19     2     5   ar
    20     2    21   ar
    21     5     4   ar
    22    24     4    1
    23     4     3   ar
    24    21    22   ar
    25     3    22   ar
    26     3    23    1
