@<TRIPOS>MOLECULE
4dkq_0LK_A_1.pdb
 27 29 0 0 0
SMALL
GASTEIGER

@<TRIPOS>ATOM
      1  C13       -3.8260  -15.8600   13.8350 C.2   613  0LK613      0.3243
      2  C15       -4.0550  -15.7730   16.2360 C.ar  613  0LK613      0.0761
      3  C20       -5.4280  -15.2510   18.7170 C.ar  613  0LK613      0.0851
      4  C21       -6.1430  -15.3690   17.5400 C.ar  613  0LK613      0.1519
      5  C22       -5.4860  -15.6230   16.2930 C.ar  613  0LK613      0.0471
      6  C01       -4.7840  -15.0910    7.1930 C.ar  613  0LK613     -0.0003
      7  C02       -4.1900  -15.8270    8.2640 C.ar  613  0LK613     -0.0028
      8  C03       -3.2570  -15.2320    9.0490 C.ar  613  0LK613     -0.0030
      9  C04       -2.9020  -13.9170    8.7840 C.ar  613  0LK613     -0.0209
     10  C05       -3.4830  -13.1850    7.7370 C.ar  613  0LK613     -0.0044
     11  C06       -4.4260  -13.7940    6.9490 C.ar  613  0LK613     -0.0003
     12  C07       -2.5120  -15.7850   10.1840 C.3   613  0LK613      0.1576
     13  C08       -1.3640  -14.6510   10.4150 C.3   613  0LK613      0.2092
     14  C09       -1.8660  -13.4420    9.7450 C.3   613  0LK613      0.0714
     15  N10       -0.0380  -15.0850    9.7750 N.pl3 613  0LK613     -0.0877
     16  N11       -3.3590  -15.9780   11.4590 N.am  613  0LK613     -0.1914
     17  C12       -2.8950  -16.1300   12.6930 C.2   613  0LK613      0.3208
     18  N14       -3.3810  -15.9950   15.0670 N.am  613  0LK613     -0.1714
     19  O16       -5.0640  -15.5020   13.5190 O.2   613  0LK613     -0.2629
     20  O17       -1.7190  -16.4870   12.9070 O.2   613  0LK613     -0.2633
     21  C18       -3.3560  -15.6370   17.4170 C.ar  613  0LK613      0.0176
     22  C19       -4.0600  -15.3740   18.6870 C.ar  613  0LK613      0.0150
     23 CL         -6.2800  -14.9340   20.2090 Cl    613  0LK613     -0.0799
     24  F24       -7.4520  -15.2540   17.5610 F     613  0LK613     -0.2032
     25  C25        0.5970  -16.1340   10.0420 C.cat 613  0LK613      0.5345
     26  N26        0.1800  -17.0470   10.9990 N.pl3 613  0LK613      0.1354
     27  N27        1.7930  -16.4120    9.3670 N.pl3 613  0LK613      0.1354
@<TRIPOS>BOND
     1    11     6   ar
     2    11    10   ar
     3     6     7   ar
     4    10     9   ar
     5     7     8   ar
     6     9     8   ar
     7     9    14    1
     8     8    12    1
     9    27    25    1
    10    14    13    1
    11    15    25    2
    12    15    13    1
    13    25    26    1
    14    12    13    1
    15    12    16    1
    16    16    17   am
    17    17    20    2
    18    17     1    1
    19    19     1    2
    20     1    18   am
    21    18     2    1
    22     2     5   ar
    23     2    21   ar
    24     5     4   ar
    25    21    22   ar
    26     4    24    1
    27     4     3   ar
    28    22     3   ar
    29     3    23    1
