@<TRIPOS>MOLECULE
4dkr_0LJ_A_1.pdb
 27 29 0 0 0
SMALL
GASTEIGER

@<TRIPOS>ATOM
      1  C10       27.5100  -15.1910   38.5030 C.2   513  0LJ513      0.3243
      2  C15       29.0220  -15.2890   34.9760 C.3   513  0LJ513      0.1576
      3  C17       29.0210  -15.4480   32.6730 C.3   513  0LJ513      0.0714
      4  C21       29.6400  -12.9080   32.2470 C.ar  513  0LJ513     -0.0044
      5  C22       29.9250  -11.6840   32.8650 C.ar  513  0LJ513     -0.0003
      6  C24       29.6440  -12.7080   35.0420 C.ar  513  0LJ513     -0.0028
      7  C01       27.1090  -15.3940   43.4550 C.ar  513  0LJ513      0.0150
      8  C02       25.7620  -15.0520   43.4290 C.ar  513  0LJ513      0.0851
      9  C03       25.1160  -14.8560   42.2230 C.ar  513  0LJ513      0.1519
     10  C04       25.8060  -15.0020   41.0380 C.ar  513  0LJ513      0.0471
     11  C05       27.1550  -15.3540   41.0550 C.ar  513  0LJ513      0.0761
     12  C06       27.7970  -15.5390   42.2690 C.ar  513  0LJ513      0.0176
     13 CL7        24.8930  -14.8660   44.8920 Cl    513  0LJ513     -0.0799
     14  F08       23.8280  -14.5290   42.2120 F     513  0LJ513     -0.2032
     15  N09       27.9410  -15.5030   39.8420 N.am  513  0LJ513     -0.1714
     16  O11       26.3910  -14.7820   38.2440 O.2   513  0LJ513     -0.2629
     17  C12       28.5080  -15.3980   37.3610 C.2   513  0LJ513      0.3208
     18  N13       28.1150  -15.1110   36.0140 N.am  513  0LJ513     -0.1914
     19  O14       29.6520  -15.8170   37.6050 O.2   513  0LJ513     -0.2633
     20  C16       28.3820  -15.9970   33.8470 C.3   513  0LJ513      0.2092
     21  C18       29.3550  -14.0420   33.0310 C.ar  513  0LJ513     -0.0209
     22  C19       29.3600  -13.9420   34.4150 C.ar  513  0LJ513     -0.0030
     23  N20       28.6540  -17.3930   33.9520 N.pl3 513  0LJ513     -0.0877
     24  C23       29.9250  -11.5850   34.2630 C.ar  513  0LJ513     -0.0003
     25  C25       27.7420  -18.3370   33.4100 C.cat 513  0LJ513      0.5345
     26  N26       26.6540  -17.9200   32.8100 N.pl3 513  0LJ513      0.1354
     27  N27       27.9910  -19.6150   33.5090 N.pl3 513  0LJ513      0.1354
@<TRIPOS>UNITY_ATOM_ATTR
27 1
charge 1
@<TRIPOS>BOND
     1     4     5   ar
     2     4    21   ar
     3     3    21    1
     4     3    20    1
     5    26    25    1
     6     5    24   ar
     7    21    22   ar
     8    25    27    1
     9    25    23    2
    10    20    23    1
    11    20     2    1
    12    24     6   ar
    13    22     2    1
    14    22     6   ar
    15     2    18    1
    16    18    17   am
    17    17    19    2
    18    17     1    1
    19    16     1    2
    20     1    15   am
    21    15    11    1
    22    10    11   ar
    23    10     9   ar
    24    11    12   ar
    25    14     9    1
    26     9     8   ar
    27    12     7   ar
    28     8     7   ar
    29     8    13    1
