@<TRIPOS>MOLECULE
4dkt_III_B_1.pdb
 20 19 0 0 0
SMALL
GASTEIGER

@<TRIPOS>ATOM
      1  N        -25.4890   17.8900  -24.4720 N.3     3  ASP3       -0.1225
      2  CA       -25.8420   18.2610  -23.1150 C.3     3  ASP3        0.1805
      3  C        -25.2240   17.3340  -22.1110 C.2     3  ASP3        0.2598
      4  O        -24.8870   17.7470  -21.0130 O.2     3  ASP3       -0.2718
      5  CB       -27.3570   18.2520  -22.9490 C.3     3  ASP3        0.1424
      6  CG       -27.7620   19.3150  -21.9560 C.2     3  ASP3        0.3668
      7  OD1      -27.0800   20.3610  -21.8910 O.co2   3  ASP3       -0.2456
      8  OD2      -28.7630   19.1090  -21.2370 O.co2   3  ASP3       -0.2456
      9  N10      -25.0710   16.0680  -22.4860 N.am    4  ARG4       -0.1965
     10  C11      -24.4610   15.0860  -21.6110 C.3     4  ARG4        0.1745
     11  C12      -22.9960   15.3480  -21.4240 C.2     4  ARG4        0.2806
     12  O14      -22.5300   15.3950  -20.2970 O.2     4  ARG4       -0.2698
     13  C15      -24.6580   13.6860  -22.1790 C.3     4  ARG4        0.0356
     14  C16      -23.8000   12.6690  -21.4370 C.3     4  ARG4        0.0576
     15  C17      -24.6560   11.5420  -20.8710 C.3     4  ARG4        0.2511
     16  N18      -23.8590   10.3880  -20.5020 N.pl3   4  ARG4       -0.0316
     17  C19      -24.1640    9.1670  -20.9320 C.2     4  ARG4        0.3901
     18  C20      -25.3940    8.9810  -21.7690 C.3     4  ARG4        0.1388
     19  N21      -23.4550    8.1610  -20.6610 N.2     4  ARG4        0.1917
     20  N        -22.1750   15.5370  -22.5670 N.am    5  NH25       -0.0863
@<TRIPOS>BOND
     1     1     2    1
     2     2     5    1
     3     2     3    1
     4     5     6    1
     5    20    11   am
     6     9     3   am
     7     9    10    1
     8    13    10    1
     9    13    14    1
    10     3     4    2
    11     6     7   ar
    12     6     8   ar
    13    18    17    1
    14    10    11    1
    15    14    15    1
    16    11    12    2
    17    17    19    2
    18    17    16    1
    19    15    16    1
