@<TRIPOS>MOLECULE
4dkx_GDP_A_1.pdb
 28 30 0 0 0
SMALL
GASTEIGER

@<TRIPOS>ATOM
      1  PB         0.9620   14.9930   13.8840 P.3   301  GDP301      0.8585
      2  O1B       -0.0070   14.5060   14.7820 O.3   301  GDP301     -0.0578
      3  O2B        1.6870   16.1280   14.2340 O.3   301  GDP301      0.3985
      4  O3B        0.4950   15.0060   12.5530 O.2   301  GDP301     -0.1694
      5  O3A        2.0580   13.8640   13.7180 O.3   301  GDP301     -0.1754
      6  PA         3.4440   13.7220   14.4560 P.3   301  GDP301      0.2288
      7  O1A        4.4800   14.4790   13.8920 O.2   301  GDP301     -0.5168
      8  O2A        3.2990   13.8870   15.8360 O.3   301  GDP301     -0.4369
      9  O5'        3.7980   12.2150   14.1750 O.3   301  GDP301     -0.3110
     10  C5'        3.0000   11.1950   14.6870 C.3   301  GDP301      0.1813
     11  C4'        3.7350    9.8710   14.8720 C.3   301  GDP301      0.1799
     12  O4'        4.2000    9.3810   13.6620 O.3   301  GDP301     -0.3326
     13  C3'        4.9480   10.0400   15.7620 C.3   301  GDP301      0.2158
     14  O3'        5.1000    8.8740   16.5160 O.3   301  GDP301     -0.2175
     15  C2'        6.0760   10.1650   14.7850 C.3   301  GDP301      0.2310
     16  O2'        7.2970    9.6890   15.2850 O.3   301  GDP301     -0.2158
     17  C1'        5.5890    9.3120   13.6350 C.3   301  GDP301      0.2293
     18  N9         6.0950    9.7420   12.3220 N.pl3 301  GDP301     -0.2354
     19  C8         6.0170   10.9530   11.8020 C.3   301  GDP301      0.2246
     20  N7         6.5670   10.9930   10.5920 N.2   301  GDP301     -0.2322
     21  C5         7.0070    9.7890   10.3140 C.2   301  GDP301      0.2182
     22  C6         7.7260    9.1510    9.1980 C.1   301  GDP301      0.2372
     23  O6         8.0130    9.7610    8.1910 O.2   301  GDP301     -0.2069
     24  N1         7.9910    7.8630    9.3170 N.2   301  GDP301     -0.2485
     25  C2         7.6890    7.1530   10.3940 C.1   301  GDP301      0.2531
     26  N2         7.9970    5.8650   10.4320 N.pl3 301  GDP301     -0.0226
     27  N3         7.0590    7.6770   11.4370 N.2   301  GDP301     -0.3074
     28  C4         6.7050    8.9630   11.4720 C.2   301  GDP301      0.2300
@<TRIPOS>UNITY_ATOM_ATTR
3 1
charge 1
7 1
charge 1
@<TRIPOS>BOND
     1    23    22    2
     2    22    24    2
     3    22    21    1
     4    24    25    2
     5    21    20    2
     6    21    28    1
     7    25    26    1
     8    25    27    2
     9    20    19    1
    10    27    28    2
    11    28    18    1
    12    19    18    1
    13    18    17    1
    14     4     1    2
    15    17    12    1
    16    17    15    1
    17    12    11    1
    18     5     1    1
    19     5     6    1
    20     1     3    1
    21     1     2    1
    22     7     6    2
    23     9     6    1
    24     9    10    1
    25     6     8    1
    26    10    11    1
    27    15    16    1
    28    15    13    1
    29    11    13    1
    30    13    14    1
