@<TRIPOS>MOLECULE
4dl1_0KY_A_1.pdb
 17 18 0 0 0
SMALL
GASTEIGER

@<TRIPOS>ATOM
      1  S          2.2620   -9.0680   45.4920 S.2   1602  0KY1602     0.0668
      2  C9         1.0680  -10.2950   45.3330 C.1   1602  0KY1602     0.2005
      3  N2         0.7050  -10.5940   44.0580 N.2   1602  0KY1602    -0.2516
      4  N1         0.4660  -10.9110   46.4810 N.am  1602  0KY1602    -0.1053
      5  C5         0.8980  -10.6010   47.8480 C.3   1602  0KY1602     0.2479
      6  C3        -0.2960  -10.1960   48.7050 C.3   1602  0KY1602     0.1630
      7  O1        -0.8520  -11.3680   49.3350 O.3   1602  0KY1602    -0.3520
      8  C2        -1.2050  -11.1960   50.7170 C.3   1602  0KY1602     0.1423
      9  C1        -1.7370  -12.4880   51.3120 C.3   1602  0KY1602     0.0346
     10  C4        -1.3250   -9.4830   47.8300 C.3   1602  0KY1602     0.0365
     11  C6        -0.4590  -11.8500   46.2580 C.2   1602  0KY1602     0.3641
     12  N4        -1.1280  -12.6240   47.1340 N.2   1602  0KY1602    -0.0332
     13  C10       -1.9640  -13.4170   46.4040 C.3   1602  0KY1602     0.3928
     14  N3        -1.8280  -13.1680   45.0660 N.2   1602  0KY1602    -0.1992
     15  C7        -0.8900  -12.2170   44.8980 C.2   1602  0KY1602     0.2585
     16  C8        -0.2580  -11.4940   43.7620 C.1   1602  0KY1602     0.2408
     17  O2        -0.6110  -11.7230   42.4660 O.2   1602  0KY1602    -0.2068
@<TRIPOS>BOND
     1    17    16    2
     2    16     3    2
     3    16    15    1
     4     3     2    2
     5    15    14    2
     6    15    11    1
     7    14    13    1
     8     2     1    2
     9     2     4    1
    10    11     4    1
    11    11    12    2
    12    13    12    1
    13     4     5    1
    14    10     6    1
    15     5     6    1
    16     6     7    1
    17     7     8    1
    18     8     9    1
