@<TRIPOS>MOLECULE
4dl1_FUC_D_1.pdb
 10 10 0 0 0
SMALL
GASTEIGER

@<TRIPOS>ATOM
      1  C1        32.6130  -26.7970   48.2800 C.3   606  FUC606      0.1776
      2  C2        33.2930  -27.4680   47.1020 C.3   606  FUC606      0.2141
      3  C3        34.7960  -27.4490   47.3620 C.3   606  FUC606      0.2172
      4  C4        35.1250  -28.0170   48.7400 C.3   606  FUC606      0.2116
      5  C5        34.2060  -27.4810   49.8330 C.3   606  FUC606      0.1483
      6  C6        34.3950  -28.3770   51.0530 C.3   606  FUC606      0.0349
      7  O2        33.0910  -26.7400   45.9020 O.3   606  FUC606     -0.2176
      8  O3        35.4840  -28.1660   46.3440 O.3   606  FUC606     -0.2175
      9  O4        34.9410  -29.4120   48.7040 O.3   606  FUC606     -0.2177
     10  O5        32.8510  -27.5640   49.4280 O.3   606  FUC606     -0.3508
@<TRIPOS>BOND
     1     7     2    1
     2     8     3    1
     3     2     3    1
     4     2     1    1
     5     3     4    1
     6     1    10    1
     7     9     4    1
     8     4     5    1
     9    10     5    1
    10     5     6    1
