@<TRIPOS>MOLECULE
4dl1_BMA_K_1.pdb
 11 11 0 0 0
SMALL
GASTEIGER

@<TRIPOS>ATOM
      1  C1         1.8310   34.9390   -5.3400 C.3   603  BMA603      0.1777
      2  C2         3.2180   34.4010   -5.0660 C.3   603  BMA603      0.2141
      3  C3         4.2510   34.9380   -6.0650 C.3   603  BMA603      0.2173
      4  C4         3.7610   34.7790   -7.5100 C.3   603  BMA603      0.2142
      5  C5         2.3320   35.2920   -7.6200 C.3   603  BMA603      0.1810
      6  C6         1.7480   35.1580   -9.0310 C.3   603  BMA603      0.2141
      7  O2         3.1270   32.9750   -5.2010 O.3   603  BMA603     -0.2176
      8  O3         5.4410   34.1780   -5.8630 O.3   603  BMA603     -0.2175
      9  O4         4.5800   35.4800   -8.4740 O.3   603  BMA603     -0.2176
     10  O5         1.5260   34.5960   -6.6910 O.3   603  BMA603     -0.3481
     11  O6         1.8240   33.8200   -9.5520 O.3   603  BMA603     -0.2176
@<TRIPOS>BOND
     1    11     6    1
     2     6     5    1
     3     9     4    1
     4     5     4    1
     5     5    10    1
     6     4     3    1
     7    10     1    1
     8     3     8    1
     9     3     2    1
    10     1     2    1
    11     7     2    1
