@<TRIPOS>MOLECULE
4dl1_HEM_B_1.pdb
 43 50 0 0 0
SMALL
GASTEIGER

@<TRIPOS>ATOM
      1  CHA       25.1310  -46.8060   65.2510 C.2   202  HEM202      0.0000
      2  CHB       26.6090  -50.1520   68.3600 C.2   202  HEM202      0.0000
      3  CHC       31.2520  -49.4630   67.0710 C.2   202  HEM202      0.0000
      4  CHD       29.8140  -45.9660   64.1040 C.2   202  HEM202      0.0000
      5  C1A       25.0750  -47.8420   66.1320 C.2   202  HEM202      0.0000
      6  C2A       23.8910  -48.4060   66.7610 C.2   202  HEM202      0.0000
      7  C3A       24.3270  -49.3310   67.6330 C.2   202  HEM202      0.0000
      8  C4A       25.7810  -49.3510   67.5900 C.2   202  HEM202      0.0000
      9  CMA       23.4610  -50.2180   68.5430 C.3   202  HEM202      0.0000
     10  CAA       22.4200  -48.0150   66.4390 C.3   202  HEM202      0.0000
     11  CBA       21.6500  -49.2150   65.9380 C.3   202  HEM202      0.0000
     12  CGA       20.4860  -48.8130   65.0780 C.2   202  HEM202      0.0000
     13  O1A       19.3550  -49.1100   65.4990 O.co2 202  HEM202      0.0000
     14  O2A       20.6740  -48.3060   63.9320 O.co2 202  HEM202      0.0000
     15  C1B       27.9880  -50.1170   68.3730 C.ar  202  HEM202      0.0000
     16  C2B       28.8170  -50.7710   69.3490 C.ar  202  HEM202      0.0000
     17  C3B       30.1040  -50.5920   69.0180 C.ar  202  HEM202      0.0000
     18  C4B       30.1230  -49.8400   67.7760 C.ar  202  HEM202      0.0000
     19  CMB       28.2390  -51.5280   70.5610 C.3   202  HEM202      0.0000
     20  CAB       31.3880  -51.1390   69.7040 C.2   202  HEM202      0.0000
     21  CBB       31.6520  -51.0870   71.0260 C.2   202  HEM202      0.0000
     22  C1C       31.3150  -48.4200   66.1830 C.2   202  HEM202      0.0000
     23  C2C       32.4800  -47.9490   65.4450 C.2   202  HEM202      0.0000
     24  C3C       32.0620  -46.9840   64.6160 C.2   202  HEM202      0.0000
     25  C4C       30.6290  -46.8650   64.7610 C.2   202  HEM202      0.0000
     26  CMC       33.9410  -48.4340   65.6970 C.3   202  HEM202      0.0000
     27  CAC       32.8880  -46.0540   63.6880 C.2   202  HEM202      0.0000
     28  CBC       34.1730  -46.2980   63.4130 C.2   202  HEM202      0.0000
     29  C1D       28.4690  -45.7750   64.2880 C.ar  202  HEM202      0.0000
     30  C2D       27.7420  -44.5630   63.9330 C.ar  202  HEM202      0.0000
     31  C3D       26.3040  -44.8160   64.3210 C.ar  202  HEM202      0.0000
     32  C4D       26.2870  -46.1560   64.8630 C.ar  202  HEM202      0.0000
     33  CMD       28.2530  -43.2780   63.2440 C.3   202  HEM202      0.0000
     34  CAD       25.1100  -43.8370   64.1490 C.3   202  HEM202      0.0000
     35  CBD       24.9350  -43.0120   65.4370 C.3   202  HEM202      0.0000
     36  CGD       23.7790  -42.0510   65.3280 C.2   202  HEM202      0.0000
     37  O1D       23.8740  -41.1030   64.4990 O.co2 202  HEM202      0.0000
     38  O2D       22.8130  -42.1640   66.1460 O.co2 202  HEM202      0.0000
     39  NA        26.1850  -48.5480   66.5430 N.2   202  HEM202      0.0000
     40  NB        28.8070  -49.6240   67.3790 N.ar  202  HEM202      0.0000
     41  NC        30.1940  -47.8110   65.6580 N.2   202  HEM202      0.0000
     42  ND        27.5730  -46.7130   64.7860 N.ar  202  HEM202      0.0000
     43 FE         28.1900  -48.2100   66.0270 Fe    202  HEM202      0.0000
@<TRIPOS>BOND
     1    33    30    1
     2    28    27    2
     3    27    24    1
     4    14    12   ar
     5    30    29   ar
     6    30    31   ar
     7     4    29    2
     8     4    25    1
     9    34    31    1
    10    34    35    1
    11    29    42   ar
    12    31    32   ar
    13    37    36   ar
    14    24    25    1
    15    24    23    2
    16    25    41    2
    17    42    32   ar
    18    42    43    1
    19    32     1    2
    20    12    13   ar
    21    12    11    1
    22     1     5    1
    23    36    35    1
    24    36    38   ar
    25    23    26    1
    26    23    22    1
    27    41    43    1
    28    41    22    1
    29    11    10    1
    30    43    39    1
    31    43    40    1
    32     5    39    2
    33     5     6    1
    34    22     3    2
    35    10     6    1
    36    39     8    1
    37     6     7    2
    38     3    18    1
    39    40    18   ar
    40    40    15   ar
    41     8     7    1
    42     8     2    2
    43     7     9    1
    44    18    17   ar
    45     2    15    1
    46    15    16   ar
    47    17    16   ar
    48    17    20    1
    49    16    19    1
    50    20    21    2
