@<TRIPOS>MOLECULE
4dl1_MAN_C_1.pdb
 11 11 0 0 0
SMALL
GASTEIGER

@<TRIPOS>ATOM
      1  C1        29.6080  -33.3310   45.5900 C.3   606  MAN606      0.1777
      2  C2        30.3120  -32.0530   45.1610 C.3   606  MAN606      0.2141
      3  C3        30.8810  -31.3560   46.4030 C.3   606  MAN606      0.2173
      4  C4        29.7680  -31.1540   47.4240 C.3   606  MAN606      0.2142
      5  C5        29.1750  -32.5210   47.7360 C.3   606  MAN606      0.1810
      6  C6        28.1310  -32.4770   48.8490 C.3   606  MAN606      0.2141
      7  O2        29.3950  -31.2220   44.4870 O.3   606  MAN606     -0.2176
      8  O3        31.4100  -30.1060   46.0430 O.3   606  MAN606     -0.2175
      9  O4        30.2410  -30.5620   48.6130 O.3   606  MAN606     -0.2176
     10  O5        28.6160  -32.9900   46.5370 O.3   606  MAN606     -0.3481
     11  O6        27.0140  -31.7080   48.4810 O.3   606  MAN606     -0.2176
@<TRIPOS>BOND
     1     7     2    1
     2     2     1    1
     3     2     3    1
     4     1    10    1
     5     8     3    1
     6     3     4    1
     7    10     5    1
     8     4     5    1
     9     4     9    1
    10     5     6    1
    11    11     6    1
