@<TRIPOS>MOLECULE
4dl3_0KX_P_1.pdb
 28 29 0 0 0
SMALL
GASTEIGER

@<TRIPOS>ATOM
      1  PG        54.8140    2.4490    7.0410 P.3    10  0KX10       0.5397
      2  O1G       54.5860    1.4930    8.1550 O.3    10  0KX10      -0.1143
      3  O2G       54.7180    1.7650    5.7540 O.2    10  0KX10      -0.2220
      4  O3G       56.1330    2.9960    7.1700 O.3    10  0KX10      -0.1143
      5  PB        52.6390    3.9140    6.1230 P.3    10  0KX10       0.4700
      6  O1B       51.9910    5.1890    6.5650 O.3    10  0KX10      -0.1252
      7  O2B       53.1420    4.0850    4.7800 O.2    10  0KX10      -0.2350
      8  O3B       53.7920    3.6220    7.1410 O.3    10  0KX10      -0.1901
      9  PA        51.1660    1.8510    4.8180 P.3    10  0KX10       0.4623
     10  O1A       52.5330    1.6470    3.9570 O.2    10  0KX10      -0.2354
     11  O2A       50.5790    0.4550    5.1860 O.3    10  0KX10      -0.1255
     12  N3A       51.5510    2.6560    6.2430 N.3    10  0KX10      -0.0179
     13  O5'       50.1620    2.6970    3.9530 O.3    10  0KX10      -0.2775
     14  C5'       50.5860    3.7630    3.1610 C.3    10  0KX10       0.1848
     15  C4'       49.7120    4.8970    3.1360 C.3    10  0KX10       0.1774
     16  O4'       48.3900    4.4800    2.7070 O.3    10  0KX10      -0.3339
     17  C3'       49.5560    5.4180    4.4990 C.3    10  0KX10       0.1857
     18  O3'       50.3930    6.4320    4.6770 O.3    10  0KX10      -0.2203
     19  C2'       48.1720    5.9050    4.5300 C.3    10  0KX10       0.0874
     20  C1'       47.4410    5.0300    3.5850 C.3    10  0KX10       0.2090
     21  N1        46.6290    4.1110    4.3410 N.am   10  0KX10      -0.1802
     22  C2        45.3420    4.4020    4.5770 C.1    10  0KX10       0.2756
     23  N3        44.5540    3.5750    5.2530 N.2    10  0KX10      -0.3024
     24  C4        45.0270    2.4310    5.7720 C.2    10  0KX10       0.2346
     25  C5        46.3580    2.1120    5.5500 C.2    10  0KX10       0.0687
     26  C6        47.1610    2.9790    4.8140 C.2    10  0KX10       0.0835
     27  O2        44.8890    5.3660    4.1320 O.2    10  0KX10      -0.1925
     28  N4        44.2130    1.5990    6.5070 N.pl3  10  0KX10      -0.0921
@<TRIPOS>BOND
     1    16    15    1
     2    16    20    1
     3    15    14    1
     4    15    17    1
     5    14    13    1
     6    20    21    1
     7    20    19    1
     8    13     9    1
     9    10     9    2
    10    27    22    2
    11    21    22   am
    12    21    26    1
    13    17    19    1
    14    17    18    1
    15    22    23    2
    16     7     5    2
    17    26    25    2
    18     9    11    1
    19     9    12    1
    20    23    24    2
    21    25    24    1
    22     3     1    2
    23    24    28    1
    24     5    12    1
    25     5     6    1
    26     5     8    1
    27     1     8    1
    28     1     4    1
    29     1     2    1
