@<TRIPOS>MOLECULE
4dl4_0KX_P_1.pdb
 28 29 0 0 0
SMALL
GASTEIGER

@<TRIPOS>ATOM
      1  PG        55.8400    2.6740    6.7710 P.3    10  0KX10       0.5397
      2  O1G       55.5100    1.6520    7.8140 O.3    10  0KX10      -0.1143
      3  O2G       55.7920    1.9770    5.4740 O.2    10  0KX10      -0.2220
      4  O3G       57.1660    3.2430    6.9870 O.3    10  0KX10      -0.1143
      5  PB        53.6550    4.1220    5.7790 P.3    10  0KX10       0.4700
      6  O1B       52.9920    5.4260    6.1850 O.3    10  0KX10      -0.1252
      7  O2B       54.1960    4.3490    4.4510 O.2    10  0KX10      -0.2350
      8  O3B       54.7850    3.8370    6.8470 O.3    10  0KX10      -0.1901
      9  PA        52.0970    2.0430    4.4300 P.3    10  0KX10       0.4623
     10  O1A       53.4200    1.7440    3.5510 O.2    10  0KX10      -0.2354
     11  O2A       51.4970    0.6470    4.7960 O.3    10  0KX10      -0.1255
     12  N3A       52.5490    2.8520    5.8560 N.3    10  0KX10      -0.0179
     13  O5'       51.1250    2.9130    3.5020 O.3    10  0KX10      -0.2775
     14  C5'       51.5750    4.0090    2.7410 C.3    10  0KX10       0.1848
     15  C4'       50.6740    5.1300    2.7120 C.3    10  0KX10       0.1774
     16  O4'       49.3550    4.6490    2.3360 O.3    10  0KX10      -0.3339
     17  C3'       50.5150    5.6280    4.0860 C.3    10  0KX10       0.1857
     18  O3'       51.4160    6.5850    4.3720 O.3    10  0KX10      -0.2203
     19  C2'       49.1230    6.1130    4.1460 C.3    10  0KX10       0.0874
     20  C1'       48.3890    5.2550    3.1700 C.3    10  0KX10       0.2090
     21  N1        47.5460    4.3200    3.8890 N.am   10  0KX10      -0.1802
     22  C2        46.2400    4.5880    4.1090 C.1    10  0KX10       0.2756
     23  N3        45.4560    3.7200    4.7550 N.2    10  0KX10      -0.3024
     24  C4        45.9310    2.5440    5.2160 C.2    10  0KX10       0.2346
     25  C5        47.2730    2.2470    5.0010 C.2    10  0KX10       0.0687
     26  C6        48.0780    3.1610    4.3180 C.2    10  0KX10       0.0835
     27  O2        45.7760    5.5920    3.7370 O.2    10  0KX10      -0.1925
     28  N4        45.1060    1.6580    5.8930 N.pl3  10  0KX10      -0.0921
@<TRIPOS>BOND
     1    16    15    1
     2    16    20    1
     3    15    14    1
     4    15    17    1
     5    14    13    1
     6    20    21    1
     7    20    19    1
     8    13     9    1
     9    10     9    2
    10    27    22    2
    11    21    22   am
    12    21    26    1
    13    17    19    1
    14    17    18    1
    15    22    23    2
    16    26    25    2
    17     9    11    1
    18     9    12    1
    19     7     5    2
    20    23    24    2
    21    25    24    1
    22    24    28    1
    23     3     1    2
    24     5    12    1
    25     5     6    1
    26     5     8    1
    27     1     8    1
    28     1     4    1
    29     1     2    1
