@<TRIPOS>MOLECULE
4dl5_0KX_A_1.pdb
 28 29 0 0 0
SMALL
GASTEIGER

@<TRIPOS>ATOM
      1  PG        55.8360    2.7220    6.7990 P.3   503  0KX503      0.5397
      2  O1G       57.1390    3.2680    7.0320 O.3   503  0KX503     -0.1143
      3  O2G       55.6610    2.0590    5.5710 O.2   503  0KX503     -0.2220
      4  O3G       55.5300    1.8450    7.8480 O.3   503  0KX503     -0.1143
      5  PB        53.7410    4.2430    5.7770 P.3   503  0KX503      0.4700
      6  O1B       53.1460    5.3120    6.1510 O.3   503  0KX503     -0.1252
      7  O2B       54.2840    4.4390    4.5040 O.2   503  0KX503     -0.2350
      8  O3B       54.8260    3.8990    6.9120 O.3   503  0KX503     -0.1901
      9  PA        52.1920    2.1070    4.3890 P.3   503  0KX503      0.4623
     10  O1A       53.2530    1.8530    3.6140 O.2   503  0KX503     -0.2354
     11  O2A       51.4200    1.0040    4.9190 O.3   503  0KX503     -0.1255
     12  N3A       52.6340    3.0230    5.6150 N.3   503  0KX503     -0.0179
     13  O5'       51.2000    2.9340    3.5880 O.3   503  0KX503     -0.2775
     14  C5'       51.5540    4.1280    2.8280 C.3   503  0KX503      0.1848
     15  C4'       50.5190    5.2870    2.7980 C.3   503  0KX503      0.1774
     16  O4'       49.2190    4.9400    2.4050 O.3   503  0KX503     -0.3339
     17  C3'       50.5250    6.0040    4.1670 C.3   503  0KX503      0.1857
     18  O3'       51.5300    6.8780    4.4230 O.3   503  0KX503     -0.2203
     19  C2'       49.0630    6.4340    4.1710 C.3   503  0KX503      0.0874
     20  C1'       48.2880    5.4820    3.2140 C.3   503  0KX503      0.2090
     21  N1        47.5450    4.3070    3.9990 N.am  503  0KX503     -0.1802
     22  C2        46.2620    4.6490    4.2280 C.1   503  0KX503      0.2756
     23  N3        45.4570    3.8680    4.9560 N.2   503  0KX503     -0.3024
     24  C4        45.9090    2.7130    5.4890 C.2   503  0KX503      0.2346
     25  C5        47.2330    2.3480    5.2670 C.2   503  0KX503      0.0687
     26  C6        48.0550    3.1710    4.5050 C.2   503  0KX503      0.0835
     27  O2        45.8460    5.6330    3.7760 O.2   503  0KX503     -0.1925
     28  N4        45.0710    1.9130    6.2480 N.pl3 503  0KX503     -0.0921
@<TRIPOS>BOND
     1    16    15    1
     2    16    20    1
     3    15    14    1
     4    15    17    1
     5    14    13    1
     6    20    21    1
     7    20    19    1
     8    13     9    1
     9    10     9    2
    10    27    22    2
    11    21    22   am
    12    21    26    1
    13    17    19    1
    14    17    18    1
    15    22    23    2
    16     9    11    1
    17     9    12    1
    18     7     5    2
    19    26    25    2
    20    23    24    2
    21    25    24    1
    22    24    28    1
    23     3     1    2
    24    12     5    1
    25     5     6    1
    26     5     8    1
    27     1     8    1
    28     1     2    1
    29     1     4    1
