@<TRIPOS>MOLECULE
4dl6_XG4_A_1.pdb
 31 33 0 0 0
SMALL
GASTEIGER

@<TRIPOS>ATOM
      1  N1        43.2420    4.5760    4.7540 N.2   503  XG4503     -0.2485
      2  C2        43.7010    5.5950    3.9060 C.1   503  XG4503      0.2531
      3  N2        42.7390    6.5120    3.5420 N.pl3 503  XG4503     -0.0226
      4  N3        44.9830    5.7790    3.3990 N.2   503  XG4503     -0.3074
      5  C4        45.8670    4.8190    3.8200 C.2   503  XG4503      0.2299
      6  C5        45.5070    3.7400    4.6800 C.2   503  XG4503      0.2182
      7  C6        44.1750    3.6650    5.1220 C.1   503  XG4503      0.2372
      8  O6        43.8170    2.6550    5.9330 O.2   503  XG4503     -0.2069
      9  N7        46.6130    2.9200    4.9350 N.2   503  XG4503     -0.2322
     10  C8        47.6150    3.4770    4.2520 C.3   503  XG4503      0.2245
     11  N9        47.2400    4.6460    3.5300 N.pl3 503  XG4503     -0.2374
     12  PA        51.7950    2.1330    3.9810 P.3   503  XG4503      0.4623
     13  PB        53.3580    4.3200    5.2600 P.3   503  XG4503      0.4700
     14  PG        55.4980    2.6660    6.3420 P.3   503  XG4503      0.5397
     15  C1'       48.0920    5.5340    2.6690 C.3   503  XG4503      0.1981
     16  O1A       53.0640    1.7890    3.1110 O.2   503  XG4503     -0.2354
     17  O1B       54.1530    4.4310    3.9010 O.2   503  XG4503     -0.2350
     18  O1G       55.4210    2.0300    4.9150 O.2   503  XG4503     -0.2220
     19  C2'       48.7830    6.6530    3.4810 C.3   503  XG4503      0.0865
     20  O2A       51.0290    0.9120    4.2800 O.3   503  XG4503     -0.1255
     21  O2B       52.5750    5.5190    5.7110 O.3   503  XG4503     -0.1252
     22  O2G       56.9800    3.2120    6.3930 O.3   503  XG4503     -0.1143
     23  C3'       50.2030    6.0880    3.6660 C.3   503  XG4503      0.1857
     24  O3'       51.1720    7.0400    3.9600 O.3   503  XG4503     -0.2203
     25  N3A       52.2830    3.0630    5.2690 N.3   503  XG4503     -0.0179
     26  O3B       54.4700    3.8600    6.2870 O.3   503  XG4503     -0.1901
     27  O3G       55.0460    1.8670    7.4910 O.3   503  XG4503     -0.1143
     28  C4'       50.4130    5.3330    2.3480 C.3   503  XG4503      0.1774
     29  O4'       49.1270    4.8410    1.9940 O.3   503  XG4503     -0.3347
     30  C5'       51.4480    4.1790    2.2540 C.3   503  XG4503      0.1848
     31  O5'       50.9330    3.0190    2.8480 O.3   503  XG4503     -0.2775
@<TRIPOS>BOND
     1    29    28    1
     2    29    15    1
     3    30    28    1
     4    30    31    1
     5    28    23    1
     6    15    19    1
     7    15    11    1
     8    31    12    1
     9    16    12    2
    10     4     5    2
    11     4     2    2
    12    19    23    1
    13    11     5    1
    14    11    10    1
    15     3     2    1
    16    23    24    1
    17     5     6    1
    18    17    13    2
    19     2     1    2
    20    12    20    1
    21    12    25    1
    22    10     9    1
    23     6     9    2
    24     6     7    1
    25     1     7    2
    26    18    14    2
    27     7     8    2
    28    13    25    1
    29    13    21    1
    30    13    26    1
    31    26    14    1
    32    14    22    1
    33    14    27    1
