@<TRIPOS>MOLECULE
4dl7_DZ4_A_1.pdb
 11 12 0 0 0
SMALL
GASTEIGER

@<TRIPOS>ATOM
      1  N1        47.0100  -15.8420   -1.6370 N.2   502  DZ4502      0.0021
      2  C2        47.5280  -15.5670   -2.8370 C.3   502  DZ4502      0.5254
      3  N3        47.7740  -16.3950   -3.8690 N.2   502  DZ4502     -0.0055
      4  C4        47.3960  -17.6360   -3.5740 C.2   502  DZ4502      0.3502
      5  C5        46.8390  -18.0300   -2.3730 C.2   502  DZ4502      0.2525
      6  C6        46.6390  -17.0880   -1.3600 C.2   502  DZ4502      0.4393
      7  N6        46.1080  -17.4140   -0.1800 N.pl3 502  DZ4502      0.2180
      8  N7        46.5880  -19.3550   -2.3720 N.2   502  DZ4502     -0.2096
      9  C8        46.9560  -19.7480   -3.5410 C.3   502  DZ4502      0.3360
     10  N9        47.4590  -18.7900   -4.3360 N.pl3 502  DZ4502     -0.1635
     11  C1'       47.9620  -19.0400   -5.6760 C.3   502  DZ4502      0.2552
@<TRIPOS>BOND
     1    11    10    1
     2    10     4    1
     3    10     9    1
     4     3     4    2
     5     3     2    1
     6     4     5    1
     7     9     8    1
     8     2     1    1
     9     5     8    2
    10     5     6    1
    11     1     6    2
    12     6     7    1
