@<TRIPOS>MOLECULE
4dl9_NAD_A_1.pdb
 44 48 0 0 0
SMALL
GASTEIGER

@<TRIPOS>ATOM
      1  PA       -27.0430   31.8710  -38.9240 P.3   403  NAD403      0.2189
      2  O1A      -28.4670   32.2750  -39.0160 O.3   403  NAD403     -0.4371
      3  O2A      -26.1160   32.4480  -39.9950 O.2   403  NAD403     -0.5170
      4  O5B      -26.8670   30.3010  -38.9380 O.3   403  NAD403     -0.3112
      5  C5B      -27.7490   29.3710  -38.2770 C.3   403  NAD403      0.1813
      6  C4B      -27.8450   28.1690  -39.1840 C.3   403  NAD403      0.1821
      7  O4B      -28.5900   27.1180  -38.5220 O.3   403  NAD403     -0.3135
      8  C3B      -28.5280   28.4160  -40.5330 C.3   403  NAD403      0.2184
      9  O3B      -27.7060   27.9770  -41.6080 O.3   403  NAD403     -0.2174
     10  C2B      -29.8140   27.5830  -40.4460 C.3   403  NAD403      0.2570
     11  O2B      -30.1760   27.0250  -41.7060 O.3   403  NAD403     -0.2130
     12  C1B      -29.3740   26.4700  -39.4930 C.3   403  NAD403      0.3186
     13  N9A      -30.4550   25.7590  -38.8200 N.pl3 403  NAD403     -0.1439
     14  C8A      -31.6140   26.2860  -38.3090 C.3   403  NAD403      0.3377
     15  N7A      -32.4090   25.3990  -37.7670 N.2   403  NAD403     -0.2095
     16  C5A      -31.7240   24.2030  -37.9190 C.2   403  NAD403      0.2526
     17  C6A      -31.9860   22.8950  -37.4640 C.2   403  NAD403      0.4393
     18  N6A      -33.1250   22.5340  -36.8650 N.pl3 403  NAD403      0.2180
     19  N1A      -31.0410   21.9540  -37.6740 N.2   403  NAD403      0.0021
     20  C2A      -29.9220   22.2950  -38.3290 C.3   403  NAD403      0.5254
     21  N3A      -29.5800   23.4870  -38.8340 N.2   403  NAD403     -0.0055
     22  C4A      -30.5200   24.4100  -38.5720 C.2   403  NAD403      0.3518
     23  O3       -26.5190   32.2900  -37.4660 O.3   403  NAD403     -0.2703
     24  PN       -25.0550   32.6510  -36.9220 P.3   403  NAD403      0.2189
     25  O1N      -24.7890   34.1000  -37.0910 O.3   403  NAD403     -0.4371
     26  O2N      -24.0550   31.6980  -37.4590 O.2   403  NAD403     -0.5170
     27  O5D      -25.2420   32.4060  -35.3500 O.3   403  NAD403     -0.3112
     28  C5D      -25.5090   31.0590  -34.8770 C.3   403  NAD403      0.1813
     29  C4D      -25.7360   31.0680  -33.3890 C.3   403  NAD403      0.1799
     30  O4D      -24.5390   31.5020  -32.7100 O.3   403  NAD403     -0.3327
     31  C3D      -26.8530   31.9750  -32.8810 C.3   403  NAD403      0.2158
     32  O3D      -27.7300   31.2000  -32.0720 O.3   403  NAD403     -0.2175
     33  C2D      -26.0880   33.0020  -32.0440 C.3   403  NAD403      0.2309
     34  O2D      -26.7980   33.2900  -30.8530 O.3   403  NAD403     -0.2158
     35  C1D      -24.8880   32.1770  -31.5460 C.3   403  NAD403      0.2263
     36  N1N      -23.7360   33.0620  -31.0610 N.pl3 403  NAD403     -0.2787
     37  C2N      -23.2220   32.6980  -29.8070 C.3   403  NAD403      0.1244
     38  C3N      -22.2040   33.4330  -29.2260 C.2   403  NAD403      0.0544
     39  C7N      -21.5670   32.9920  -27.9260 C.2   403  NAD403      0.2818
     40  O7N      -20.7250   33.7260  -27.3800 O.2   403  NAD403     -0.2670
     41  N7N      -21.9650   31.8050  -27.3860 N.am  403  NAD403     -0.0839
     42  C4N      -21.7080   34.5420  -29.9120 C.2   403  NAD403      0.0033
     43  C5N      -22.2010   34.8650  -31.1680 C.2   403  NAD403      0.0157
     44  C6N      -23.2190   34.1120  -31.7270 C.2   403  NAD403      0.0633
@<TRIPOS>BOND
     1    11    10    1
     2     9     8    1
     3     8    10    1
     4     8     6    1
     5    10    12    1
     6     3     1    2
     7    12    13    1
     8    12     7    1
     9     6     7    1
    10     6     5    1
    11     2     1    1
    12     4     1    1
    13     4     5    1
    14     1    23    1
    15    21    22    2
    16    21    20    1
    17    13    22    1
    18    13    14    1
    19    22    16    1
    20    20    19    1
    21    14    15    1
    22    16    15    2
    23    16    17    1
    24    19    17    2
    25    23    24    1
    26    17    18    1
    27    26    24    2
    28    25    24    1
    29    24    27    1
    30    27    28    1
    31    28    29    1
    32    29    31    1
    33    29    30    1
    34    31    32    1
    35    31    33    1
    36    30    35    1
    37    33    35    1
    38    33    34    1
    39    44    43    2
    40    44    36    1
    41    35    36    1
    42    43    42    1
    43    36    37    1
    44    42    38    2
    45    37    38    1
    46    38    39    1
    47    39    41   am
    48    39    40    2
