@<TRIPOS>MOLECULE
4dlb_NAD_A_1.pdb
 44 48 0 0 0
SMALL
GASTEIGER

@<TRIPOS>ATOM
      1  PA       -28.5070   25.8370  -43.7000 P.3   403  NAD403      0.2189
      2  O1A      -28.5010   27.2670  -44.0920 O.3   403  NAD403     -0.4371
      3  O2A      -29.6380   25.0200  -44.3220 O.2   403  NAD403     -0.5170
      4  O5B      -28.6060   25.7240  -42.1230 O.3   403  NAD403     -0.3112
      5  C5B      -27.9260   26.6030  -41.2000 C.3   403  NAD403      0.1813
      6  C4B      -28.8150   26.7440  -39.9900 C.3   403  NAD403      0.1821
      7  O4B      -28.1110   27.4470  -38.9480 O.3   403  NAD403     -0.3135
      8  C3B      -30.1380   27.4850  -40.2060 C.3   403  NAD403      0.2184
      9  O3B      -31.2240   26.6280  -39.8920 O.3   403  NAD403     -0.2174
     10  C2B      -30.0450   28.6980  -39.2710 C.3   403  NAD403      0.2570
     11  O2B      -31.3020   29.0310  -38.6930 O.3   403  NAD403     -0.2130
     12  C1B      -29.0490   28.2070  -38.2290 C.3   403  NAD403      0.3186
     13  N9A      -28.3260   29.2390  -37.4920 N.pl3 403  NAD403     -0.1439
     14  C8A      -27.7350   30.3720  -37.9880 C.3   403  NAD403      0.3377
     15  N7A      -27.0990   31.0810  -37.0860 N.2   403  NAD403     -0.2095
     16  C5A      -27.2920   30.3690  -35.9110 C.2   403  NAD403      0.2526
     17  C6A      -26.8590   30.5860  -34.5850 C.2   403  NAD403      0.4393
     18  N6A      -26.2000   31.6760  -34.1880 N.pl3 403  NAD403      0.2180
     19  N1A      -27.1700   29.6480  -33.6610 N.2   403  NAD403      0.0021
     20  C2A      -27.8810   28.5800  -34.0410 C.3   403  NAD403      0.5254
     21  N3A      -28.3670   28.2820  -35.2510 N.2   403  NAD403     -0.0055
     22  C4A      -28.0370   29.2260  -36.1490 C.2   403  NAD403      0.3518
     23  O3       -27.1460   25.1240  -44.1570 O.3   403  NAD403     -0.2703
     24  PN       -26.6710   23.6440  -44.5600 P.3   403  NAD403      0.2189
     25  O1N      -26.9110   23.4280  -46.0060 O.2   403  NAD403     -0.5170
     26  O2N      -27.2090   22.6710  -43.5810 O.3   403  NAD403     -0.4371
     27  O5D      -25.0970   23.7650  -44.2940 O.3   403  NAD403     -0.3112
     28  C5D      -24.6050   24.3820  -43.0820 C.3   403  NAD403      0.1813
     29  C4D      -23.1150   24.5950  -43.1570 C.3   403  NAD403      0.1799
     30  O4D      -22.4590   23.3650  -43.5340 O.3   403  NAD403     -0.3327
     31  C3D      -22.6190   25.6360  -44.1580 C.3   403  NAD403      0.2158
     32  O3D      -21.6170   26.4670  -43.5760 O.3   403  NAD403     -0.2175
     33  C2D      -22.0170   24.7610  -45.2540 C.3   403  NAD403      0.2309
     34  O2D      -20.9260   25.4050  -45.8990 O.3   403  NAD403     -0.2158
     35  C1D      -21.3930   23.6620  -44.3630 C.3   403  NAD403      0.2263
     36  N1N      -20.9620   22.4270  -45.1600 N.pl3 403  NAD403     -0.2787
     37  C2N      -19.6780   21.9590  -44.8490 C.3   403  NAD403      0.1244
     38  C3N      -19.1760   20.8280  -45.4710 C.2   403  NAD403      0.0544
     39  C7N      -17.8920   20.1830  -44.9910 C.2   403  NAD403      0.2818
     40  O7N      -17.3480   19.3140  -45.6890 O.2   403  NAD403     -0.2670
     41  N7N      -17.3440   20.6330  -43.8380 N.am  403  NAD403     -0.0839
     42  C4N      -19.9690   20.1850  -46.4200 C.2   403  NAD403      0.0033
     43  C5N      -21.2530   20.6430  -46.6900 C.2   403  NAD403      0.0157
     44  C6N      -21.7290   21.7770  -46.0560 C.2   403  NAD403      0.0633
@<TRIPOS>BOND
     1    43    42    1
     2    43    44    2
     3    42    38    2
     4    44    36    1
     5    25    24    2
     6    34    33    1
     7    40    39    2
     8    38    39    1
     9    38    37    1
    10    33    35    1
    11    33    31    1
    12    36    37    1
    13    36    35    1
    14    39    41   am
    15    24    27    1
    16    24    23    1
    17    24    26    1
    18    35    30    1
    19     3     1    2
    20    27    28    1
    21    31    32    1
    22    31    29    1
    23    23     1    1
    24     2     1    1
    25     1     4    1
    26    30    29    1
    27    29    28    1
    28     4     5    1
    29     5     6    1
    30     8     6    1
    31     8     9    1
    32     8    10    1
    33     6     7    1
    34    10    11    1
    35    10    12    1
    36     7    12    1
    37    12    13    1
    38    14    13    1
    39    14    15    1
    40    13    22    1
    41    15    16    2
    42    22    16    1
    43    22    21    2
    44    16    17    1
    45    21    20    1
    46    17    18    1
    47    17    19    2
    48    20    19    1
