@<TRIPOS>MOLECULE
4dld_TZG_A_1.pdb
 21 21 0 0 0
SMALL
GASTEIGER

@<TRIPOS>ATOM
      1  N1         3.3020   35.1610  102.0110 N.pl3 301  TZG301      0.0585
      2  C4         0.3810   33.4090  103.2700 C.ar  301  TZG301      0.0086
      3  C5         1.7160   33.7160  103.0610 C.ar  301  TZG301      0.0797
      4  C6         2.0380   34.8030  102.2580 C.ar  301  TZG301      0.1530
      5  C7        -2.0590   33.7680  102.9980 C.3   301  TZG301      0.0566
      6  C8        -2.6130   34.6330  104.1570 C.3   301  TZG301      0.1986
      7  C10       -1.0050   37.6500  101.1960 C.3   301  TZG301      0.1187
      8  O4        -4.8960   34.6360  103.5290 O.co2 301  TZG301     -0.2440
      9  C12       -4.0640   34.2360  104.3720 C.2   301  TZG301      0.3822
     10  O5        -4.2900   33.4930  105.3440 O.co2 301  TZG301     -0.2440
     11  N2        -1.8730   34.3300  105.3870 N.3   301  TZG301     -0.1205
     12  C3        -0.6270   34.1780  102.6990 C.ar  301  TZG301     -0.0232
     13 CL1         2.9310   32.7310  103.8120 Cl    301  TZG301     -0.0805
     14  O1         3.5940   36.5220  101.7250 O.2   301  TZG301     -0.1261
     15  O2         4.3420   34.2130  101.9890 O.2   301  TZG301     -0.1261
     16  C1         1.0330   35.5630  101.6850 C.ar  301  TZG301      0.0204
     17  C2        -0.3070   35.2710  101.9000 C.ar  301  TZG301     -0.0238
     18  C9        -1.3600   36.1580  101.2080 C.3   301  TZG301      0.0379
     19  C11       -1.3510   38.2940  102.5460 C.2   301  TZG301      0.3652
     20  O7        -2.4750   38.0500  103.0290 O.co2 301  TZG301     -0.2456
     21  O6        -0.4850   39.0230  103.0620 O.co2 301  TZG301     -0.2456
@<TRIPOS>BOND
     1     7    18    1
     2     7    19    1
     3    18    17    1
     4    16    17   ar
     5    16     4   ar
     6    14     1    2
     7    17    12   ar
     8    15     1    2
     9     1     4    1
    10     4     3   ar
    11    19    20   ar
    12    19    21   ar
    13    12     5    1
    14    12     2   ar
    15     5     6    1
    16     3     2   ar
    17     3    13    1
    18     8     9   ar
    19     6     9    1
    20     6    11    1
    21     9    10   ar
