@<TRIPOS>MOLECULE
4dle_DCT_A_1.pdb
 27 28 0 0 0
SMALL
GASTEIGER

@<TRIPOS>ATOM
      1  N1        19.1670  -19.8410   -7.1500 N.am  903  DCT903     -0.1803
      2  C2        18.9540  -20.2520   -5.8490 C.1   903  DCT903      0.2756
      3  N3        19.1620  -19.3750   -4.8040 N.2   903  DCT903     -0.3024
      4  C4        19.5840  -18.0850   -5.0600 C.2   903  DCT903      0.2346
      5  C5        19.7960  -17.6760   -6.3700 C.2   903  DCT903      0.0687
      6  C6        19.5810  -18.5670   -7.4130 C.2   903  DCT903      0.0835
      7  O2        18.5750  -21.4010   -5.6210 O.2   903  DCT903     -0.1925
      8  N4        19.7870  -17.2350   -4.0580 N.pl3 903  DCT903     -0.0921
      9  C1'       18.9370  -20.7740   -8.2650 C.3   903  DCT903      0.2063
     10  C2'       17.5560  -20.5010   -8.8330 C.3   903  DCT903      0.0545
     11  C3'       17.7350  -20.4380  -10.3370 C.3   903  DCT903      0.0366
     12  C4'       19.2340  -20.5330  -10.5700 C.3   903  DCT903      0.1472
     13  O4'       19.8580  -20.5160   -9.3030 O.3   903  DCT903     -0.3366
     14  C5'       19.7310  -19.3600  -11.4030 C.3   903  DCT903      0.1785
     15  O5'       18.8340  -18.2770  -11.3250 O.3   903  DCT903     -0.3113
     16  PA        19.3600  -16.7550  -11.3960 P.3   903  DCT903      0.2189
     17  O1A       19.9430  -16.4770  -12.7630 O.2   903  DCT903     -0.5170
     18  O2A       20.3520  -16.4650  -10.2950 O.3   903  DCT903     -0.4371
     19  O3A       18.0150  -15.8900  -11.2070 O.3   903  DCT903     -0.2700
     20  PB        16.7390  -16.2120  -12.1330 P.3   903  DCT903      0.2277
     21  O1B       17.1330  -17.0670  -13.3120 O.2   903  DCT903     -0.5168
     22  O2B       15.6710  -16.8930  -11.3130 O.3   903  DCT903     -0.4368
     23  O3B       16.2030  -14.7770  -12.6240 O.3   903  DCT903     -0.2258
     24  PG        17.1280  -13.8180  -13.5270 P.3   903  DCT903      0.5373
     25  O1G       17.8010  -14.6410  -14.5960 O.2   903  DCT903     -0.2221
     26  O2G       18.2000  -13.2050  -12.6590 O.3   903  DCT903     -0.1143
     27  O3G       16.2780  -12.7430  -14.1610 O.3   903  DCT903     -0.1143
@<TRIPOS>BOND
     1    25    24    2
     2    27    24    1
     3    24    26    1
     4    24    23    1
     5    21    20    2
     6    17    16    2
     7    23    20    1
     8    20    22    1
     9    20    19    1
    10    14    15    1
    11    14    12    1
    12    16    15    1
    13    16    19    1
    14    16    18    1
    15    12    11    1
    16    12    13    1
    17    11    10    1
    18    13     9    1
    19    10     9    1
    20     9     1    1
    21     6     1    1
    22     6     5    2
    23     1     2   am
    24     5     4    1
    25     2     7    2
    26     2     3    2
    27     4     3    2
    28     4     8    1
