@<TRIPOS>MOLECULE
4dlg_DCT_A_1.pdb
 27 28 0 0 0
SMALL
GASTEIGER

@<TRIPOS>ATOM
      1  N1        18.9000  -19.6130   -7.3210 N.am  901  DCT901     -0.1803
      2  C2        18.6830  -19.9960   -6.0120 C.1   901  DCT901      0.2756
      3  N3        18.8410  -19.0860   -4.9880 N.2   901  DCT901     -0.3024
      4  C4        19.2150  -17.7900   -5.2700 C.2   901  DCT901      0.2346
      5  C5        19.4320  -17.4070   -6.5860 C.2   901  DCT901      0.0687
      6  C6        19.2700  -18.3320   -7.6080 C.2   901  DCT901      0.0835
      7  O2        18.3500  -21.1490   -5.7550 O.2   901  DCT901     -0.1925
      8  N4        19.3680  -16.9100   -4.2870 N.pl3 901  DCT901     -0.0921
      9  C1'       18.7300  -20.5860   -8.4150 C.3   901  DCT901      0.2063
     10  C2'       17.3780  -20.3710   -9.0780 C.3   901  DCT901      0.0545
     11  C3'       17.6760  -20.0770  -10.5370 C.3   901  DCT901      0.0366
     12  C4'       19.1750  -20.2710  -10.6930 C.3   901  DCT901      0.1472
     13  O4'       19.7280  -20.3880   -9.3960 O.3   901  DCT901     -0.3366
     14  C5'       19.7810  -19.0860  -11.4410 C.3   901  DCT901      0.1785
     15  O5'       19.7370  -17.9260  -10.6420 O.3   901  DCT901     -0.3113
     16  PA        19.2890  -16.5070  -11.2540 P.3   901  DCT901      0.2189
     17  O1A       20.0080  -15.4010  -10.5260 O.3   901  DCT901     -0.4371
     18  O2A       19.5440  -16.4260  -12.7350 O.2   901  DCT901     -0.5170
     19  O3A       17.7170  -16.4340  -10.9290 O.3   901  DCT901     -0.2700
     20  PB        16.6170  -16.2510  -12.0910 P.3   901  DCT901      0.2277
     21  O1B       15.3080  -16.8080  -11.5970 O.3   901  DCT901     -0.4368
     22  O2B       17.0520  -16.9220  -13.3670 O.2   901  DCT901     -0.5168
     23  O3B       16.4930  -14.6560  -12.2700 O.3   901  DCT901     -0.2258
     24  PG        16.8530  -13.9130  -13.6530 P.3   901  DCT901      0.5373
     25  O1G       15.5850  -13.7380  -14.4440 O.2   901  DCT901     -0.2221
     26  O2G       17.8440  -14.7320  -14.4400 O.3   901  DCT901     -0.1143
     27  O3G       17.4350  -12.5540  -13.3630 O.3   901  DCT901     -0.1143
@<TRIPOS>BOND
     1    25    24    2
     2    26    24    1
     3    24    27    1
     4    24    23    1
     5    22    20    2
     6    18    16    2
     7    23    20    1
     8    20    21    1
     9    20    19    1
    10    14    12    1
    11    14    15    1
    12    16    19    1
    13    16    15    1
    14    16    17    1
    15    12    11    1
    16    12    13    1
    17    11    10    1
    18    13     9    1
    19    10     9    1
    20     9     1    1
    21     6     1    1
    22     6     5    2
    23     1     2   am
    24     5     4    1
    25     2     7    2
    26     2     3    2
    27     4     3    2
    28     4     8    1
