@<TRIPOS>MOLECULE
4dli_IRG_A_1.pdb
 21 24 0 0 0
SMALL
GASTEIGER

@<TRIPOS>ATOM
      1  N1        23.9510  -17.0200  -10.7870 N.2   401  IRG401     -0.3231
      2  C2        23.7610  -17.7670   -9.6720 C.1   401  IRG401      0.1392
      3  N3        24.0140  -17.2130   -8.4700 N.2   401  IRG401     -0.3397
      4  C4        24.4770  -15.9560   -8.3730 C.2   401  IRG401      0.1483
      5  C5        24.6550  -15.1760   -9.5110 C.2   401  IRG401      0.0729
      6  C6        24.4140  -15.7530  -10.7530 C.2   401  IRG401      0.2137
      7  NAA       25.4880  -13.5930   -5.7910 N.pl3 401  IRG401     -0.1323
      8  CAB       22.0700  -21.6240  -10.1730 C.ar  401  IRG401      0.0000
      9  CAC       22.3560  -20.8030  -11.2580 C.ar  401  IRG401      0.0007
     10  CAD       22.3690  -21.1600   -8.8750 C.ar  401  IRG401      0.0007
     11  CAE       22.9280  -19.5440  -11.0690 C.ar  401  IRG401      0.0120
     12  CAF       22.9540  -19.8950   -8.6880 C.ar  401  IRG401      0.0120
     13  CAG       25.4390  -13.2950   -8.1480 C.3   401  IRG401      0.0710
     14  CAH       25.1500  -13.8640   -9.3930 C.2   401  IRG401     -0.0134
     15  CAI       24.7850  -15.4040   -7.1300 C.2   401  IRG401      0.0471
     16  CAJ       25.6170  -16.2920  -13.8110 C.3   401  IRG401      0.0234
     17  CAK       25.1050  -14.9780  -14.3790 C.3   401  IRG401      0.0234
     18  NAN       24.5870  -15.0370  -11.8930 N.pl3 401  IRG401     -0.2107
     19  CAO       25.2360  -14.0890   -7.0050 C.2   401  IRG401      0.0737
     20  CAP       23.2420  -19.0650   -9.7990 C.ar  401  IRG401      0.0857
     21  CAU       24.3650  -15.6630  -13.1980 C.3   401  IRG401      0.0952
@<TRIPOS>BOND
     1    17    16    1
     2    17    21    1
     3    16    21    1
     4    21    18    1
     5    18     6    1
     6     9    11   ar
     7     9     8   ar
     8    11    20   ar
     9     1     6    2
    10     1     2    2
    11     6     5    1
    12     8    10   ar
    13    20     2    1
    14    20    12   ar
    15     2     3    2
    16     5    14    2
    17     5     4    1
    18    14    13    1
    19    10    12   ar
    20     3     4    2
    21     4    15    1
    22    13    19    1
    23    15    19    2
    24    19     7    1
