@<TRIPOS>MOLECULE
4dlj_6RG_A_1.pdb
 26 29 0 0 0
SMALL
GASTEIGER

@<TRIPOS>ATOM
      1  N1        23.8750  -16.6430  -11.0000 N.2   401  6RG401     -0.3270
      2  C2        23.8420  -17.3970   -9.8840 C.1   401  6RG401      0.1385
      3  N3        24.2590  -16.9060   -8.7020 N.2   401  6RG401     -0.3434
      4  C4        24.7330  -15.6440   -8.6280 C.2   401  6RG401      0.1345
      5  C5        24.7970  -14.8650   -9.7920 C.3   401  6RG401      0.1443
      6  C6        24.3690  -15.3920  -11.0050 C.2   401  6RG401      0.1987
      7  NAA       26.1130  -13.2400   -6.2330 N.pl3 401  6RG401     -0.1280
      8  CAB       26.6110  -17.4210  -17.4640 C.ar  401  6RG401     -0.0000
      9  CAC       22.0940  -21.2090  -10.0330 C.ar  401  6RG401      0.0000
     10  CAD       25.2160  -17.4690  -17.4860 C.ar  401  6RG401     -0.0003
     11  CAE       27.2430  -16.9350  -16.3100 C.ar  401  6RG401     -0.0003
     12  CAF       22.5340  -20.6980   -8.8190 C.ar  401  6RG401      0.0007
     13  CAG       22.2620  -20.4520  -11.1800 C.ar  401  6RG401      0.0007
     14  CAH       24.4900  -17.0320  -16.3550 C.ar  401  6RG401     -0.0042
     15  CAI       26.5140  -16.5030  -15.1880 C.ar  401  6RG401     -0.0042
     16  CAJ       23.1210  -19.4240   -8.7730 C.ar  401  6RG401      0.0120
     17  CAK       22.8610  -19.1860  -11.1490 C.ar  401  6RG401      0.0120
     18  CAL       25.7420  -13.0290   -8.5430 C.2   401  6RG401      0.0144
     19  CAM       25.2890  -13.5540   -9.7470 C.2   401  6RG401     -0.0095
     20  CAN       25.1860  -15.1140   -7.4160 C.2   401  6RG401      0.0473
     21  CAO       24.9550  -14.8920  -13.4060 C.3   401  6RG401      0.1192
     22  CAP       24.3150  -16.1110  -14.0150 C.3   401  6RG401      0.0497
     23  NAS       24.3730  -14.5990  -12.1070 N.pl3 401  6RG401     -0.2117
     24  CAT       25.6810  -13.8000   -7.3730 C.2   401  6RG401      0.0911
     25  CAU       25.1290  -16.5520  -15.2070 C.ar  401  6RG401     -0.0204
     26  CAV       23.3020  -18.6740   -9.9410 C.ar  401  6RG401      0.0856
@<TRIPOS>BOND
     1    10     8   ar
     2    10    14   ar
     3     8    11   ar
     4    14    25   ar
     5    11    15   ar
     6    25    15   ar
     7    25    22    1
     8    22    21    1
     9    21    23    1
    10    23     6    1
    11    13    17   ar
    12    13     9   ar
    13    17    26   ar
    14     6     1    2
    15     6     5    1
    16     1     2    2
    17     9    12   ar
    18    26     2    1
    19    26    16   ar
    20     2     3    2
    21     5    19    1
    22     5     4    1
    23    19    18    2
    24    12    16   ar
    25     3     4    2
    26     4    20    1
    27    18    24    1
    28    20    24    2
    29    24     7    1
