@<TRIPOS>MOLECULE
4dlk_ATP_A_1.pdb
 31 33 0 0 0
SMALL
GASTEIGER

@<TRIPOS>ATOM
      1  PG        -9.1820    4.4460   -7.7760 P.3   404  ATP404      0.5373
      2  O1G       -8.5070    5.6080   -7.0810 O.3   404  ATP404     -0.1143
      3  O2G       -8.1990    3.3700   -8.2030 O.2   404  ATP404     -0.2221
      4  O3G      -10.4010    3.9260   -7.0550 O.3   404  ATP404     -0.1143
      5  PB        -9.9960    6.5390   -9.6110 P.3   404  ATP404      0.2277
      6  O1B      -10.7520    6.5100  -10.9040 O.2   404  ATP404     -0.5168
      7  O2B      -10.4740    7.3730   -8.4530 O.3   404  ATP404     -0.4368
      8  O3B       -9.8170    4.9910   -9.1610 O.3   404  ATP404     -0.2258
      9  PA        -7.8370    8.0370  -10.7990 P.3   404  ATP404      0.2189
     10  O1A       -6.4060    8.1930  -10.3670 O.3   404  ATP404     -0.4371
     11  O2A       -8.7500    9.2360  -10.8010 O.2   404  ATP404     -0.5170
     12  O3A       -8.4460    6.8670   -9.8860 O.3   404  ATP404     -0.2700
     13  O5'       -7.8090    7.4260  -12.2910 O.3   404  ATP404     -0.3112
     14  C5'       -7.5530    6.0370  -12.5050 C.3   404  ATP404      0.1813
     15  C4'       -6.4130    5.8260  -13.4920 C.3   404  ATP404      0.1821
     16  O4'       -6.6140    6.6190  -14.6690 O.3   404  ATP404     -0.3135
     17  C3'       -5.0640    6.2560  -12.9340 C.3   404  ATP404      0.2184
     18  O3'       -4.4070    5.2040  -12.2220 O.3   404  ATP404     -0.2174
     19  C2'       -4.2840    6.6670  -14.1660 C.3   404  ATP404      0.2570
     20  O2'       -3.5950    5.5420  -14.7240 O.3   404  ATP404     -0.2130
     21  C1'       -5.3510    7.0960  -15.1520 C.3   404  ATP404      0.3186
     22  N9        -5.3440    8.5740  -15.2020 N.pl3 404  ATP404     -0.1439
     23  C8        -6.1360    9.3940  -14.4790 C.3   404  ATP404      0.3377
     24  N7        -5.8740   10.6930  -14.7550 N.2   404  ATP404     -0.2095
     25  C5        -4.8930   10.7210  -15.6710 C.2   404  ATP404      0.2526
     26  C6        -4.1440   11.7720  -16.3970 C.2   404  ATP404      0.4393
     27  N6        -4.4110   13.0850  -16.1860 N.pl3 404  ATP404      0.2180
     28  N1        -3.1850   11.3740  -17.2720 N.2   404  ATP404      0.0021
     29  C2        -2.9080   10.0680  -17.4910 C.3   404  ATP404      0.5254
     30  N3        -3.5550    9.0640  -16.8680 N.2   404  ATP404     -0.0055
     31  C4        -4.5390    9.3200  -15.9620 C.2   404  ATP404      0.3518
@<TRIPOS>BOND
     1    29    28    1
     2    29    30    1
     3    28    26    2
     4    30    31    2
     5    26    27    1
     6    26    25    1
     7    31    25    1
     8    31    22    1
     9    25    24    2
    10    22    21    1
    11    22    23    1
    12    21    16    1
    13    21    19    1
    14    24    23    1
    15    20    19    1
    16    16    15    1
    17    19    17    1
    18    15    17    1
    19    15    14    1
    20    17    18    1
    21    14    13    1
    22    13     9    1
    23     6     5    2
    24    11     9    2
    25     9    10    1
    26     9    12    1
    27    12     5    1
    28     5     8    1
    29     5     7    1
    30     8     1    1
    31     3     1    2
    32     1     2    1
    33     1     4    1
