@<TRIPOS>MOLECULE
4dlr_GNP_A_1.pdb
 32 34 0 0 0
SMALL
GASTEIGER

@<TRIPOS>ATOM
      1  PG        -9.7400   63.6100  -66.6980 P.3   208  GNP208      0.4884
      2  O1G       -8.7620   63.2470  -65.5960 O.3   208  GNP208     -0.1240
      3  O2G      -10.6750   64.6860  -66.2570 O.3   208  GNP208     -0.1240
      4  O3G      -10.4620   62.3710  -67.1920 O.2   208  GNP208     -0.2331
      5  N3B       -8.8600   64.1930  -67.9510 N.3   208  GNP208     -0.0163
      6  PB        -9.3770   64.8390  -69.3620 P.3   208  GNP208      0.4669
      7  O1B       -9.7400   63.7910  -70.3650 O.2   208  GNP208     -0.2351
      8  O2B      -10.4460   65.8320  -69.0780 O.3   208  GNP208     -0.1253
      9  O3A       -8.1340   65.6170  -69.9440 O.3   208  GNP208     -0.2360
     10  PA        -7.8060   67.1740  -69.9430 P.3   208  GNP208      0.2220
     11  O1A       -8.7530   67.8940  -70.8180 O.2   208  GNP208     -0.5170
     12  O2A       -7.6510   67.5790  -68.5330 O.3   208  GNP208     -0.4370
     13  O5'       -6.4230   67.2140  -70.7060 O.3   208  GNP208     -0.3111
     14  C5'       -5.2960   66.4920  -70.1790 C.3   208  GNP208      0.1813
     15  C4'       -4.0110   67.1160  -70.6830 C.3   208  GNP208      0.1799
     16  O4'       -3.9350   66.9440  -72.1240 O.3   208  GNP208     -0.3326
     17  C3'       -3.8860   68.6170  -70.4280 C.3   208  GNP208      0.2158
     18  O3'       -2.5140   68.9300  -70.1540 O.3   208  GNP208     -0.2175
     19  C2'       -4.3280   69.2410  -71.7440 C.3   208  GNP208      0.2310
     20  O2'       -3.7070   70.4840  -72.0350 O.3   208  GNP208     -0.2158
     21  C1'       -3.8320   68.2060  -72.7480 C.3   208  GNP208      0.2293
     22  N9        -4.6160   68.1980  -73.9810 N.pl3 208  GNP208     -0.2354
     23  C8        -5.9840   68.0270  -74.0710 C.3   208  GNP208      0.2246
     24  N7        -6.4220   68.0900  -75.2970 N.2   208  GNP208     -0.2322
     25  C5        -5.2830   68.3070  -76.0680 C.2   208  GNP208      0.2182
     26  C6        -5.1230   68.4480  -77.4740 C.1   208  GNP208      0.2372
     27  O6        -6.0040   68.4110  -78.3490 O.2   208  GNP208     -0.2069
     28  N1        -3.7800   68.6640  -77.8330 N.2   208  GNP208     -0.2485
     29  C2        -2.7490   68.7160  -76.9420 C.1   208  GNP208      0.2531
     30  N2        -1.5380   68.9300  -77.4820 N.pl3 208  GNP208     -0.0226
     31  N3        -2.8800   68.5720  -75.6370 N.2   208  GNP208     -0.3074
     32  C4        -4.1670   68.3710  -75.2680 C.2   208  GNP208      0.2300
@<TRIPOS>BOND
     1    27    26    2
     2    28    26    2
     3    28    29    2
     4    30    29    1
     5    26    25    1
     6    29    31    2
     7    25    24    2
     8    25    32    1
     9    31    32    2
    10    24    23    1
    11    32    22    1
    12    23    22    1
    13    22    21    1
    14    21    16    1
    15    21    19    1
    16    16    15    1
    17    20    19    1
    18    19    17    1
    19    11    10    2
    20    13    14    1
    21    13    10    1
    22    15    17    1
    23    15    14    1
    24    17    18    1
    25     7     6    2
    26     9    10    1
    27     9     6    1
    28    10    12    1
    29     6     8    1
    30     6     5    1
    31     5     1    1
    32     4     1    2
    33     1     3    1
    34     1     2    1
