@<TRIPOS>MOLECULE
4dls_GNP_A_1.pdb
 32 34 0 0 0
SMALL
GASTEIGER

@<TRIPOS>ATOM
      1  PG        -9.8440   64.8860  -67.6210 P.3   205  GNP205      0.4884
      2  O1G       -8.8660   64.5070  -66.5080 O.3   205  GNP205     -0.1240
      3  O2G      -10.8100   65.9040  -67.1530 O.3   205  GNP205     -0.1240
      4  O3G      -10.5600   63.6510  -68.0950 O.2   205  GNP205     -0.2331
      5  N3B       -8.9240   65.5010  -68.8310 N.3   205  GNP205     -0.0163
      6  PB        -9.4520   66.1160  -70.2550 P.3   205  GNP205      0.4669
      7  O1B       -9.8560   65.0590  -71.2200 O.2   205  GNP205     -0.2351
      8  O2B      -10.5300   67.0490  -70.0340 O.3   205  GNP205     -0.1253
      9  O3A       -8.2050   66.8560  -70.8270 O.3   205  GNP205     -0.2360
     10  PA        -7.9400   68.4150  -70.8810 P.3   205  GNP205      0.2220
     11  O1A       -8.8450   69.1770  -71.7690 O.2   205  GNP205     -0.5170
     12  O2A       -7.7550   68.9250  -69.4630 O.3   205  GNP205     -0.4370
     13  O5'       -6.5450   68.5260  -71.5620 O.3   205  GNP205     -0.3111
     14  C5'       -5.3890   67.7740  -71.0870 C.3   205  GNP205      0.1813
     15  C4'       -4.0970   68.3970  -71.5850 C.3   205  GNP205      0.1799
     16  O4'       -3.9900   68.2100  -73.0240 O.3   205  GNP205     -0.3326
     17  C3'       -3.9840   69.9100  -71.3510 C.3   205  GNP205      0.2158
     18  O3'       -2.6380   70.2200  -71.1120 O.3   205  GNP205     -0.2175
     19  C2'       -4.4550   70.5070  -72.6820 C.3   205  GNP205      0.2310
     20  O2'       -3.8620   71.7590  -72.9950 O.3   205  GNP205     -0.2158
     21  C1'       -3.9230   69.4630  -73.6670 C.3   205  GNP205      0.2293
     22  N9        -4.7350   69.4160  -74.8660 N.pl3 205  GNP205     -0.2354
     23  C8        -6.1020   69.2270  -74.9390 C.3   205  GNP205      0.2246
     24  N7        -6.5360   69.2550  -76.1690 N.2   205  GNP205     -0.2322
     25  C5        -5.4060   69.4740  -76.9540 C.2   205  GNP205      0.2182
     26  C6        -5.2510   69.5890  -78.3730 C.1   205  GNP205      0.2372
     27  O6        -6.1060   69.5430  -79.2820 O.2   205  GNP205     -0.2069
     28  N1        -3.9220   69.8000  -78.7070 N.2   205  GNP205     -0.2485
     29  C2        -2.8670   69.8760  -77.8120 C.1   205  GNP205      0.2531
     30  N2        -1.6460   70.0890  -78.3240 N.pl3 205  GNP205     -0.0226
     31  N3        -3.0020   69.7870  -76.5050 N.2   205  GNP205     -0.3074
     32  C4        -4.2850   69.5560  -76.1520 C.2   205  GNP205      0.2300
@<TRIPOS>BOND
     1    27    26    2
     2    28    26    2
     3    28    29    2
     4    26    25    1
     5    30    29    1
     6    29    31    2
     7    25    24    2
     8    25    32    1
     9    31    32    2
    10    24    23    1
    11    32    22    1
    12    23    22    1
    13    22    21    1
    14    21    16    1
    15    21    19    1
    16    16    15    1
    17    20    19    1
    18    19    17    1
    19    11    10    2
    20    15    17    1
    21    15    14    1
    22    13    14    1
    23    13    10    1
    24    17    18    1
    25     7     6    2
    26    10     9    1
    27    10    12    1
    28     9     6    1
    29     6     8    1
    30     6     5    1
    31     5     1    1
    32     4     1    2
    33     1     3    1
    34     1     2    1
