@<TRIPOS>MOLECULE
4dlt_GNP_A_1.pdb
 32 34 0 0 0
SMALL
GASTEIGER

@<TRIPOS>ATOM
      1  PG        -9.6990   64.6760  -67.1970 P.3   201  GNP201      0.4884
      2  O1G       -8.7070   64.2890  -66.1050 O.3   201  GNP201     -0.1240
      3  O2G      -10.6770   65.6670  -66.6890 O.3   201  GNP201     -0.1240
      4  O3G      -10.3340   63.4140  -67.7290 O.2   201  GNP201     -0.2331
      5  N3B       -8.7970   65.3010  -68.3940 N.3   201  GNP201     -0.0163
      6  PB        -9.2800   65.9040  -69.8120 P.3   201  GNP201      0.4669
      7  O1B       -9.6640   64.8330  -70.7850 O.2   201  GNP201     -0.2351
      8  O2B      -10.3610   66.8840  -69.5880 O.3   201  GNP201     -0.1253
      9  O3A       -8.0540   66.6420  -70.4170 O.3   201  GNP201     -0.2360
     10  PA        -7.7350   68.1870  -70.4280 P.3   201  GNP201      0.2220
     11  O1A       -8.6760   68.9200  -71.3050 O.2   201  GNP201     -0.5170
     12  O2A       -7.5590   68.6980  -69.0450 O.3   201  GNP201     -0.4370
     13  O5'       -6.3360   68.2890  -71.1460 O.3   201  GNP201     -0.3111
     14  C5'       -5.1880   67.5440  -70.6840 C.3   201  GNP201      0.1813
     15  C4'       -3.9000   68.1740  -71.1840 C.3   201  GNP201      0.1799
     16  O4'       -3.8090   67.9680  -72.6170 O.3   201  GNP201     -0.3326
     17  C3'       -3.7580   69.6860  -70.9530 C.3   201  GNP201      0.2158
     18  O3'       -2.3910   70.0230  -70.7550 O.3   201  GNP201     -0.2175
     19  C2'       -4.2410   70.2800  -72.2760 C.3   201  GNP201      0.2310
     20  O2'       -3.6400   71.5210  -72.5810 O.3   201  GNP201     -0.2158
     21  C1'       -3.7640   69.2230  -73.2710 C.3   201  GNP201      0.2293
     22  N9        -4.5740   69.1930  -74.4750 N.pl3 201  GNP201     -0.2354
     23  C8        -5.9410   69.0110  -74.5560 C.3   201  GNP201      0.2246
     24  N7        -6.3770   69.0570  -75.7790 N.2   201  GNP201     -0.2322
     25  C5        -5.2390   69.2730  -76.5550 C.2   201  GNP201      0.2182
     26  C6        -5.0860   69.4010  -77.9630 C.1   201  GNP201      0.2372
     27  O6        -5.9600   69.3650  -78.8420 O.2   201  GNP201     -0.2069
     28  N1        -3.7620   69.6180  -78.3370 N.2   201  GNP201     -0.2485
     29  C2        -2.7040   69.6880  -77.4550 C.1   201  GNP201      0.2531
     30  N2        -1.4890   69.8910  -77.9910 N.pl3 201  GNP201     -0.0226
     31  N3        -2.8340   69.5580  -76.1430 N.2   201  GNP201     -0.3074
     32  C4        -4.1200   69.3560  -75.7640 C.2   201  GNP201      0.2300
@<TRIPOS>BOND
     1    27    26    2
     2    28    26    2
     3    28    29    2
     4    30    29    1
     5    26    25    1
     6    29    31    2
     7    25    24    2
     8    25    32    1
     9    31    32    2
    10    24    23    1
    11    32    22    1
    12    23    22    1
    13    22    21    1
    14    21    16    1
    15    21    19    1
    16    16    15    1
    17    20    19    1
    18    19    17    1
    19    11    10    2
    20    15    17    1
    21    15    14    1
    22    13    14    1
    23    13    10    1
    24    17    18    1
    25     7     6    2
    26    10     9    1
    27    10    12    1
    28     9     6    1
    29     6     8    1
    30     6     5    1
    31     5     1    1
    32     4     1    2
    33     1     3    1
    34     1     2    1
