@<TRIPOS>MOLECULE
4dlu_GNP_A_1.pdb
 32 34 0 0 0
SMALL
GASTEIGER

@<TRIPOS>ATOM
      1  PG        -9.5000   64.7290  -67.4930 P.3   201  GNP201      0.4884
      2  O1G       -8.5630   64.3870  -66.2530 O.3   201  GNP201     -0.1240
      3  O2G      -10.5650   65.8040  -66.9940 O.3   201  GNP201     -0.1240
      4  O3G      -10.1660   63.4620  -68.0310 O.2   201  GNP201     -0.2331
      5  N3B       -8.5580   65.4310  -68.7360 N.3   201  GNP201     -0.0163
      6  PB        -9.1860   66.0580  -70.1370 P.3   201  GNP201      0.4669
      7  O1B       -9.5830   64.9740  -71.1250 O.2   201  GNP201     -0.2351
      8  O2B      -10.3060   67.0650  -69.8830 O.3   201  GNP201     -0.1253
      9  O3A       -7.9390   66.7730  -70.7800 O.3   201  GNP201     -0.2360
     10  PA        -7.5780   68.3130  -70.7260 P.3   201  GNP201      0.2220
     11  O1A       -8.5870   69.0890  -71.5700 O.2   201  GNP201     -0.5170
     12  O2A       -7.4500   68.8030  -69.2710 O.3   201  GNP201     -0.4370
     13  O5'       -6.2200   68.3840  -71.4570 O.3   201  GNP201     -0.3111
     14  C5'       -5.0230   67.7500  -70.9540 C.3   201  GNP201      0.1813
     15  C4'       -3.7690   68.2850  -71.4410 C.3   201  GNP201      0.1799
     16  O4'       -3.7030   68.0830  -72.8940 O.3   201  GNP201     -0.3326
     17  C3'       -3.6550   69.7610  -71.2430 C.3   201  GNP201      0.2158
     18  O3'       -2.3380   70.1110  -70.9880 O.3   201  GNP201     -0.2175
     19  C2'       -4.1100   70.3570  -72.5230 C.3   201  GNP201      0.2310
     20  O2'       -3.5790   71.6260  -72.8220 O.3   201  GNP201     -0.2158
     21  C1'       -3.6800   69.3330  -73.5280 C.3   201  GNP201      0.2293
     22  N9        -4.4980   69.3180  -74.7400 N.pl3 201  GNP201     -0.2354
     23  C8        -5.8320   69.1460  -74.8010 C.3   201  GNP201      0.2246
     24  N7        -6.2010   69.1990  -76.0940 N.2   201  GNP201     -0.2322
     25  C5        -5.0850   69.3900  -76.8350 C.2   201  GNP201      0.2182
     26  C6        -4.8300   69.5240  -78.2030 C.1   201  GNP201      0.2372
     27  O6        -5.8600   69.4640  -79.1380 O.2   201  GNP201     -0.2069
     28  N1        -3.5820   69.7240  -78.6230 N.2   201  GNP201     -0.2485
     29  C2        -2.5650   69.7850  -77.7610 C.1   201  GNP201      0.2531
     30  N2        -1.2230   69.9890  -78.2730 N.pl3 201  GNP201     -0.0226
     31  N3        -2.7670   69.6550  -76.4360 N.2   201  GNP201     -0.3074
     32  C4        -4.0010   69.4610  -75.9680 C.2   201  GNP201      0.2300
@<TRIPOS>BOND
     1    27    26    2
     2    28    26    2
     3    28    29    2
     4    30    29    1
     5    26    25    1
     6    29    31    2
     7    25    24    2
     8    25    32    1
     9    31    32    2
    10    24    23    1
    11    32    22    1
    12    23    22    1
    13    22    21    1
    14    21    16    1
    15    21    19    1
    16    16    15    1
    17    20    19    1
    18    19    17    1
    19    11    10    2
    20    13    14    1
    21    13    10    1
    22    15    17    1
    23    15    14    1
    24    17    18    1
    25     7     6    2
    26     9    10    1
    27     9     6    1
    28    10    12    1
    29     6     8    1
    30     6     5    1
    31     5     1    1
    32     4     1    2
    33     1     3    1
    34     1     2    1
