@<TRIPOS>MOLECULE
4dlv_GNP_A_1.pdb
 32 34 0 0 0
SMALL
GASTEIGER

@<TRIPOS>ATOM
      1  PG        -9.9520   64.7900  -66.8520 P.3   204  GNP204      0.4884
      2  O1G       -8.9940   64.4680  -65.7130 O.3   204  GNP204     -0.1240
      3  O2G      -10.9270   65.8500  -66.4200 O.3   204  GNP204     -0.1240
      4  O3G      -10.6430   63.5330  -67.3340 O.2   204  GNP204     -0.2331
      5  N3B       -9.0670   65.3750  -68.0830 N.3   204  GNP204     -0.0163
      6  PB        -9.5610   66.0060  -69.4970 P.3   204  GNP204      0.4669
      7  O1B       -9.9240   64.9150  -70.4220 O.2   204  GNP204     -0.2351
      8  O2B      -10.6240   67.0070  -69.2560 O.3   204  GNP204     -0.1253
      9  O3A       -8.3300   66.7270  -70.0930 O.3   204  GNP204     -0.2360
     10  PA        -8.0020   68.2660  -70.1080 P.3   204  GNP204      0.2220
     11  O1A       -8.9500   68.9930  -70.9710 O.2   204  GNP204     -0.5170
     12  O2A       -7.7480   68.7490  -68.7350 O.3   204  GNP204     -0.4370
     13  O5'       -6.6500   68.3310  -70.8970 O.3   204  GNP204     -0.3111
     14  C5'       -5.5090   67.6370  -70.3570 C.3   204  GNP204      0.1813
     15  C4'       -4.2310   68.2740  -70.8660 C.3   204  GNP204      0.1799
     16  O4'       -4.1800   68.0600  -72.3000 O.3   204  GNP204     -0.3326
     17  C3'       -4.0930   69.7850  -70.6520 C.3   204  GNP204      0.2158
     18  O3'       -2.7420   70.1250  -70.4080 O.3   204  GNP204     -0.2175
     19  C2'       -4.5520   70.3710  -71.9850 C.3   204  GNP204      0.2310
     20  O2'       -3.9510   71.6160  -72.3130 O.3   204  GNP204     -0.2158
     21  C1'       -4.0840   69.2940  -72.9680 C.3   204  GNP204      0.2293
     22  N9        -4.8950   69.2410  -74.1840 N.pl3 204  GNP204     -0.2354
     23  C8        -6.2450   69.0600  -74.2860 C.3   204  GNP204      0.2246
     24  N7        -6.6900   69.0940  -75.5220 N.2   204  GNP204     -0.2322
     25  C5        -5.5460   69.3180  -76.2850 C.2   204  GNP204      0.2182
     26  C6        -5.3740   69.4370  -77.6910 C.1   204  GNP204      0.2372
     27  O6        -6.2470   69.3760  -78.5900 O.2   204  GNP204     -0.2069
     28  N1        -4.0400   69.6570  -78.0280 N.2   204  GNP204     -0.2485
     29  C2        -2.9980   69.7570  -77.1300 C.1   204  GNP204      0.2531
     30  N2        -1.7720   69.9640  -77.6420 N.pl3 204  GNP204     -0.0226
     31  N3        -3.1470   69.6210  -75.8150 N.2   204  GNP204     -0.3074
     32  C4        -4.4350   69.4160  -75.4690 C.2   204  GNP204      0.2300
@<TRIPOS>BOND
     1    27    26    2
     2    28    26    2
     3    28    29    2
     4    26    25    1
     5    30    29    1
     6    29    31    2
     7    25    24    2
     8    25    32    1
     9    31    32    2
    10    24    23    1
    11    32    22    1
    12    23    22    1
    13    22    21    1
    14    21    16    1
    15    21    19    1
    16    20    19    1
    17    16    15    1
    18    19    17    1
    19    11    10    2
    20    13    14    1
    21    13    10    1
    22    15    17    1
    23    15    14    1
    24    17    18    1
    25     7     6    2
    26    10     9    1
    27    10    12    1
    28     9     6    1
    29     6     8    1
    30     6     5    1
    31     5     1    1
    32     4     1    2
    33     1     3    1
    34     1     2    1
