@<TRIPOS>MOLECULE
4dlw_GNP_A_1.pdb
 32 34 0 0 0
SMALL
GASTEIGER

@<TRIPOS>ATOM
      1  PG        -9.6350   64.4110  -66.9440 P.3   201  GNP201      0.4884
      2  O1G       -8.6760   64.0380  -65.8240 O.3   201  GNP201     -0.1240
      3  O2G      -10.6480   65.4070  -66.4710 O.3   201  GNP201     -0.1240
      4  O3G      -10.2420   63.1320  -67.4870 O.2   201  GNP201     -0.2331
      5  N3B       -8.7240   65.0270  -68.1390 N.3   201  GNP201     -0.0163
      6  PB        -9.2350   65.6420  -69.5560 P.3   201  GNP201      0.4669
      7  O1B       -9.6230   64.5880  -70.5380 O.2   201  GNP201     -0.2351
      8  O2B      -10.3200   66.6130  -69.3090 O.3   201  GNP201     -0.1253
      9  O3A       -8.0370   66.3840  -70.1830 O.3   201  GNP201     -0.2360
     10  PA        -7.7110   67.9220  -70.1550 P.3   201  GNP201      0.2220
     11  O1A       -8.6710   68.6560  -70.9940 O.2   201  GNP201     -0.5170
     12  O2A       -7.5150   68.4040  -68.7670 O.3   201  GNP201     -0.4370
     13  O5'       -6.3350   68.0280  -70.8960 O.3   201  GNP201     -0.3111
     14  C5'       -5.1640   67.3080  -70.4020 C.3   201  GNP201      0.1813
     15  C4'       -3.8850   67.9140  -70.9310 C.3   201  GNP201      0.1799
     16  O4'       -3.8530   67.7180  -72.3650 O.3   201  GNP201     -0.3326
     17  C3'       -3.7450   69.4230  -70.7080 C.3   201  GNP201      0.2158
     18  O3'       -2.3780   69.7360  -70.4660 O.3   201  GNP201     -0.2175
     19  C2'       -4.2130   70.0160  -72.0400 C.3   201  GNP201      0.2310
     20  O2'       -3.6300   71.2580  -72.3530 O.3   201  GNP201     -0.2158
     21  C1'       -3.7230   68.9530  -73.0260 C.3   201  GNP201      0.2293
     22  N9        -4.5470   68.9100  -74.2140 N.pl3 201  GNP201     -0.2354
     23  C8        -5.9050   68.7020  -74.2880 C.3   201  GNP201      0.2246
     24  N7        -6.3500   68.7400  -75.5140 N.2   201  GNP201     -0.2322
     25  C5        -5.2190   68.9790  -76.2880 C.2   201  GNP201      0.2182
     26  C6        -5.0740   69.1300  -77.6940 C.1   201  GNP201      0.2372
     27  O6        -5.9540   69.0650  -78.5570 O.2   201  GNP201     -0.2069
     28  N1        -3.7610   69.3710  -78.0750 N.2   201  GNP201     -0.2485
     29  C2        -2.7050   69.4530  -77.1930 C.1   201  GNP201      0.2531
     30  N2        -1.5050   69.7020  -77.7270 N.pl3 201  GNP201     -0.0226
     31  N3        -2.8230   69.3210  -75.8790 N.2   201  GNP201     -0.3074
     32  C4        -4.1010   69.0870  -75.4990 C.2   201  GNP201      0.2300
@<TRIPOS>BOND
     1    27    26    2
     2    28    26    2
     3    28    29    2
     4    30    29    1
     5    26    25    1
     6    29    31    2
     7    25    24    2
     8    25    32    1
     9    31    32    2
    10    24    23    1
    11    32    22    1
    12    23    22    1
    13    22    21    1
    14    21    16    1
    15    21    19    1
    16    16    15    1
    17    20    19    1
    18    19    17    1
    19    11    10    2
    20    15    17    1
    21    15    14    1
    22    13    14    1
    23    13    10    1
    24    17    18    1
    25     7     6    2
    26     9    10    1
    27     9     6    1
    28    10    12    1
    29     6     8    1
    30     6     5    1
    31     5     1    1
    32     4     1    2
    33     1     3    1
    34     1     2    1
