@<TRIPOS>MOLECULE
4dlx_GNP_A_1.pdb
 32 34 0 0 0
SMALL
GASTEIGER

@<TRIPOS>ATOM
      1  PG        -9.8590   64.1630  -66.8780 P.3   206  GNP206      0.4884
      2  O1G       -8.9220   63.8090  -65.7020 O.3   206  GNP206     -0.1240
      3  O2G      -10.8270   65.2180  -66.4280 O.3   206  GNP206     -0.1240
      4  O3G      -10.6130   62.9930  -67.3570 O.2   206  GNP206     -0.2331
      5  N3B       -8.8380   64.7800  -68.0870 N.3   206  GNP206     -0.0163
      6  PB        -9.4440   65.4060  -69.5130 P.3   206  GNP206      0.4669
      7  O1B       -9.8800   64.3270  -70.4790 O.2   206  GNP206     -0.2351
      8  O2B      -10.5970   66.3870  -69.3150 O.3   206  GNP206     -0.1253
      9  O3A       -8.2160   66.1340  -70.1690 O.3   206  GNP206     -0.2360
     10  PA        -7.8960   67.6750  -70.1490 P.3   206  GNP206      0.2220
     11  O1A       -8.8440   68.4380  -70.9900 O.2   206  GNP206     -0.5170
     12  O2A       -7.7750   68.2350  -68.7480 O.3   206  GNP206     -0.4370
     13  O5'       -6.5240   67.7860  -70.9030 O.3   206  GNP206     -0.3111
     14  C5'       -5.3520   67.1880  -70.3640 C.3   206  GNP206      0.1813
     15  C4'       -4.0970   67.7270  -70.8590 C.3   206  GNP206      0.1799
     16  O4'       -4.0910   67.5060  -72.2970 O.3   206  GNP206     -0.3326
     17  C3'       -4.0110   69.2000  -70.6500 C.3   206  GNP206      0.2158
     18  O3'       -2.6980   69.5100  -70.3120 O.3   206  GNP206     -0.2175
     19  C2'       -4.4010   69.7660  -71.9610 C.3   206  GNP206      0.2310
     20  O2'       -3.8670   71.0050  -72.2520 O.3   206  GNP206     -0.2158
     21  C1'       -3.9410   68.7330  -72.9430 C.3   206  GNP206      0.2293
     22  N9        -4.7640   68.7060  -74.1660 N.pl3 206  GNP206     -0.2354
     23  C8        -6.0860   68.4890  -74.2260 C.3   206  GNP206      0.2246
     24  N7        -6.4920   68.5490  -75.5090 N.2   206  GNP206     -0.2322
     25  C5        -5.4050   68.7710  -76.2760 C.2   206  GNP206      0.2182
     26  C6        -5.2050   68.9160  -77.6470 C.1   206  GNP206      0.2372
     27  O6        -6.2210   68.8380  -78.5410 O.2   206  GNP206     -0.2069
     28  N1        -3.9510   69.1570  -78.0770 N.2   206  GNP206     -0.2485
     29  C2        -2.9210   69.2540  -77.2130 C.1   206  GNP206      0.2531
     30  N2        -1.6530   69.5360  -77.6980 N.pl3 206  GNP206     -0.0226
     31  N3        -3.0820   69.1080  -75.9020 N.2   206  GNP206     -0.3074
     32  C4        -4.3070   68.8700  -75.4080 C.2   206  GNP206      0.2300
@<TRIPOS>BOND
     1    27    26    2
     2    28    26    2
     3    28    29    2
     4    30    29    1
     5    26    25    1
     6    29    31    2
     7    25    24    2
     8    25    32    1
     9    31    32    2
    10    24    23    1
    11    32    22    1
    12    23    22    1
    13    22    21    1
    14    21    16    1
    15    21    19    1
    16    16    15    1
    17    20    19    1
    18    19    17    1
    19    11    10    2
    20    13    14    1
    21    13    10    1
    22    15    17    1
    23    15    14    1
    24    17    18    1
    25     7     6    2
    26     9    10    1
    27     9     6    1
    28    10    12    1
    29     6     8    1
    30     6     5    1
    31     5     1    1
    32     4     1    2
    33     1     3    1
    34     1     2    1
