@<TRIPOS>MOLECULE
4dly_GNP_A_1.pdb
 32 34 0 0 0
SMALL
GASTEIGER

@<TRIPOS>ATOM
      1  PG        -9.7970   64.2550  -67.0700 P.3   208  GNP208      0.4884
      2  O1G       -8.8430   63.8790  -65.9550 O.3   208  GNP208     -0.1240
      3  O2G      -10.7340   65.3230  -66.6100 O.3   208  GNP208     -0.1240
      4  O3G      -10.4600   63.0040  -67.5820 O.2   208  GNP208     -0.2331
      5  N3B       -8.9070   64.8740  -68.2910 N.3   208  GNP208     -0.0163
      6  PB        -9.4120   65.5020  -69.7070 P.3   208  GNP208      0.4669
      7  O1B       -9.7870   64.4370  -70.6790 O.2   208  GNP208     -0.2351
      8  O2B      -10.4700   66.4900  -69.4390 O.3   208  GNP208     -0.1253
      9  O3A       -8.1950   66.2640  -70.3160 O.3   208  GNP208     -0.2360
     10  PA        -7.8670   67.7980  -70.2910 P.3   208  GNP208      0.2220
     11  O1A       -8.8050   68.5130  -71.1750 O.2   208  GNP208     -0.5170
     12  O2A       -7.6760   68.2600  -68.8970 O.3   208  GNP208     -0.4370
     13  O5'       -6.4730   67.8840  -71.0240 O.3   208  GNP208     -0.3111
     14  C5'       -5.3470   67.1550  -70.4990 C.3   208  GNP208      0.1813
     15  C4'       -4.0620   67.7820  -71.0050 C.3   208  GNP208      0.1799
     16  O4'       -4.0160   67.6160  -72.4410 O.3   208  GNP208     -0.3326
     17  C3'       -3.9420   69.2860  -70.7680 C.3   208  GNP208      0.2158
     18  O3'       -2.5710   69.5910  -70.4840 O.3   208  GNP208     -0.2175
     19  C2'       -4.4030   69.8950  -72.0940 C.3   208  GNP208      0.2310
     20  O2'       -3.8160   71.1480  -72.4100 O.3   208  GNP208     -0.2158
     21  C1'       -3.8950   68.8640  -73.0860 C.3   208  GNP208      0.2293
     22  N9        -4.6880   68.8210  -74.3070 N.pl3 208  GNP208     -0.2354
     23  C8        -6.0470   68.6060  -74.4060 C.3   208  GNP208      0.2246
     24  N7        -6.4880   68.6450  -75.6280 N.2   208  GNP208     -0.2322
     25  C5        -5.3530   68.8750  -76.3960 C.2   208  GNP208      0.2182
     26  C6        -5.2110   68.9910  -77.7970 C.1   208  GNP208      0.2372
     27  O6        -6.0990   68.9200  -78.6580 O.2   208  GNP208     -0.2069
     28  N1        -3.8910   69.2380  -78.1750 N.2   208  GNP208     -0.2485
     29  C2        -2.8470   69.3500  -77.2900 C.1   208  GNP208      0.2531
     30  N2        -1.6360   69.5760  -77.8360 N.pl3 208  GNP208     -0.0226
     31  N3        -2.9610   69.2160  -75.9790 N.2   208  GNP208     -0.3074
     32  C4        -4.2370   68.9900  -75.5970 C.2   208  GNP208      0.2300
@<TRIPOS>BOND
     1    27    26    2
     2    28    26    2
     3    28    29    2
     4    30    29    1
     5    26    25    1
     6    29    31    2
     7    25    24    2
     8    25    32    1
     9    31    32    2
    10    24    23    1
    11    32    22    1
    12    23    22    1
    13    22    21    1
    14    21    16    1
    15    21    19    1
    16    16    15    1
    17    20    19    1
    18    19    17    1
    19    11    10    2
    20    13    14    1
    21    13    10    1
    22    15    17    1
    23    15    14    1
    24    17    18    1
    25     7     6    2
    26     9    10    1
    27     9     6    1
    28    10    12    1
    29     6     8    1
    30     6     5    1
    31     5     1    1
    32     4     1    2
    33     1     3    1
    34     1     2    1
