@<TRIPOS>MOLECULE
4dlz_GNP_A_1.pdb
 32 34 0 0 0
SMALL
GASTEIGER

@<TRIPOS>ATOM
      1  PG        -9.8900   64.2940  -67.2040 P.3   208  GNP208      0.4884
      2  O1G       -8.9520   63.9130  -66.0800 O.3   208  GNP208     -0.1240
      3  O2G      -10.8390   65.3450  -66.7630 O.3   208  GNP208     -0.1240
      4  O3G      -10.5850   63.0620  -67.7140 O.2   208  GNP208     -0.2331
      5  N3B       -9.0000   64.8900  -68.4310 N.3   208  GNP208     -0.0163
      6  PB        -9.4780   65.5180  -69.8500 P.3   208  GNP208      0.4669
      7  O1B       -9.8290   64.4450  -70.8300 O.2   208  GNP208     -0.2351
      8  O2B      -10.5380   66.5140  -69.6090 O.3   208  GNP208     -0.1253
      9  O3A       -8.2350   66.2670  -70.4020 O.3   208  GNP208     -0.2360
     10  PA        -7.9330   67.8110  -70.4240 P.3   208  GNP208      0.2220
     11  O1A       -8.8700   68.5350  -71.2990 O.2   208  GNP208     -0.5170
     12  O2A       -7.7630   68.3300  -69.0260 O.3   208  GNP208     -0.4370
     13  O5'       -6.5390   67.9160  -71.1520 O.3   208  GNP208     -0.3111
     14  C5'       -5.4140   67.2230  -70.6080 C.3   208  GNP208      0.1813
     15  C4'       -4.1320   67.8320  -71.1260 C.3   208  GNP208      0.1799
     16  O4'       -4.0840   67.6420  -72.5620 O.3   208  GNP208     -0.3326
     17  C3'       -3.9920   69.3360  -70.8860 C.3   208  GNP208      0.2158
     18  O3'       -2.6270   69.6240  -70.6000 O.3   208  GNP208     -0.2175
     19  C2'       -4.4500   69.9330  -72.2170 C.3   208  GNP208      0.2310
     20  O2'       -3.8770   71.1790  -72.5480 O.3   208  GNP208     -0.2158
     21  C1'       -3.9480   68.8810  -73.2100 C.3   208  GNP208      0.2293
     22  N9        -4.7280   68.8620  -74.4390 N.pl3 208  GNP208     -0.2354
     23  C8        -6.0910   68.6830  -74.5380 C.3   208  GNP208      0.2246
     24  N7        -6.5190   68.7330  -75.7610 N.2   208  GNP208     -0.2322
     25  C5        -5.3780   68.9330  -76.5330 C.2   208  GNP208      0.2182
     26  C6        -5.2320   69.0570  -77.9320 C.1   208  GNP208      0.2372
     27  O6        -6.1170   69.0120  -78.8060 O.2   208  GNP208     -0.2069
     28  N1        -3.9000   69.2560  -78.2920 N.2   208  GNP208     -0.2485
     29  C2        -2.8410   69.3240  -77.4110 C.1   208  GNP208      0.2531
     30  N2        -1.6260   69.5220  -77.9440 N.pl3 208  GNP208     -0.0226
     31  N3        -2.9640   69.2060  -76.0990 N.2   208  GNP208     -0.3074
     32  C4        -4.2590   69.0140  -75.7300 C.2   208  GNP208      0.2300
@<TRIPOS>BOND
     1    27    26    2
     2    28    26    2
     3    28    29    2
     4    30    29    1
     5    26    25    1
     6    29    31    2
     7    25    24    2
     8    25    32    1
     9    31    32    2
    10    24    23    1
    11    32    22    1
    12    23    22    1
    13    22    21    1
    14    21    16    1
    15    21    19    1
    16    16    15    1
    17    20    19    1
    18    19    17    1
    19    11    10    2
    20    13    14    1
    21    13    10    1
    22    15    17    1
    23    15    14    1
    24    17    18    1
    25     7     6    2
    26    10     9    1
    27    10    12    1
    28     9     6    1
    29     6     8    1
    30     6     5    1
    31     5     1    1
    32     4     1    2
    33     1     3    1
    34     1     2    1
