@<TRIPOS>MOLECULE
4dm3_SAH_A_1.pdb
 26 28 0 0 0
SMALL
GASTEIGER

@<TRIPOS>ATOM
      1  N         26.8520   52.9670   17.5500 N.3   2001  SAH2001    -0.1208
      2  CA        27.8580   51.9390   17.3260 C.3   2001  SAH2001     0.1952
      3  CB        28.0910   51.1120   18.5820 C.3   2001  SAH2001     0.0422
      4  CG        28.8510   51.8200   19.6760 C.3   2001  SAH2001     0.0597
      5  SD        30.0650   50.6760   20.3710 S.3   2001  SAH2001    -0.1375
      6  C         27.3360   50.9520   16.3000 C.2   2001  SAH2001     0.3819
      7  O         26.1260   50.9230   16.0620 O.co2 2001  SAH2001    -0.2441
      8  OXT       28.0920   50.1620   15.7350 O.co2 2001  SAH2001    -0.2441
      9  C5'       29.5990   51.2210   22.0410 C.3   2001  SAH2001     0.0899
     10  C4'       29.7610   52.7350   22.1510 C.3   2001  SAH2001     0.1630
     11  O4'       29.3610   53.2650   23.4090 O.3   2001  SAH2001    -0.3153
     12  C3'       31.2130   53.1360   21.9490 C.3   2001  SAH2001     0.2168
     13  O3'       31.2820   54.0380   20.8630 O.3   2001  SAH2001    -0.2175
     14  C2'       31.5880   53.7990   23.2710 C.3   2001  SAH2001     0.2569
     15  O2'       32.5240   54.8380   23.1470 O.3   2001  SAH2001    -0.2130
     16  C1'       30.2560   54.3020   23.7860 C.3   2001  SAH2001     0.3185
     17  N9        30.2900   54.4940   25.2470 N.pl3 2001  SAH2001    -0.1439
     18  C8        31.2100   53.9710   26.1170 C.3   2001  SAH2001     0.3377
     19  N7        30.8800   54.3720   27.3590 N.2   2001  SAH2001    -0.2095
     20  C5        29.7690   55.1370   27.2980 C.2   2001  SAH2001     0.2526
     21  C6        29.0320   55.7900   28.2820 C.2   2001  SAH2001     0.4393
     22  N6        29.4050   55.7010   29.5670 N.pl3 2001  SAH2001     0.2180
     23  N1        27.9110   56.5090   27.9160 N.2   2001  SAH2001     0.0021
     24  C2        27.5410   56.5830   26.5860 C.3   2001  SAH2001     0.5254
     25  N3        28.2940   55.9450   25.6150 N.2   2001  SAH2001    -0.0055
     26  C4        29.3880   55.2280   25.9710 C.2   2001  SAH2001     0.3518
@<TRIPOS>BOND
     1     8     6   ar
     2     7     6   ar
     3     6     2    1
     4     2     1    1
     5     2     3    1
     6     3     4    1
     7     4     5    1
     8     5     9    1
     9    13    12    1
    10    12    10    1
    11    12    14    1
    12     9    10    1
    13    10    11    1
    14    15    14    1
    15    14    16    1
    16    11    16    1
    17    16    17    1
    18    17    26    1
    19    17    18    1
    20    25    26    2
    21    25    24    1
    22    26    20    1
    23    18    19    1
    24    24    23    1
    25    20    19    2
    26    20    21    1
    27    23    21    2
    28    21    22    1
