@<TRIPOS>MOLECULE
4dm6_TTB_A_1.pdb
 26 28 0 0 0
SMALL
GASTEIGER

@<TRIPOS>ATOM
      1  C         13.1160   11.6520   23.3160 C.3   501  TTB501      0.0310
      2  C2        12.6150   12.0790   21.8450 C.2   501  TTB501     -0.0218
      3  C3        13.2670   11.9810   20.6430 C.2   501  TTB501     -0.0043
      4  C4        14.3800   11.5760   20.1680 C.ar  501  TTB501     -0.0003
      5  C5        14.7610   12.1920   18.8150 C.ar  501  TTB501      0.0002
      6  C6        16.0050   11.8150   18.1360 C.ar  501  TTB501      0.0066
      7  C7        16.9520   10.7860   18.7840 C.ar  501  TTB501      0.0798
      8  C8        18.1820   10.3950   18.1530 C.2   501  TTB501      0.3878
      9  O         18.4800   10.8600   17.1300 O.co2 501  TTB501     -0.2406
     10  O1        18.8830    9.5930   18.6900 O.co2 501  TTB501     -0.2406
     11  C9        16.5330   10.1550   20.1900 C.ar  501  TTB501      0.0066
     12  C10       15.3580   10.5220   20.8100 C.ar  501  TTB501      0.0002
     13  C11       11.2480   12.6770   21.7330 C.ar  501  TTB501     -0.0043
     14  C12       10.3540   12.5210   20.3140 C.ar  501  TTB501     -0.0007
     15  C13        9.0820   13.0840   20.1840 C.ar  501  TTB501     -0.0046
     16  C14        8.4210   13.8780   21.3220 C.ar  501  TTB501     -0.0268
     17  C15        9.2430   14.0600   22.7340 C.ar  501  TTB501     -0.0268
     18  C16       10.6350   13.4330   22.8430 C.ar  501  TTB501     -0.0049
     19  C17        8.6060   14.8740   23.9650 C.3   501  TTB501      0.0186
     20  C18        8.9390   14.1440   25.3700 C.3   501  TTB501      0.0044
     21  C19        9.1680   16.2910   24.0400 C.3   501  TTB501      0.0044
     22  C20        6.9710   14.9590   23.8680 C.3   501  TTB501      0.0044
     23  C21        6.3590   15.3440   22.3930 C.3   501  TTB501      0.0044
     24  C22        6.9510   14.5020   21.0990 C.3   501  TTB501      0.0186
     25  C23        6.9370   15.5180   19.8180 C.3   501  TTB501      0.0044
     26  C24        5.9330   13.3090   20.8300 C.3   501  TTB501      0.0044
@<TRIPOS>BOND
     1     9     8   ar
     2     6     7   ar
     3     6     5   ar
     4     8    10   ar
     5     8     7    1
     6     7    11   ar
     7     5     4   ar
     8    25    24    1
     9     4     3    1
    10     4    12   ar
    11    15    14   ar
    12    15    16   ar
    13    11    12   ar
    14    14    13   ar
    15     3     2    2
    16    26    24    1
    17    24    16    1
    18    24    23    1
    19    16    17   ar
    20    13     2    1
    21    13    18   ar
    22     2     1    1
    23    23    22    1
    24    17    18   ar
    25    17    19    1
    26    22    19    1
    27    19    21    1
    28    19    20    1
