@<TRIPOS>MOLECULE
4dm8_REA_A_1.pdb
 22 22 0 0 0
SMALL
GASTEIGER

@<TRIPOS>ATOM
      1  C1         9.0650   16.0370   23.6170 C.3   501  REA501      0.0183
      2  C2         7.9160   16.8210   22.8650 C.3   501  REA501      0.0044
      3  C3         7.8730   16.7130   21.3470 C.3   501  REA501      0.0047
      4  C4         7.9210   15.2970   20.8360 C.3   501  REA501      0.0217
      5  C5         9.0400   14.4520   21.4780 C.2   501  REA501     -0.0479
      6  C6         9.5850   14.7620   22.7430 C.2   501  REA501     -0.0307
      7  C7        10.6740   13.9810   23.4220 C.2   501  REA501     -0.0052
      8  C8        11.8430   13.4590   22.9610 C.2   501  REA501     -0.0049
      9  C9        12.7880   12.7130   23.7690 C.2   501  REA501     -0.0258
     10  C10       13.9370   12.2220   23.2310 C.2   501  REA501     -0.0257
     11  C11       14.4380   12.3200   21.8660 C.3   501  REA501      0.0510
     12  C12       15.6380   11.7250   21.6580 C.2   501  REA501     -0.0294
     13  C13       16.4010   11.6770   20.4170 C.2   501  REA501     -0.0367
     14  C14       17.5950   11.0200   20.4780 C.3   501  REA501      0.1358
     15  C15       18.6770   10.7550   19.4940 C.2   501  REA501      0.3689
     16  C16        8.4740   15.5740   24.9700 C.3   501  REA501      0.0043
     17  C17       10.2500   17.0370   23.8830 C.3   501  REA501      0.0043
     18  C18        9.4040   13.2980   20.5280 C.3   501  REA501      0.0260
     19  C19       12.4790   12.4780   25.2600 C.3   501  REA501      0.0307
     20  C20       15.8530   12.3580   19.1520 C.3   501  REA501      0.0266
     21  O1        19.6520   10.1060   19.8760 O.co2 501  REA501     -0.2453
     22  O2        18.6270   11.1690   18.3190 O.co2 501  REA501     -0.2453
@<TRIPOS>BOND
     1    22    15   ar
     2    20    13    1
     3    15    21   ar
     4    15    14    1
     5    13    14    1
     6    13    12    2
     7    18     5    1
     8     4     3    1
     9     4     5    1
    10     3     2    1
    11     5     6    2
    12    12    11    1
    13    11    10    1
    14     6     7    1
    15     6     1    1
    16     2     1    1
    17     8     7    2
    18     8     9    1
    19    10     9    2
    20     1    17    1
    21     1    16    1
    22     9    19    1
