@<TRIPOS>MOLECULE
4dma_0L8_A_1.pdb
 21 23 0 0 0
SMALL
GASTEIGER

@<TRIPOS>ATOM
      1  C1         2.4540   -0.6130   -4.0700 C.ar  701  0L8701      0.0111
      2  C2         3.0440    0.6480   -3.8850 C.ar  701  0L8701      0.0050
      3  C3         4.3620    0.9400   -4.3560 C.ar  701  0L8701      0.0343
      4  C4         5.1810   -0.0730   -5.0690 C.ar  701  0L8701      0.0063
      5  C5         4.5190   -1.3880   -5.2420 C.ar  701  0L8701      0.0034
      6  C6         3.1930   -1.6070   -4.7390 C.ar  701  0L8701     -0.0016
      7  C7         6.6260    0.1810   -5.6020 C.ar  701  0L8701      0.0007
      8  C8         7.7100    0.5000   -4.7160 C.ar  701  0L8701      0.0033
      9  C9         9.0530    0.7060   -5.2040 C.ar  701  0L8701      0.0420
     10  C10        9.3340    0.5880   -6.6110 C.ar  701  0L8701      0.1957
     11  C11        8.2650    0.2760   -7.5120 C.ar  701  0L8701      0.0420
     12  C12        6.9380    0.0790   -7.0110 C.ar  701  0L8701      0.0033
     13  C13        5.0790   -2.5880   -5.8940 C.ar  701  0L8701      0.0408
     14  O14       10.6180    0.7680   -7.0690 O.3   701  0L8701     -0.2866
     15 BR1         4.8380    2.6930   -3.9350 Br    701  0L8701     -0.0490
     16  C16        1.0760   -0.8990   -3.5590 C.3   701  0L8701      0.2086
     17  O17        0.2100   -1.3030   -4.6050 O.3   701  0L8701     -0.2152
     18  C14        6.0900   -3.4400   -5.3280 C.ar  701  0L8701      0.0438
     19  C17        4.7680   -3.1220   -7.0810 C.ar  701  0L8701      0.1797
     20  C15        6.2710   -4.3810   -6.2260 C.ar  701  0L8701      0.1798
     21  O1         5.4830   -4.2340   -7.3260 O.2   701  0L8701     -0.4473
@<TRIPOS>BOND
     1    11    12   ar
     2    11    10   ar
     3    21    19   ar
     4    21    20   ar
     5    19    13   ar
     6    14    10    1
     7    12     7   ar
     8    10     9   ar
     9    20    18   ar
    10    13    18   ar
    11    13     5    1
    12     7     4    1
    13     7     8   ar
    14     5     4   ar
    15     5     6   ar
    16     9     8   ar
    17     4     3   ar
    18     6     1   ar
    19    17    16    1
    20     3    15    1
    21     3     2   ar
    22     1     2   ar
    23     1    16    1
