@<TRIPOS>MOLECULE
4dmg_SAM_A_1.pdb
 27 29 0 0 0
SMALL
GASTEIGER

@<TRIPOS>ATOM
      1  N         58.7190   25.9520   78.9780 N.3   401  SAM401     -0.1208
      2  CA        57.9100   26.4530   77.8730 C.3   401  SAM401      0.1952
      3  C         57.0390   27.6360   78.2770 C.2   401  SAM401      0.3819
      4  O         56.2980   28.1780   77.4440 O.co2 401  SAM401     -0.2441
      5  OXT       57.0490   28.0590   79.4360 O.co2 401  SAM401     -0.2441
      6  CB        57.0250   25.3540   77.2950 C.3   401  SAM401      0.0414
      7  CG        57.7380   24.0320   77.0150 C.3   401  SAM401      0.0503
      8  SD        56.6800   22.9440   76.0250 S.3   401  SAM401     -0.1761
      9  CE        55.8900   21.9840   77.3490 C.3   401  SAM401      0.0590
     10  C5'       57.8770   21.7610   75.3560 C.3   401  SAM401      0.0806
     11  C4'       58.8520   22.3700   74.3470 C.3   401  SAM401      0.1622
     12  O4'       59.8420   21.4220   74.0310 O.3   401  SAM401     -0.3153
     13  C3'       58.2560   22.7460   73.0020 C.3   401  SAM401      0.2168
     14  O3'       58.5700   24.1080   72.8140 O.3   401  SAM401     -0.2175
     15  C2'       58.9970   21.8990   71.9650 C.3   401  SAM401      0.2569
     16  O2'       59.3570   22.6390   70.8340 O.3   401  SAM401     -0.2130
     17  C1'       60.2770   21.5860   72.6910 C.3   401  SAM401      0.3185
     18  N9        60.9230   20.3020   72.4380 N.pl3 401  SAM401     -0.1439
     19  C8        60.3700   19.0740   72.2250 C.3   401  SAM401      0.3377
     20  N7        61.3750   18.1710   72.1510 N.2   401  SAM401     -0.2095
     21  C5        62.5550   18.8110   72.3430 C.2   401  SAM401      0.2526
     22  C6        63.8810   18.3960   72.3730 C.2   401  SAM401      0.4393
     23  N6        64.2280   17.1220   72.1920 N.pl3 401  SAM401      0.2180
     24  N1        64.8520   19.3370   72.6060 N.2   401  SAM401      0.0021
     25  C2        64.5430   20.6640   72.7920 C.3   401  SAM401      0.5254
     26  N3        63.2310   21.0740   72.7490 N.2   401  SAM401     -0.0055
     27  C4        62.2720   20.1520   72.5370 C.2   401  SAM401      0.3518
@<TRIPOS>BOND
     1    16    15    1
     2    15    17    1
     3    15    13    1
     4    20    19    1
     5    20    21    2
     6    23    22    1
     7    19    18    1
     8    21    22    1
     9    21    27    1
    10    22    24    2
    11    18    27    1
    12    18    17    1
    13    27    26    2
    14    24    25    1
    15    17    12    1
    16    26    25    1
    17    14    13    1
    18    13    11    1
    19    12    11    1
    20    11    10    1
    21    10     8    1
    22     8     7    1
    23     8     9    1
    24     7     6    1
    25     6     2    1
    26     4     3   ar
    27     2     3    1
    28     2     1    1
    29     3     5   ar
