@<TRIPOS>MOLECULE
4dmm_NAP_B_1.pdb
 48 52 0 0 0
SMALL
GASTEIGER

@<TRIPOS>ATOM
      1  PA        30.4840   59.4260   10.2080 P.3   301  NAP301      0.2189
      2  O1A       29.7270   59.0830    8.9730 O.2   301  NAP301     -0.5170
      3  O2A       31.2810   60.8600   10.3850 O.3   301  NAP301     -0.4371
      4  O5B       31.8830   58.9660    9.4260 O.3   301  NAP301     -0.3112
      5  C5B       31.9650   57.6750    8.6360 C.3   301  NAP301      0.1813
      6  C4B       33.4230   57.2800    8.1550 C.3   301  NAP301      0.1820
      7  O4B       33.6310   55.8410    7.7030 O.3   301  NAP301     -0.3136
      8  C3B       33.9360   58.1480    7.0020 C.3   301  NAP301      0.2157
      9  O3B       35.4010   58.2180    7.1520 O.3   301  NAP301     -0.2175
     10  C2B       33.6080   57.2740    5.7940 C.3   301  NAP301      0.2314
     11  O2B       34.5690   57.5320    4.7920 O.3   301  NAP301     -0.2630
     12  C1B       33.9120   55.8490    6.2660 C.3   301  NAP301      0.3158
     13  N9A       33.2300   54.8490    5.4650 N.pl3 301  NAP301     -0.1439
     14  C8A       31.9220   54.7900    5.1270 C.3   301  NAP301      0.3377
     15  N7A       31.7340   53.6890    4.3480 N.2   301  NAP301     -0.2095
     16  C5A       32.9050   53.0170    4.2480 C.2   301  NAP301      0.2526
     17  C6A       33.3360   51.8030    3.6170 C.2   301  NAP301      0.4393
     18  N6A       32.4860   51.0400    2.8900 N.pl3 301  NAP301      0.2180
     19  N1A       34.6270   51.4210    3.6940 N.2   301  NAP301      0.0021
     20  C2A       35.5080   52.1750    4.3560 C.3   301  NAP301      0.5254
     21  N3A       35.1250   53.2940    4.9820 N.2   301  NAP301     -0.0055
     22  C4A       33.8460   53.7640    4.9410 C.2   301  NAP301      0.3518
     23  O3        30.8350   58.2050   11.2780 O.3   301  NAP301     -0.2703
     24  PN        31.1870   58.3790   12.8950 P.3   301  NAP301      0.2189
     25  O1N       30.0160   58.9040   13.6750 O.3   301  NAP301     -0.4371
     26  O2N       32.5210   59.0760   12.9630 O.2   301  NAP301     -0.5170
     27  O5D       31.2640   56.7830   13.1040 O.3   301  NAP301     -0.3112
     28  C5D       32.5220   56.0770   13.2490 C.3   301  NAP301      0.1813
     29  C4D       32.2490   54.7420   13.8770 C.3   301  NAP301      0.1799
     30  O4D       31.6820   55.1590   15.1200 O.3   301  NAP301     -0.3327
     31  C3D       31.1270   53.9980   13.0930 C.3   301  NAP301      0.2158
     32  O3D       31.3720   52.6300   13.2620 O.3   301  NAP301     -0.2175
     33  C2D       29.8650   54.3760   13.8610 C.3   301  NAP301      0.2309
     34  O2D       28.7960   53.4210   13.6520 O.3   301  NAP301     -0.2158
     35  C1D       30.4650   54.4060   15.3040 C.3   301  NAP301      0.2263
     36  N1N       29.6090   55.0130   16.3430 N.pl3 301  NAP301     -0.2787
     37  C2N       29.1880   56.3530   16.1810 C.3   301  NAP301      0.1244
     38  C3N       28.3200   56.9050   17.1460 C.2   301  NAP301      0.0544
     39  C7N       27.8930   58.3730   16.9320 C.2   301  NAP301      0.2818
     40  O7N       28.3550   59.0170   15.9660 O.2   301  NAP301     -0.2670
     41  N7N       27.0780   58.8550   17.8780 N.am  301  NAP301     -0.0839
     42  C4N       27.8790   56.1400   18.2580 C.2   301  NAP301      0.0033
     43  C5N       28.3030   54.8120   18.4250 C.2   301  NAP301      0.0157
     44  C6N       29.1760   54.2420   17.4880 C.2   301  NAP301      0.0633
     45  P2B       34.1680   58.5080    3.5230 P.3   301  NAP301      0.5328
     46  O1X       34.3990   59.8560    4.0970 O.3   301  NAP301     -0.1145
     47  O2X       35.2330   58.2050    2.3510 O.2   301  NAP301     -0.2224
     48  O3X       32.7420   58.0820    2.9360 O.3   301  NAP301     -0.1145
@<TRIPOS>BOND
     1    47    45    2
     2    18    17    1
     3    48    45    1
     4    45    46    1
     5    45    11    1
     6    17    19    2
     7    17    16    1
     8    19    20    1
     9    16    15    2
    10    16    22    1
    11    15    14    1
    12    20    21    1
    13    11    10    1
    14    22    21    2
    15    22    13    1
    16    14    13    1
    17    13    12    1
    18    10    12    1
    19    10     8    1
    20    12     7    1
    21     8     9    1
    22     8     6    1
    23     7     6    1
    24     6     5    1
    25     5     4    1
    26     2     1    2
    27     4     1    1
    28     1     3    1
    29     1    23    1
    30    23    24    1
    31    24    26    2
    32    24    27    1
    33    24    25    1
    34    31    32    1
    35    31    33    1
    36    31    29    1
    37    27    28    1
    38    28    29    1
    39    34    33    1
    40    33    35    1
    41    29    30    1
    42    30    35    1
    43    35    36    1
    44    40    39    2
    45    37    36    1
    46    37    38    1
    47    36    44    1
    48    39    38    1
    49    39    41   am
    50    38    42    2
    51    44    43    2
    52    42    43    1
