@<TRIPOS>MOLECULE
4dmn_0L9_A_1.pdb
 25 27 0 0 0
SMALL
GASTEIGER

@<TRIPOS>ATOM
      1 CL1       -39.6380   14.2750   29.4340 Cl    305  0L9305     -0.0822
      2  C19      -41.3710   14.5930   29.0570 C.ar  305  0L9305      0.0577
      3  C20      -42.3820   14.4270   30.0180 C.ar  305  0L9305      0.0114
      4  C21      -43.7500   14.6670   29.7240 C.ar  305  0L9305      0.0009
      5  C18      -41.7250   14.9870   27.7950 C.ar  305  0L9305      0.0114
      6  C17      -43.0840   15.2080   27.4840 C.ar  305  0L9305      0.0009
      7  C10      -44.1010   15.0620   28.4400 C.ar  305  0L9305     -0.0000
      8  C9       -45.4660   15.3440   27.9010 C.2   305  0L9305      0.0031
      9  C8       -46.2820   14.2740   27.5640 C.2   305  0L9305      0.0410
     10  C11      -45.7850   12.8760   27.8690 C.3   305  0L9305      0.2427
     11  O13      -45.8670   11.9890   26.7420 O.3   305  0L9305     -0.3384
     12  C14      -44.6120   11.8980   26.0760 C.3   305  0L9305      0.1752
     13  C12      -46.3800   12.3160   29.1940 C.2   305  0L9305      0.3957
     14  O1       -46.4860   13.0780   30.1830 O.co2 305  0L9305     -0.2426
     15  O2       -46.7190   11.1060   29.3550 O.co2 305  0L9305     -0.2426
     16  C5       -45.8680   16.6700   27.6450 C.2   305  0L9305      0.0261
     17  C6       -45.0470   17.7560   27.9750 C.2   305  0L9305      0.0086
     18  C1       -45.4350   19.1020   27.7510 C.2   305  0L9305      0.0308
     19 BR        -44.2130   20.4840   28.2860 Br    305  0L9305     -0.0493
     20  C2       -46.6880   19.3590   27.1720 C.2   305  0L9305     -0.0120
     21  C3       -47.5370   18.2640   26.8420 C.3   305  0L9305      0.0854
     22  C4       -47.1250   16.9190   27.0910 C.2   305  0L9305      0.1129
     23  N        -47.9150   15.8460   26.7760 N.2   305  0L9305     -0.4104
     24  C7       -47.5280   14.5510   27.0000 C.2   305  0L9305      0.1078
     25  C16      -48.4980   13.4540   26.6240 C.3   305  0L9305      0.0661
@<TRIPOS>BOND
     1    12    11    1
     2    25    24    1
     3    11    10    1
     4    23    24    2
     5    23    22    2
     6    21    22    1
     7    21    20    1
     8    24     9    1
     9    22    16    1
    10    20    18    2
    11     6     5   ar
    12     6     7   ar
    13     9    10    1
    14     9     8    2
    15    16     8    1
    16    16    17    2
    17    18    17    1
    18    18    19    1
    19     5     2   ar
    20    10    13    1
    21     8     7    1
    22     7     4   ar
    23     2     1    1
    24     2     3   ar
    25    13    15   ar
    26    13    14   ar
    27     4     3   ar
