@<TRIPOS>MOLECULE
4dmr_PGD_A_1.pdb
 47 52 0 0 0
SMALL
GASTEIGER

@<TRIPOS>ATOM
      1  PB         3.6420   48.6560   30.6510 P.3   782  PGD782      0.2189
      2  O1B        4.2430   50.1250   31.3120 O.3   782  PGD782     -0.4371
      3  O2B        2.6090   48.7890   29.3480 O.2   782  PGD782     -0.5170
      4  O3B        2.8630   48.0500   31.9550 O.3   782  PGD782     -0.2703
      5  O3A        1.3470   46.8810   33.7190 O.3   782  PGD782     -0.3109
      6  PA         2.3340   46.5450   32.3510 P.3   782  PGD782      0.2189
      7  O1A        1.5370   45.9400   31.0060 O.2   782  PGD782     -0.5170
      8  O2A        3.7150   45.7020   32.8920 O.3   782  PGD782     -0.4371
      9  O5'        4.9750   47.5670   30.4200 O.3   782  PGD782     -0.3112
     10  C5'        5.1160   47.1880   29.0900 C.3   782  PGD782      0.1813
     11  C4'        6.6350   47.0260   28.8760 C.3   782  PGD782      0.1799
     12  O4'        6.8320   46.2960   27.6930 O.3   782  PGD782     -0.3326
     13  C3'        7.2890   48.3920   28.7010 C.3   782  PGD782      0.2158
     14  O3'        8.3710   48.5460   29.5950 O.3   782  PGD782     -0.2175
     15  C2'        7.6520   48.3950   27.2370 C.3   782  PGD782      0.2310
     16  O2'        8.8080   49.1070   26.9420 O.3   782  PGD782     -0.2158
     17  C1'        7.9000   46.9140   26.9840 C.3   782  PGD782      0.2293
     18  N9         7.7460   46.5050   25.5910 N.pl3 782  PGD782     -0.2354
     19  C8         6.9050   47.0190   24.6440 C.3   782  PGD782      0.2246
     20  N7         7.0120   46.3590   23.4510 N.2   782  PGD782     -0.2322
     21  C5         7.9520   45.4290   23.6710 C.2   782  PGD782      0.2182
     22  C6         8.4750   44.4840   22.8070 C.1   782  PGD782      0.2372
     23  O6         8.1220   44.3570   21.6470 O.2   782  PGD782     -0.2069
     24  N1         9.4360   43.6640   23.3030 N.2   782  PGD782     -0.2485
     25  C2         9.8500   43.7600   24.6130 C.1   782  PGD782      0.2531
     26  N2        10.8490   42.8800   25.0870 N.pl3 782  PGD782     -0.0226
     27  N3         9.3500   44.7110   25.4780 N.2   782  PGD782     -0.3074
     28  C4         8.3930   45.5260   24.9480 C.2   782  PGD782      0.2300
     29  C10        0.0630   47.2750   33.3750 C.3   782  PGD782      0.1837
     30  C11       -0.8240   46.8540   34.5710 C.3   782  PGD782      0.1762
     31  O11       -0.6210   47.7760   35.6140 O.3   782  PGD782     -0.3271
     32  C12       -2.2940   46.8970   34.1560 C.2   782  PGD782      0.0473
     33  S12       -2.8310   46.3150   32.5440 S.3   782  PGD782     -0.0526
     34  C13       -3.2290   47.2880   35.0420 C.2   782  PGD782      0.0449
     35  S13       -4.9590   47.2870   34.5740 S.3   782  PGD782     -0.0530
     36  C14       -2.8810   47.6780   36.4440 C.3   782  PGD782      0.1850
     37  N15       -3.2310   49.0960   36.6590 N.2   782  PGD782     -0.2411
     38  C16       -2.9160   49.5670   37.9810 C.2   782  PGD782      0.2467
     39  C17       -3.7240   50.4540   38.7020 C.1   782  PGD782      0.2441
     40  O17       -4.7660   50.9100   38.2610 O.2   782  PGD782     -0.2063
     41  N18       -3.3300   50.8350   39.9510 N.2   782  PGD782     -0.2474
     42  C19       -2.2020   50.3220   40.5070 C.1   782  PGD782      0.2608
     43  N19       -1.8290   50.7390   41.8150 N.pl3 782  PGD782     -0.0220
     44  N20       -1.4190   49.4330   39.8420 N.2   782  PGD782     -0.2682
     45  C21       -1.7620   49.0580   38.5770 C.1   782  PGD782      0.1293
     46  N22       -0.9350   48.1260   37.8920 N.2   782  PGD782     -0.1763
     47  C23       -1.3950   47.3640   36.7250 C.3   782  PGD782      0.2573
@<TRIPOS>BOND
     1    23    22    2
     2    22    24    2
     3    22    21    1
     4    24    25    2
     5    20    21    2
     6    20    19    1
     7    21    28    1
     8    25    26    1
     9    25    27    2
    10    19    18    1
    11    28    27    2
    12    28    18    1
    13    18    17    1
    14    16    15    1
    15    17    15    1
    16    17    12    1
    17    15    13    1
    18    12    11    1
    19    13    11    1
    20    13    14    1
    21    11    10    1
    22    10     9    1
    23     3     1    2
    24     9     1    1
    25     1     2    1
    26     1     4    1
    27     7     6    2
    28     4     6    1
    29     6     8    1
    30     6     5    1
    31    33    32    1
    32    29     5    1
    33    29    30    1
    34    32    30    1
    35    32    34    2
    36    30    31    1
    37    35    34    1
    38    34    36    1
    39    31    47    1
    40    36    37    1
    41    36    47    1
    42    37    38    2
    43    47    46    1
    44    46    45    2
    45    38    45    1
    46    38    39    1
    47    40    39    2
    48    45    44    2
    49    39    41    2
    50    44    42    2
    51    41    42    2
    52    42    43    1
