@<TRIPOS>MOLECULE
4dmw_UDP_A_1.pdb
 25 26 0 0 0
SMALL
GASTEIGER

@<TRIPOS>ATOM
      1  N1         6.3050   27.2570   18.0250 N.am  602  UDP602     -0.1996
      2  C2         4.9930   26.9780   18.3420 C.1   602  UDP602      0.2802
      3  N3         4.3260   25.9570   17.6910 N.2   602  UDP602     -0.2497
      4  C4         4.9710   25.2060   16.7210 C.1   602  UDP602      0.1941
      5  C5         6.3020   25.4940   16.4130 C.3   602  UDP602      0.1579
      6  C6         6.8640   26.6730   16.9140 C.3   602  UDP602      0.1249
      7  O2         4.4270   27.6460   19.2030 O.2   602  UDP602     -0.1922
      8  O4         4.3690   24.2920   16.1480 O.2   602  UDP602     -0.2133
      9  C1'        6.9690   28.3440   18.7520 C.3   602  UDP602      0.2361
     10  C2'        7.4760   27.7480   20.0460 C.3   602  UDP602      0.2316
     11  O2'        7.2660   28.7250   21.0540 O.3   602  UDP602     -0.2157
     12  C3'        8.9460   27.4820   19.7530 C.3   602  UDP602      0.2158
     13  C4'        9.2780   28.6670   18.8430 C.3   602  UDP602      0.1799
     14  O4'        8.0980   28.8410   18.0600 O.3   602  UDP602     -0.3322
     15  O3'        9.7480   27.4380   20.9210 O.3   602  UDP602     -0.2175
     16  C5'       10.4920   28.4290   17.9420 C.3   602  UDP602      0.1813
     17  O5'       10.1870   27.4200   16.9990 O.3   602  UDP602     -0.3111
     18  PA        11.3580   26.5430   16.3130 P.3   602  UDP602      0.2231
     19  O1A       10.7930   25.2890   15.7220 O.2   602  UDP602     -0.5169
     20  O2A       12.3500   26.1990   17.3680 O.3   602  UDP602     -0.4370
     21  O3A       11.9690   27.5560   15.2090 O.3   602  UDP602     -0.2261
     22  PB        13.4880   28.1070   15.0500 P.3   602  UDP602      0.5373
     23  O1B       13.6520   28.7700   13.7290 O.2   602  UDP602     -0.2221
     24  O2B       14.4890   27.0190   15.1070 O.3   602  UDP602     -0.1143
     25  O3B       13.8110   29.0900   16.1170 O.3   602  UDP602     -0.1143
@<TRIPOS>BOND
     1    23    22    2
     2    22    24    1
     3    22    21    1
     4    22    25    1
     5    21    18    1
     6    19    18    2
     7     8     4    2
     8    18    17    1
     9    18    20    1
    10     5     4    1
    11     5     6    1
    12     4     3    2
    13     6     1    1
    14    17    16    1
    15     3     2    2
    16    16    13    1
    17     1     2   am
    18     1     9    1
    19    14     9    1
    20    14    13    1
    21     2     7    2
    22     9    10    1
    23    13    12    1
    24    12    10    1
    25    12    15    1
    26    10    11    1
