@<TRIPOS>MOLECULE
4dmx_0LB_A_1.pdb
 29 32 0 0 0
SMALL
GASTEIGER

@<TRIPOS>ATOM
      1  N29       -1.2610    4.0940   14.9430 N.2   301  0LB301     -0.1496
      2  C28       -1.8020    3.1810   14.1900 C.2   301  0LB301      0.1150
      3  C25       -3.1990    2.8420   14.4730 C.3   301  0LB301      0.1166
      4  C27       -4.2300    3.8040   15.0130 C.3   301  0LB301      0.0279
      5  C26       -3.5930    2.8510   15.9760 C.3   301  0LB301      0.0279
      6  N24       -3.6390    1.6710   13.7410 N.am  301  0LB301     -0.2030
      7  C22       -4.2270    1.5570   12.5140 C.2   301  0LB301      0.2416
      8  O23       -4.4960    2.5520   11.8730 O.2   301  0LB301     -0.2733
      9  C18       -4.5530    0.1810   11.9830 C.3   301  0LB301      0.0868
     10  C16       -3.4780   -0.2200   10.9570 C.3   301  0LB301      0.0096
     11  C20       -5.9460    0.2060   11.3150 C.3   301  0LB301      0.0853
     12  C21       -6.2510   -1.2280   10.8620 C.3   301  0LB301      0.0096
     13  C19       -5.2030   -1.7220    9.8480 C.3   301  0LB301      0.0005
     14  C17       -3.7850   -1.6260   10.3970 C.3   301  0LB301      0.0005
     15  C14       -7.0370    0.7470   12.2340 C.2   301  0LB301      0.2257
     16  O15       -6.8380    0.8070   13.4290 O.2   301  0LB301     -0.2749
     17  N8        -8.2320    1.2180   11.7010 N.am  301  0LB301     -0.2760
     18  C10       -8.7250    0.9790   10.3320 C.3   301  0LB301      0.1148
     19  C12       -9.4310    2.2050    9.7410 C.3   301  0LB301      0.1123
     20  N11      -10.3910    2.9190   10.6230 N.pl3 301  0LB301     -0.3041
     21  C9        -9.9300    2.9640   12.0350 C.3   301  0LB301      0.1123
     22  C7        -9.3350    1.6650   12.5670 C.3   301  0LB301      0.1148
     23  C2       -11.3220    3.8780   10.0630 C.ar  301  0LB301      0.0481
     24  C4       -12.2240    4.6050   10.8510 C.ar  301  0LB301      0.0168
     25  C6       -13.1060    5.5090   10.2700 C.ar  301  0LB301      0.0309
     26  C5       -13.1150    5.7180    8.9020 C.ar  301  0LB301      0.1402
     27  F13      -13.9590    6.5850    8.3350 F     301  0LB301     -0.2042
     28  C3       -12.2300    5.0190    8.1060 C.ar  301  0LB301      0.0309
     29  C1       -11.3480    4.1130    8.6760 C.ar  301  0LB301      0.0168
@<TRIPOS>BOND
     1    28    29   ar
     2    28    26   ar
     3    27    26    1
     4    29    23   ar
     5    26    25   ar
     6    19    18    1
     7    19    20    1
     8    13    14    1
     9    13    12    1
    10    23    20    1
    11    23    24   ar
    12    25    24   ar
    13    18    17    1
    14    14    10    1
    15    20    21    1
    16    12    11    1
    17    10     9    1
    18    11     9    1
    19    11    15    1
    20    17    15   am
    21    17    22    1
    22     8     7    2
    23     9     7    1
    24    21    22    1
    25    15    16    2
    26     7     6   am
    27     6     3    1
    28     2     3    1
    29     2     1    2
    30     3     4    1
    31     3     5    1
    32     4     5    1
