@<TRIPOS>MOLECULE
4dmy_0LC_A_1.pdb
 30 34 0 0 0
SMALL
GASTEIGER

@<TRIPOS>ATOM
      1  O24        9.9130   25.9500   10.2350 O.2   301  0LC301     -0.2733
      2  C23        9.5230   25.4880   11.2960 C.2   301  0LC301      0.2416
      3  N25        8.9110   24.2580   11.4170 N.am  301  0LC301     -0.2030
      4  C26        8.5870   23.3630   10.3150 C.3   301  0LC301      0.1166
      5  C29        7.3000   23.8340    9.6250 C.2   301  0LC301      0.1150
      6  N30        6.6740   23.0060    8.8500 N.2   301  0LC301     -0.1496
      7  C28        9.1120   21.9700   10.2530 C.3   301  0LC301      0.0279
      8  C27        9.7870   23.1040    9.4020 C.3   301  0LC301      0.0279
      9  C18        9.6960   26.2390   12.5930 C.3   301  0LC301      0.0868
     10  C19        8.6790   27.3930   12.5380 C.3   301  0LC301      0.0096
     11  C20        8.7350   28.2060   13.8300 C.3   301  0LC301      0.0005
     12  C22       10.1600   28.7560   14.0510 C.3   301  0LC301      0.0005
     13  C21       11.2540   27.6700   13.9860 C.3   301  0LC301      0.0096
     14  C17       11.1370   26.7710   12.7470 C.3   301  0LC301      0.0853
     15  C15       12.1400   25.6400   12.8690 C.2   301  0LC301      0.2259
     16  O16       11.7940   24.5080   13.1850 O.2   301  0LC301     -0.2749
     17  N10       13.4720   25.9010   12.6200 N.am  301  0LC301     -0.2749
     18  C12       14.3950   24.7510   12.4480 C.3   301  0LC301      0.1011
     19  C13       14.5860   24.4600   10.9490 C.3   301  0LC301      0.0802
     20  C1        15.0670   25.7340   10.3240 C.2   301  0LC301      0.1084
     21  C11       13.9710   27.2030   12.0970 C.3   301  0LC301      0.1224
     22  C2        14.7870   26.9750   10.8540 C.2   301  0LC301      0.0257
     23  C5        15.3950   27.8880   10.0430 C.ar  301  0LC301      0.0316
     24  C7        15.4390   29.2770   10.0940 C.ar  301  0LC301      0.0320
     25  C6        16.1510   29.9490    9.1000 C.ar  301  0LC301      0.1403
     26  F14       16.2550   31.2910    9.1040 F     301  0LC301     -0.2042
     27  C8        16.7830   29.2230    8.0950 C.ar  301  0LC301      0.0323
     28  C9        16.7290   27.8270    8.0500 C.ar  301  0LC301      0.0343
     29  C4        16.0150   27.1720    9.0480 C.ar  301  0LC301      0.1309
     30  N3        15.8310   25.8500    9.2130 N.2   301  0LC301     -0.4064
@<TRIPOS>BOND
     1    28    27   ar
     2    28    29   ar
     3    27    25   ar
     4     6     5    2
     5    29    30    2
     6    29    23   ar
     7    25    26    1
     8    25    24   ar
     9    30    20    2
    10     8     7    1
    11     8     4    1
    12     5     4    1
    13    23    24   ar
    14    23    22    2
    15     1     2    2
    16     7     4    1
    17     4     3    1
    18    20    22    1
    19    20    19    1
    20    22    21    1
    21    19    18    1
    22     2     3   am
    23     2     9    1
    24    21    17    1
    25    18    17    1
    26    10     9    1
    27    10    11    1
    28     9    14    1
    29    17    15   am
    30    14    15    1
    31    14    13    1
    32    15    16    2
    33    11    12    1
    34    13    12    1
