@<TRIPOS>MOLECULE
4dn0_C2E_A_1.pdb
 46 52 0 0 0
SMALL
GASTEIGER

@<TRIPOS>ATOM
      1  P1         7.2170    6.4960   -8.2110 P.3   501  C2E501      0.2141
      2  O2P        5.9200    7.0830   -7.7960 O.3   501  C2E501     -0.4373
      3  O1P        7.8900    7.5550   -9.0700 O.2   501  C2E501     -0.5172
      4  O5'        8.2700    6.2540   -7.0580 O.3   501  C2E501     -0.3114
      5  C5'        9.4280    5.6120   -7.3080 C.3   501  C2E501      0.1812
      6  C4'       10.1050    5.0990   -6.1480 C.3   501  C2E501      0.1771
      7  O4'       10.0840    6.0770   -5.1570 O.3   501  C2E501     -0.3327
      8  C3'        9.3220    3.9570   -5.5380 C.3   501  C2E501      0.1857
      9  O3'        9.7050    2.7050   -6.0630 O.3   501  C2E501     -0.3112
     10  C2'        9.6340    4.0140   -4.2030 C.3   501  C2E501      0.2282
     11  O2'       10.8500    3.3100   -3.8860 O.3   501  C2E501     -0.2159
     12  C1'        9.8140    5.4250   -3.9410 C.3   501  C2E501      0.2292
     13  N9         8.6110    6.0240   -3.4000 N.pl3 501  C2E501     -0.2354
     14  C8         7.7420    6.8230   -4.0300 C.3   501  C2E501      0.2246
     15  N7         6.7560    7.1510   -3.1740 N.2   501  C2E501     -0.2322
     16  C5         7.0070    6.5510   -1.9930 C.2   501  C2E501      0.2182
     17  C6         6.3750    6.5140   -0.7530 C.1   501  C2E501      0.2372
     18  O6         5.2420    7.1910   -0.5420 O.2   501  C2E501     -0.2069
     19  N1         6.9190    5.7990    0.2330 N.2   501  C2E501     -0.2485
     20  C2         8.0530    5.1220    0.0390 C.1   501  C2E501      0.2531
     21  N2         8.5900    4.3700    1.1500 N.pl3 501  C2E501     -0.0226
     22  N3         8.7030    5.1150   -1.1350 N.2   501  C2E501     -0.3074
     23  C4         8.1830    5.8260   -2.1480 C.2   501  C2E501      0.2300
     24  P11        8.5960    1.5680   -6.0800 P.3   501  C2E501      0.2141
     25  O21        8.1830    1.0590   -4.7230 O.3   501  C2E501     -0.4373
     26  O11        9.2760    0.4260   -6.7130 O.2   501  C2E501     -0.5172
     27  O5A        7.3760    1.9690   -6.9870 O.3   501  C2E501     -0.3114
     28  C5A        7.6460    2.3050   -8.3540 C.3   501  C2E501      0.1812
     29  C4A        6.6070    2.9200   -9.1050 C.3   501  C2E501      0.1771
     30  O4A        5.3500    2.1290   -8.9880 O.3   501  C2E501     -0.3327
     31  C3A        6.2640    4.2330   -8.5330 C.3   501  C2E501      0.1857
     32  O3A        7.0380    5.2320   -9.0670 O.3   501  C2E501     -0.3112
     33  C2A        4.8730    4.4120   -8.9550 C.3   501  C2E501      0.2282
     34  O2A        4.8240    4.8700  -10.2500 O.3   501  C2E501     -0.2159
     35  C1A        4.2980    3.0430   -8.8630 C.3   501  C2E501      0.2292
     36  N91        3.5650    2.7910   -7.5780 N.pl3 501  C2E501     -0.2354
     37  C81        3.9710    2.0240   -6.5690 C.3   501  C2E501      0.2246
     38  N71        3.0450    2.0690   -5.5810 N.2   501  C2E501     -0.2322
     39  C51        2.0560    2.8750   -5.9690 C.2   501  C2E501      0.2182
     40  C61        0.8610    3.3000   -5.4010 C.1   501  C2E501      0.2372
     41  O61        0.4670    2.8400   -4.0900 O.2   501  C2E501     -0.2069
     42  N11        0.0830    4.1460   -6.0890 N.2   501  C2E501     -0.2485
     43  C21        0.4330    4.5740   -7.3070 C.1   501  C2E501      0.2531
     44  N21       -0.3890    5.4450   -8.0010 N.pl3 501  C2E501     -0.0226
     45  N31        1.5730    4.1730   -7.8770 N.2   501  C2E501     -0.3074
     46  C41        2.3890    3.3370   -7.2380 C.2   501  C2E501      0.2300
@<TRIPOS>BOND
     1    34    33    1
     2    29    30    1
     3    29    31    1
     4    29    28    1
     5     3     1    2
     6    32    31    1
     7    32     1    1
     8    30    35    1
     9    33    35    1
    10    33    31    1
    11    35    36    1
    12    28    27    1
    13     1     2    1
    14     1     4    1
    15    44    43    1
    16    45    43    2
    17    45    46    2
    18    36    46    1
    19    36    37    1
    20     5     4    1
    21     5     6    1
    22    43    42    2
    23    46    39    1
    24    27    24    1
    25    26    24    2
    26    37    38    1
    27     6     8    1
    28     6     7    1
    29    42    40    2
    30    24     9    1
    31    24    25    1
    32     9     8    1
    33    39    38    2
    34    39    40    1
    35     8    10    1
    36    40    41    2
    37     7    12    1
    38    10    12    1
    39    10    11    1
    40    14    13    1
    41    14    15    1
    42    12    13    1
    43    13    23    1
    44    15    16    2
    45    23    16    1
    46    23    22    2
    47    16    17    1
    48    22    20    2
    49    17    18    2
    50    17    19    2
    51    20    19    2
    52    20    21    1
