@<TRIPOS>MOLECULE
4dn2_FMN_A_1.pdb
 31 33 0 0 0
SMALL
GASTEIGER

@<TRIPOS>ATOM
      1  N1        32.2650   10.6570   64.2040 N.2   300  FMN300     -0.2890
      2  C2        33.0520   10.9180   63.1200 C.1   300  FMN300      0.3669
      3  O2        33.1320   10.0200   62.2560 O.2   300  FMN300     -0.1744
      4  N3        33.7200   12.0910   62.9450 N.2   300  FMN300     -0.2300
      5  C4        33.6350   13.0820   63.8470 C.1   300  FMN300      0.2513
      6  O4        34.2310   14.1770   63.7160 O.2   300  FMN300     -0.2057
      7  C4A       32.8060   12.8670   65.0470 C.2   300  FMN300      0.2700
      8  N5        32.7060   13.8090   65.9950 N.2   300  FMN300     -0.3878
      9  C5A       31.9270   13.6220   67.0920 C.2   300  FMN300      0.1320
     10  C6        31.8210   14.6510   68.0270 C.2   300  FMN300      0.0250
     11  C7        31.0150   14.5100   69.1500 C.2   300  FMN300     -0.0238
     12  C7M       30.9230   15.6440   70.1500 C.3   300  FMN300      0.0308
     13  C8        30.2620   13.2490   69.3550 C.2   300  FMN300     -0.0280
     14  C8M       29.3750   13.1130   70.5830 C.3   300  FMN300      0.0304
     15  C9        30.3560   12.2060   68.4250 C.2   300  FMN300     -0.0041
     16  C9A       31.1650   12.3480   67.2830 C.3   300  FMN300      0.1497
     17  N10       31.2830   11.3360   66.2980 N.pl3 300  FMN300     -0.2691
     18  C10       32.0980   11.5730   65.1740 C.2   300  FMN300      0.2416
     19  C1'       30.5740   10.0620   66.4180 C.3   300  FMN300      0.1294
     20  C2'       31.2330    9.1850   67.4840 C.3   300  FMN300      0.2044
     21  O2'       32.4280    8.6560   66.9190 O.3   300  FMN300     -0.2185
     22  C3'       30.2300    8.1100   67.8770 C.3   300  FMN300      0.2164
     23  O3'       29.1080    8.7760   68.4840 O.3   300  FMN300     -0.2175
     24  C4'       30.7960    7.0820   68.8570 C.3   300  FMN300      0.2147
     25  O4'       31.8650    6.3220   68.2550 O.3   300  FMN300     -0.2176
     26  C5'       29.7240    6.1270   69.3660 C.3   300  FMN300      0.1892
     27  O5'       29.1080    5.4360   68.2660 O.3   300  FMN300     -0.2674
     28  P         27.5080    5.4840   68.0710 P.3   300  FMN300      0.5327
     29  O1P       27.1190    6.9420   67.9340 O.3   300  FMN300     -0.1145
     30  O2P       27.2520    4.6620   66.8260 O.2   300  FMN300     -0.2224
     31  O3P       26.9260    4.8700   69.3190 O.3   300  FMN300     -0.1145
@<TRIPOS>BOND
     1     3     2    2
     2     4     2    2
     3     4     5    2
     4     2     1    2
     5     6     5    2
     6     5     7    1
     7     1    18    2
     8     7    18    1
     9     7     8    2
    10    18    17    1
    11     8     9    2
    12    17    19    1
    13    17    16    1
    14    19    20    1
    15    30    28    2
    16    21    20    1
    17     9    16    1
    18     9    10    1
    19    16    15    1
    20    20    22    1
    21    22    23    1
    22    22    24    1
    23    29    28    1
    24    10    11    2
    25    28    27    1
    26    28    31    1
    27    25    24    1
    28    27    26    1
    29    15    13    2
    30    24    26    1
    31    11    13    1
    32    11    12    1
    33    13    14    1
