@<TRIPOS>MOLECULE
4dn5_AGS_A_1.pdb
 31 33 0 0 0
SMALL
GASTEIGER

@<TRIPOS>ATOM
      1  PG       -15.0150   30.7200   -6.2090 P.3   1008  AGS1008     0.4340
      2  S1G      -15.7510   29.3760   -5.0110 S.3   1008  AGS1008     0.0416
      3  O2G      -15.0120   30.0720   -7.5800 O.2   1008  AGS1008    -0.2423
      4  O3G      -15.8570   31.9570   -5.9450 O.3   1008  AGS1008    -0.1305
      5  PB       -12.2570   31.0870   -6.8890 P.3   1008  AGS1008     0.2262
      6  O1B      -12.5150   32.0860   -7.9800 O.2   1008  AGS1008    -0.5168
      7  O2B      -12.0370   29.6490   -7.2840 O.3   1008  AGS1008    -0.4369
      8  O3B      -13.4860   31.1320   -5.8360 O.3   1008  AGS1008    -0.2405
      9  PA       -10.1170   30.7100   -5.0030 P.3   1008  AGS1008     0.2189
     10  O1A      -10.4390   29.2500   -5.1760 O.2   1008  AGS1008    -0.5170
     11  O2A      -10.2370   31.3380   -3.6350 O.3   1008  AGS1008    -0.4371
     12  O3A      -10.9800   31.6060   -6.0440 O.3   1008  AGS1008    -0.2701
     13  O5'       -8.5990   30.9460   -5.5010 O.3   1008  AGS1008    -0.3112
     14  C5'       -8.1640   30.4720   -6.7750 C.3   1008  AGS1008     0.1813
     15  C4'       -6.9500   29.5490   -6.6550 C.3   1008  AGS1008     0.1821
     16  O4'       -5.8140   30.2600   -6.1610 O.3   1008  AGS1008    -0.3135
     17  C3'       -7.1540   28.3790   -5.6990 C.3   1008  AGS1008     0.2184
     18  O3'       -7.6700   27.2330   -6.3740 O.3   1008  AGS1008    -0.2174
     19  C2'       -5.7680   28.1080   -5.1540 C.3   1008  AGS1008     0.2570
     20  O2'       -5.1000   27.1530   -5.9830 O.3   1008  AGS1008    -0.2130
     21  C1'       -5.0580   29.4500   -5.2490 C.3   1008  AGS1008     0.3186
     22  N9        -5.0350   30.0970   -3.9130 N.pl3 1008  AGS1008    -0.1439
     23  C8        -6.0810   30.7040   -3.3240 C.3   1008  AGS1008     0.3377
     24  N7        -5.7030   31.1830   -2.1200 N.2   1008  AGS1008    -0.2095
     25  C5        -4.4030   30.8750   -1.9540 C.2   1008  AGS1008     0.2526
     26  C6        -3.4950   31.1100   -0.9260 C.2   1008  AGS1008     0.4393
     27  N6        -3.8900   31.7760    0.1910 N.pl3 1008  AGS1008     0.2180
     28  N1        -2.2210   30.6600   -1.0500 N.2   1008  AGS1008     0.0021
     29  C2        -1.8330   29.9970   -2.1540 C.3   1008  AGS1008     0.5254
     30  N3        -2.6910   29.7600   -3.1620 N.2   1008  AGS1008    -0.0055
     31  C4        -3.9820   30.1880   -3.0870 C.2   1008  AGS1008     0.3518
@<TRIPOS>BOND
     1     6     5    2
     2     3     1    2
     3     7     5    1
     4     5    12    1
     5     5     8    1
     6    14    15    1
     7    14    13    1
     8    15    16    1
     9    15    17    1
    10    18    17    1
    11     1     4    1
    12     1     8    1
    13     1     2    1
    14    16    21    1
    15    12     9    1
    16    20    19    1
    17    17    19    1
    18    13     9    1
    19    21    19    1
    20    21    22    1
    21    10     9    2
    22     9    11    1
    23    22    23    1
    24    22    31    1
    25    23    24    1
    26    30    31    2
    27    30    29    1
    28    31    25    1
    29    29    28    1
    30    24    25    2
    31    25    26    1
    32    28    26    2
    33    26    27    1
