@<TRIPOS>MOLECULE
4dn8_BMA_A_1.pdb
 12 12 0 0 0
SMALL
GASTEIGER

@<TRIPOS>ATOM
      1  C1        25.1000   44.5310   52.9560 C.3   403  BMA403      0.3024
      2  C2        26.2510   45.0690   52.1190 C.3   403  BMA403      0.2434
      3  C3        26.6280   44.0930   51.0150 C.3   403  BMA403      0.2199
      4  C4        26.7410   42.6660   51.5380 C.3   403  BMA403      0.2144
      5  C5        25.6080   42.3070   52.4900 C.3   403  BMA403      0.1836
      6  C6        25.8650   40.9540   53.1430 C.3   403  BMA403      0.2142
      7  O1        24.8210   45.4330   54.0020 O.3   403  BMA403     -0.1869
      8  O2        27.3710   45.2810   52.9480 O.3   403  BMA403     -0.2148
      9  O3        27.8740   44.4950   50.4920 O.3   403  BMA403     -0.2174
     10  O4        26.7050   41.7750   50.4500 O.3   403  BMA403     -0.2176
     11  O5        25.4830   43.2870   53.4960 O.3   403  BMA403     -0.3236
     12  O6        24.7180   40.5470   53.8560 O.3   403  BMA403     -0.2176
@<TRIPOS>BOND
     1    10     4    1
     2     9     3    1
     3     3     4    1
     4     3     2    1
     5     4     5    1
     6     2     8    1
     7     2     1    1
     8     5     6    1
     9     5    11    1
    10     1    11    1
    11     1     7    1
    12     6    12    1
