@<TRIPOS>MOLECULE
4dne_DTB_A_1.pdb
 15 15 0 0 0
SMALL
GASTEIGER

@<TRIPOS>ATOM
      1  CN        -4.2280   35.1410   11.8070 C.1   201  DTB201      0.2386
      2  O         -3.7480   36.2160   12.4080 O.2   201  DTB201     -0.2023
      3  N2        -5.1320   34.3800   12.3760 N.2   201  DTB201     -0.1869
      4  CR        -5.7040   33.4800   11.3950 C.3   201  DTB201      0.1393
      5  CS        -4.6210   33.5210   10.2990 C.3   201  DTB201      0.1394
      6  N1        -3.8950   34.7350   10.6530 N.2   201  DTB201     -0.1869
      7  CT        -3.6660   32.3190   10.2820 C.3   201  DTB201      0.0293
      8  CE        -5.9010   32.1290   12.1000 C.3   201  DTB201      0.0272
      9  CD        -7.0390   32.1820   13.1340 C.3   201  DTB201      0.0021
     10  CG        -7.5710   30.7870   13.4410 C.3   201  DTB201      0.0006
     11  CB        -8.3420   30.7510   14.7630 C.3   201  DTB201      0.0118
     12  CA        -8.8310   29.3410   15.1280 C.3   201  DTB201      0.1141
     13  C         -9.7970   28.7620   14.1150 C.2   201  DTB201      0.3649
     14  OI1      -10.7080   29.4860   13.6660 O.co2 201  DTB201     -0.2457
     15  OI2       -9.6250   27.5760   13.7520 O.co2 201  DTB201     -0.2457
@<TRIPOS>BOND
     1     7     5    1
     2     5     6    1
     3     5     4    1
     4     6     1    2
     5     4     8    1
     6     4     3    1
     7     1     3    2
     8     1     2    2
     9     8     9    1
    10     9    10    1
    11    10    11    1
    12    14    13   ar
    13    15    13   ar
    14    13    12    1
    15    11    12    1
