@<TRIPOS>MOLECULE
4dnj_ANN_A_1.pdb
 11 11 0 0 0
SMALL
GASTEIGER

@<TRIPOS>ATOM
      1  C8        12.8350    0.4870   12.1960 C.3   502  ANN502      0.2525
      2  O3        12.2560    0.7570   10.9160 O.3   502  ANN502     -0.4714
      3  C5        12.4300   -0.0980    9.8490 C.ar  502  ANN502      0.1387
      4  C6        11.9270    0.2870    8.6060 C.ar  502  ANN502      0.0371
      5  C7        12.1570   -0.5600    7.5160 C.ar  502  ANN502      0.0097
      6  C2        12.8480   -1.7650    7.7100 C.ar  502  ANN502      0.0800
      7  C3        13.3650   -2.1270    8.9510 C.ar  502  ANN502      0.0097
      8  C4        13.1520   -1.2530   10.0080 C.ar  502  ANN502      0.0371
      9  C1        13.0810   -2.7220    6.5880 C.2   502  ANN502      0.3878
     10  O1        13.5130   -3.8970    6.8140 O.co2 502  ANN502     -0.2406
     11  O2        12.7860   -2.2910    5.4670 O.co2 502  ANN502     -0.2406
@<TRIPOS>BOND
     1    11     9   ar
     2     9    10   ar
     3     9     6    1
     4     5     6   ar
     5     5     4   ar
     6     6     7   ar
     7     4     3   ar
     8     7     8   ar
     9     3     8   ar
    10     3     2    1
    11     2     1    1
