@<TRIPOS>MOLECULE
4dnj_HEM_A_1.pdb
 43 50 0 0 0
SMALL
GASTEIGER

@<TRIPOS>ATOM
      1  CHA       14.3610   -2.7230   13.9190 C.2   501  HEM501      0.0000
      2  CHB       14.1920    1.6600   15.9670 C.2   501  HEM501      0.0000
      3  CHC       18.5290    2.6850   13.8090 C.2   501  HEM501      0.0000
      4  CHD       17.9070   -1.1460   10.9170 C.2   501  HEM501      0.0000
      5  C1A       13.9690   -1.6430   14.7040 C.2   501  HEM501      0.0000
      6  C2A       12.8030   -1.6300   15.6230 C.2   501  HEM501      0.0000
      7  C3A       12.7730   -0.3840   16.1490 C.2   501  HEM501      0.0000
      8  C4A       13.8810    0.3640   15.6280 C.2   501  HEM501      0.0000
      9  CMA       11.7460    0.2180   17.1530 C.3   501  HEM501      0.0000
     10  CAA       11.8250   -2.8000   15.9410 C.3   501  HEM501      0.0000
     11  CBA       10.8870   -3.1040   14.7390 C.3   501  HEM501      0.0000
     12  CGA        9.7770   -4.0470   15.1720 C.2   501  HEM501      0.0000
     13  O1A        9.8320   -4.5110   16.3260 O.co2 501  HEM501      0.0000
     14  O2A        8.8780   -4.3290   14.3390 O.co2 501  HEM501      0.0000
     15  C1B       15.3900    2.3190   15.6010 C.ar  501  HEM501      0.0000
     16  C2B       15.8310    3.5870   16.0820 C.ar  501  HEM501      0.0000
     17  C3B       17.0650    3.8970   15.5080 C.ar  501  HEM501      0.0000
     18  C4B       17.3710    2.7960   14.6010 C.ar  501  HEM501      0.0000
     19  CMB       15.0670    4.4180   17.1430 C.3   501  HEM501      0.0000
     20  CAB       17.9700    5.1560   15.7380 C.3   501  HEM501      0.0000
     21  CBB       18.0780    5.8820   16.9080 C.3   501  HEM501      0.0000
     22  C1C       18.7610    1.7490   12.8280 C.2   501  HEM501      0.0000
     23  C2C       19.9080    1.6570   11.9390 C.2   501  HEM501      0.0000
     24  C3C       19.7250    0.5740   11.1610 C.2   501  HEM501      0.0000
     25  C4C       18.4900   -0.0340   11.5180 C.2   501  HEM501      0.0000
     26  CMC       21.1110    2.6430   12.0310 C.3   501  HEM501      0.0000
     27  CAC       20.6340   -0.0070   10.0440 C.2   501  HEM501      0.0000
     28  CBC       21.8970    0.3360    9.8710 C.2   501  HEM501      0.0000
     29  C1D       16.8490   -1.8980   11.4170 C.ar  501  HEM501      0.0000
     30  C2D       16.3490   -3.1100   10.8030 C.ar  501  HEM501      0.0000
     31  C3D       15.3300   -3.6540   11.7390 C.ar  501  HEM501      0.0000
     32  C4D       15.2030   -2.6720   12.8160 C.ar  501  HEM501      0.0000
     33  CMD       16.8060   -3.8460    9.5240 C.3   501  HEM501      0.0000
     34  CAD       14.4950   -4.9370   11.5250 C.3   501  HEM501      0.0000
     35  CBD       15.1750   -5.9030   12.5490 C.3   501  HEM501      0.0000
     36  CGD       14.3380   -7.1740   12.5950 C.2   501  HEM501      0.0000
     37  O1D       13.1980   -7.1410   12.1720 O.co2 501  HEM501      0.0000
     38  O2D       14.7840   -8.1930   13.0950 O.co2 501  HEM501      0.0000
     39  NA        14.5910   -0.4510   14.7830 N.2   501  HEM501      0.0000
     40  NB        16.3280    1.8710   14.6960 N.ar  501  HEM501      0.0000
     41  NC        17.9320    0.6780   12.5990 N.2   501  HEM501      0.0000
     42  ND        16.1360   -1.6620   12.6160 N.ar  501  HEM501      0.0000
     43 FE         16.3740    0.0330   13.7890 Fe    501  HEM501      0.0000
@<TRIPOS>BOND
     1    33    30    1
     2    28    27    2
     3    27    24    1
     4    30    29   ar
     5    30    31   ar
     6     4    29    2
     7     4    25    1
     8    24    25    1
     9    24    23    2
    10    29    42   ar
    11    25    41    2
    12    34    31    1
    13    34    35    1
    14    31    32   ar
    15    23    26    1
    16    23    22    1
    17    37    36   ar
    18    35    36    1
    19    36    38   ar
    20    41    22    1
    21    41    43    1
    22    42    32   ar
    23    42    43    1
    24    32     1    2
    25    22     3    2
    26    43    40    1
    27    43    39    1
    28     3    18    1
    29     1     5    1
    30    14    12   ar
    31    18    40   ar
    32    18    17   ar
    33    40    15   ar
    34     5    39    2
    35     5     6    1
    36    11    12    1
    37    11    10    1
    38    39     8    1
    39    12    13   ar
    40    17    20    1
    41    17    16   ar
    42    15     2    1
    43    15    16   ar
    44     6    10    1
    45     6     7    2
    46     8     2    2
    47     8     7    1
    48    20    21    1
    49    16    19    1
    50     7     9    1
