@<TRIPOS>MOLECULE
4dnm_EPE_A_1.pdb
 15 15 0 0 0
SMALL
GASTEIGER

@<TRIPOS>ATOM
      1  N1       -10.8000   40.5970    1.6430 N.3   405  EPE405     -0.2689
      2  C2       -12.0640   41.1960    1.1490 C.3   405  EPE405      0.0897
      3  C3       -12.6350   40.3370    0.0090 C.3   405  EPE405      0.0897
      4  N4       -11.6710   40.1890   -1.0810 N.3   405  EPE405     -0.2681
      5  C5       -10.3350   40.6330   -0.7880 C.3   405  EPE405      0.0897
      6  C6        -9.9360   40.0730    0.5680 C.3   405  EPE405      0.0897
      7  C7       -11.8320   39.1920   -2.1330 C.3   405  EPE405      0.1081
      8  C8       -10.5700   39.0780   -2.9970 C.3   405  EPE405      0.1993
      9  O8       -10.4000   37.7680   -3.5020 O.3   405  EPE405     -0.2189
     10  C9        -9.9940   41.4420    2.5560 C.3   405  EPE405      0.0939
     11  C10       -9.6580   42.8160    1.9640 C.3   405  EPE405      0.1225
     12  S         -8.1770   42.9330    0.9330 S.3   405  EPE405     -0.1946
     13  O1S       -7.3520   41.7330    0.9520 O.3   405  EPE405     -0.3074
     14  O2S       -8.7340   43.1440   -0.4070 O.3   405  EPE405     -0.3074
     15  O3S       -7.2550   44.0180    1.2580 O.3   405  EPE405     -0.3074
@<TRIPOS>BOND
     1     9     8    1
     2     8     7    1
     3     7     4    1
     4     4     5    1
     5     4     3    1
     6     5     6    1
     7    14    12    1
     8     3     2    1
     9     6     1    1
    10    12    13    1
    11    12    15    1
    12    12    11    1
    13     2     1    1
    14     1    10    1
    15    11    10    1
