@<TRIPOS>MOLECULE
4dnz_HEM_A_1.pdb
 43 50 0 0 0
SMALL
GASTEIGER

@<TRIPOS>ATOM
      1  CHA       -8.3810  -13.8170   24.0350 C.2   501  HEM501      0.0000
      2  CHB      -11.0240  -15.0950   20.1460 C.2   501  HEM501      0.0000
      3  CHC       -9.7580  -11.0030   17.9280 C.2   501  HEM501      0.0000
      4  CHD       -6.3630  -10.3840   21.2950 C.2   501  HEM501      0.0000
      5  C1A       -9.2700  -14.5020   23.2320 C.ar  501  HEM501      0.0000
      6  C2A      -10.0550  -15.6910   23.5750 C.ar  501  HEM501      0.0000
      7  C3A      -10.7790  -16.0310   22.4800 C.ar  501  HEM501      0.0000
      8  C4A      -10.4840  -15.0800   21.4210 C.ar  501  HEM501      0.0000
      9  CMA      -11.7450  -17.2330   22.3290 C.3   501  HEM501      0.0000
     10  CAA      -10.0490  -16.3930   24.9520 C.3   501  HEM501      0.0000
     11  CBA       -8.6970  -17.0340   25.2730 C.3   501  HEM501      0.0000
     12  CGA       -8.7710  -17.9260   26.4910 C.2   501  HEM501      0.0000
     13  O1A       -7.7430  -18.5290   26.8440 O.co2 501  HEM501      0.0000
     14  O2A       -9.8490  -18.0490   27.1360 O.co2 501  HEM501      0.0000
     15  C1B      -10.9650  -14.0610   19.2370 C.2   501  HEM501      0.0000
     16  C2B      -11.7770  -13.9260   18.0410 C.2   501  HEM501      0.0000
     17  C3B      -11.4300  -12.7850   17.4190 C.2   501  HEM501      0.0000
     18  C4B      -10.3740  -12.1850   18.2070 C.2   501  HEM501      0.0000
     19  CMB      -12.8420  -14.9470   17.6170 C.3   501  HEM501      0.0000
     20  CAB      -11.9750  -12.1680   16.1170 C.2   501  HEM501      0.0000
     21  CBB      -13.0920  -12.5590   15.5090 C.2   501  HEM501      0.0000
     22  C1C       -8.7510  -10.4350   18.6740 C.ar  501  HEM501      0.0000
     23  C2C       -8.1790   -9.1110   18.4770 C.ar  501  HEM501      0.0000
     24  C3C       -7.2240   -8.9670   19.4290 C.ar  501  HEM501      0.0000
     25  C4C       -7.2110  -10.1600   20.2430 C.ar  501  HEM501      0.0000
     26  CMC       -8.5780   -8.1160   17.3550 C.3   501  HEM501      0.0000
     27  CAC       -6.2600   -7.8020   19.7230 C.2   501  HEM501      0.0000
     28  CBC       -6.2140   -6.7310   18.9330 C.2   501  HEM501      0.0000
     29  C1D       -6.5520  -11.2400   22.3400 C.2   501  HEM501      0.0000
     30  C2D       -5.6490  -11.3350   23.4420 C.2   501  HEM501      0.0000
     31  C3D       -6.2530  -12.4160   24.3150 C.2   501  HEM501      0.0000
     32  C4D       -7.4700  -12.8640   23.6250 C.2   501  HEM501      0.0000
     33  CMD       -4.3690  -10.4910   23.6200 C.3   501  HEM501      0.0000
     34  CAD       -5.7290  -12.8980   25.6770 C.3   501  HEM501      0.0000
     35  CBD       -6.6930  -12.2840   26.6770 C.3   501  HEM501      0.0000
     36  CGD       -6.3870  -12.7510   28.0690 C.2   501  HEM501      0.0000
     37  O1D       -6.7530  -12.0010   29.0030 O.co2 501  HEM501      0.0000
     38  O2D       -5.8050  -13.8500   28.2440 O.co2 501  HEM501      0.0000
     39  NA        -9.5690  -14.1460   21.9220 N.ar  501  HEM501      0.0000
     40  NB       -10.1310  -12.9660   19.3030 N.2   501  HEM501      0.0000
     41  NC        -8.1660  -11.0170   19.7920 N.ar  501  HEM501      0.0000
     42  ND        -7.6060  -12.1380   22.4650 N.2   501  HEM501      0.0000
     43 FE         -8.8770  -12.5470   20.9100 Fe    501  HEM501      0.0000
@<TRIPOS>BOND
     1    21    20    2
     2    20    17    1
     3    26    23    1
     4    17    16    2
     5    17    18    1
     6    19    16    1
     7     3    18    2
     8     3    22    1
     9    16    15    1
    10    18    40    1
    11    23    22   ar
    12    23    24   ar
    13    22    41   ar
    14    28    27    2
    15    15    40    2
    16    15     2    1
    17    40    43    1
    18    24    27    1
    19    24    25   ar
    20    41    25   ar
    21    41    43    1
    22     2     8    2
    23    25     4    1
    24    43    39    1
    25    43    42    1
    26     4    29    2
    27     8    39   ar
    28     8     7   ar
    29    39     5   ar
    30     9     7    1
    31    29    42    1
    32    29    30    1
    33    42    32    2
    34     7     6   ar
    35     5     6   ar
    36     5     1    2
    37    30    33    1
    38    30    31    2
    39     6    10    1
    40    32     1    1
    41    32    31    1
    42    31    34    1
    43    10    11    1
    44    11    12    1
    45    34    35    1
    46    12    13   ar
    47    12    14   ar
    48    35    36    1
    49    36    38   ar
    50    36    37   ar
