@<TRIPOS>MOLECULE
4do0_DZA_A_1.pdb
 11 10 0 0 0
SMALL
GASTEIGER

@<TRIPOS>ATOM
      1  O10      -12.1070  -20.3480   25.3220 O.co2 501  DZA501     -0.2456
      2  C09      -12.7600  -20.4680   24.2310 C.2   501  DZA501      0.3654
      3  O11      -12.2300  -20.5000   23.0750 O.co2 501  DZA501     -0.2456
      4  C08      -14.3100  -20.6070   24.2950 C.3   501  DZA501      0.1237
      5  C07      -14.8220  -20.0530   25.6730 C.3   501  DZA501      0.1000
      6  C02      -16.2580  -19.4170   25.6310 C.2   501  DZA501      0.2570
      7  O01      -16.4510  -18.2210   25.3480 O.2   501  DZA501     -0.2719
      8  N03      -17.2440  -20.2420   26.0420 N.am  501  DZA501     -0.1275
      9  N04      -18.4820  -19.8500   25.9420 N.3   501  DZA501     -0.1814
     10  C06      -18.8740  -20.2070   24.5470 C.3   501  DZA501      0.1130
     11  C05      -19.3960  -20.3900   26.9800 C.3   501  DZA501      0.1130
@<TRIPOS>BOND
     1     3     2   ar
     2     2     4    1
     3     2     1   ar
     4     4     5    1
     5    10     9    1
     6     7     6    2
     7     6     5    1
     8     6     8   am
     9     9     8    1
    10     9    11    1
