@<TRIPOS>MOLECULE
4do1_ANN_A_1.pdb
 11 11 0 0 0
SMALL
GASTEIGER

@<TRIPOS>ATOM
      1  C8         8.0970  -15.4540  -20.5630 C.3   502  ANN502      0.2525
      2  O3         6.7610  -15.7650  -20.1480 O.3   502  ANN502     -0.4714
      3  C5         5.7220  -15.0590  -20.6950 C.ar  502  ANN502      0.1387
      4  C6         4.4260  -15.3700  -20.2430 C.ar  502  ANN502      0.0371
      5  C7         3.3590  -14.6830  -20.7830 C.ar  502  ANN502      0.0097
      6  C2         3.6150  -13.6680  -21.7350 C.ar  502  ANN502      0.0800
      7  C3         4.9110  -13.3840  -22.1810 C.ar  502  ANN502      0.0097
      8  C4         6.0200  -14.0670  -21.6980 C.ar  502  ANN502      0.0371
      9  C1         2.4200  -12.9370  -22.3350 C.2   502  ANN502      0.3878
     10  O1         1.2330  -13.0150  -21.7670 O.co2 502  ANN502     -0.2406
     11  O2         2.5420  -12.2270  -23.3890 O.co2 502  ANN502     -0.2406
@<TRIPOS>BOND
     1    11     9   ar
     2     9    10   ar
     3     9     6    1
     4     7     6   ar
     5     7     8   ar
     6     6     5   ar
     7     8     3   ar
     8     5     4   ar
     9     3     4   ar
    10     3     2    1
    11     1     2    1
