@<TRIPOS>MOLECULE
4do1_HEM_A_1.pdb
 43 50 0 0 0
SMALL
GASTEIGER

@<TRIPOS>ATOM
      1  CHA        9.7260  -13.4090  -23.3750 C.2   501  HEM501      0.0000
      2  CHB       12.2590  -15.2450  -19.6450 C.2   501  HEM501      0.0000
      3  CHC       11.5690  -11.0860  -17.1690 C.2   501  HEM501      0.0000
      4  CHD        8.0790   -9.8250  -20.3760 C.2   501  HEM501      0.0000
      5  C1A       10.5800  -14.2530  -22.6480 C.2   501  HEM501      0.0000
      6  C2A       11.1770  -15.5240  -23.0610 C.2   501  HEM501      0.0000
      7  C3A       11.8250  -16.0580  -22.0350 C.2   501  HEM501      0.0000
      8  C4A       11.6560  -15.1140  -20.9080 C.2   501  HEM501      0.0000
      9  CMA       12.5820  -17.4370  -21.9420 C.3   501  HEM501      0.0000
     10  CAA       11.0650  -16.0760  -24.4990 C.3   501  HEM501      0.0000
     11  CBA        9.6660  -16.6110  -24.8030 C.3   501  HEM501      0.0000
     12  CGA        9.7290  -17.4190  -26.0860 C.2   501  HEM501      0.0000
     13  O1A        8.6570  -17.9540  -26.4610 O.co2 501  HEM501      0.0000
     14  O2A       10.7840  -17.4920  -26.8030 O.co2 501  HEM501      0.0000
     15  C1B       12.3000  -14.2700  -18.6470 C.ar  501  HEM501      0.0000
     16  C2B       13.0990  -14.3460  -17.4300 C.ar  501  HEM501      0.0000
     17  C3B       12.8880  -13.1990  -16.7440 C.ar  501  HEM501      0.0000
     18  C4B       11.9740  -12.3800  -17.4920 C.ar  501  HEM501      0.0000
     19  CMB       14.0250  -15.5540  -17.0430 C.3   501  HEM501      0.0000
     20  CAB       13.5240  -12.7510  -15.3990 C.2   501  HEM501      0.0000
     21  CBB       14.6890  -13.2070  -14.8680 C.2   501  HEM501      0.0000
     22  C1C       10.5740  -10.3720  -17.8320 C.2   501  HEM501      0.0000
     23  C2C       10.0160   -9.0850  -17.4100 C.2   501  HEM501      0.0000
     24  C3C        9.0440   -8.7450  -18.3210 C.2   501  HEM501      0.0000
     25  C4C        8.9660   -9.7860  -19.3250 C.2   501  HEM501      0.0000
     26  CMC       10.5340   -8.2180  -16.2510 C.3   501  HEM501      0.0000
     27  CAC        8.2170   -7.4270  -18.4360 C.2   501  HEM501      0.0000
     28  CBC        8.3850   -6.2900  -17.7780 C.2   501  HEM501      0.0000
     29  C1D        8.1500  -10.7570  -21.4420 C.ar  501  HEM501      0.0000
     30  C2D        7.2910  -10.7180  -22.5740 C.ar  501  HEM501      0.0000
     31  C3D        7.8230  -11.7230  -23.5030 C.ar  501  HEM501      0.0000
     32  C4D        8.9560  -12.3640  -22.8470 C.ar  501  HEM501      0.0000
     33  CMD        6.0530   -9.7680  -22.7860 C.3   501  HEM501      0.0000
     34  CAD        7.2780  -12.1280  -24.8800 C.3   501  HEM501      0.0000
     35  CBD        8.3100  -11.4390  -25.8800 C.3   501  HEM501      0.0000
     36  CGD        7.9810  -11.8720  -27.3220 C.2   501  HEM501      0.0000
     37  O1D        8.4280  -11.2240  -28.2790 O.co2 501  HEM501      0.0000
     38  O2D        7.2670  -12.8750  -27.5150 O.co2 501  HEM501      0.0000
     39  NA        10.9710  -14.0020  -21.3750 N.2   501  HEM501      0.0000
     40  NB        11.6490  -13.0350  -18.6740 N.ar  501  HEM501      0.0000
     41  NC         9.8860  -10.7510  -18.9690 N.2   501  HEM501      0.0000
     42  ND         9.1110  -11.7090  -21.6610 N.ar  501  HEM501      0.0000
     43 FE         10.5710  -12.2580  -20.2140 Fe    501  HEM501      0.0000
@<TRIPOS>BOND
     1    37    36   ar
     2    38    36   ar
     3    36    35    1
     4    14    12   ar
     5    13    12   ar
     6    12    11    1
     7    35    34    1
     8    34    31    1
     9    11    10    1
    10    10     6    1
    11    31    32   ar
    12    31    30   ar
    13     1    32    2
    14     1     5    1
    15     6     5    1
    16     6     7    2
    17    32    42   ar
    18    33    30    1
    19     5    39    2
    20    30    29   ar
    21     7     9    1
    22     7     8    1
    23    42    29   ar
    24    42    43    1
    25    29     4    2
    26    39     8    1
    27    39    43    1
    28     8     2    2
    29     4    25    1
    30    43    41    1
    31    43    40    1
    32     2    15    1
    33    25    41    2
    34    25    24    1
    35    41    22    1
    36    40    15   ar
    37    40    18   ar
    38    15    16   ar
    39    27    24    1
    40    27    28    2
    41    24    23    2
    42    22    23    1
    43    22     3    2
    44    18     3    1
    45    18    17   ar
    46    16    19    1
    47    16    17   ar
    48    23    26    1
    49    17    20    1
    50    20    21    2
