@<TRIPOS>MOLECULE
4do3_0LA_A_1.pdb
 19 21 0 0 0
SMALL
GASTEIGER

@<TRIPOS>ATOM
      1 CL         18.2830   47.0400   10.3660 Cl    602  0LA602     -0.0822
      2  C3        19.5520   47.1320    9.1240 C.ar  602  0LA602      0.0578
      3  C2        19.3960   46.3180    7.9940 C.ar  602  0LA602      0.0140
      4  C1        20.3420   46.3290    6.9960 C.ar  602  0LA602      0.0329
      5  C9A       21.4260   47.1840    7.1700 C.ar  602  0LA602      0.1315
      6  N9        22.5280   47.4580    6.3820 N.2   602  0LA602     -0.4019
      7  C4        20.6260   47.9950    9.3240 C.ar  602  0LA602      0.0140
      8  C4A       21.5560   48.0080    8.3010 C.ar  602  0LA602      0.0329
      9  C4B       22.7240   48.7630    8.1910 C.ar  602  0LA602      0.0321
     10  C5        23.2710   49.7150    9.0680 C.ar  602  0LA602      0.0023
     11  C6        24.4780   50.3020    8.6330 C.ar  602  0LA602     -0.0036
     12  C8A       23.3430   48.4080    6.9700 C.ar  602  0LA602      0.1311
     13  C8        24.5320   48.9950    6.5660 C.ar  602  0LA602      0.0283
     14  C7        25.1150   49.9540    7.3990 C.ar  602  0LA602     -0.0093
     15  C10       26.3930   50.5760    6.8960 C.3   602  0LA602      0.1257
     16  C14       26.9400   51.6560    7.8330 C.3   602  0LA602      0.0166
     17  C11       26.0880   51.2460    5.5610 C.2   602  0LA602      0.3683
     18  O13       26.3700   50.6290    4.4940 O.co2 602  0LA602     -0.2453
     19  O12       25.5420   52.3700    5.5520 O.co2 602  0LA602     -0.2453
@<TRIPOS>BOND
     1    18    17   ar
     2    19    17   ar
     3    17    15    1
     4     6    12    2
     5     6     5    2
     6    13    12   ar
     7    13    14   ar
     8    15    14    1
     9    15    16    1
    10    12     9   ar
    11     4     5   ar
    12     4     3   ar
    13     5     8   ar
    14    14    11   ar
    15     3     2   ar
    16     9     8    2
    17     9    10   ar
    18     8     7   ar
    19    11    10   ar
    20     2     7   ar
    21     2     1    1
