@<TRIPOS>MOLECULE
4do4_DJN_A_1.pdb
 14 14 0 0 0
SMALL
GASTEIGER

@<TRIPOS>ATOM
      1  O7        58.0300   -1.9300   18.0920 O.2   510  DJN510     -0.2733
      2  C7        57.3240   -2.5520   18.8880 C.2   510  DJN510      0.2419
      3  C8        56.4130   -1.8710   19.8950 C.3   510  DJN510      0.0964
      4  N2        57.3220   -3.8880   18.8960 N.am  510  DJN510     -0.2030
      5  C2        58.2610   -4.6800   18.1140 C.3   510  DJN510      0.1455
      6  C3        57.6440   -5.5760   17.0750 C.3   510  DJN510      0.2047
      7  O3        56.7370   -4.8760   16.2140 O.3   510  DJN510     -0.2185
      8  C4        58.7910   -6.1900   16.2720 C.3   510  DJN510      0.2023
      9  O4        59.5020   -5.1490   15.5950 O.3   510  DJN510     -0.2188
     10  C5        59.7340   -6.9340   17.2110 C.3   510  DJN510      0.1386
     11  C6        60.9630   -7.4480   16.4340 C.3   510  DJN510      0.2020
     12  O6        61.8690   -8.1030   17.3410 O.3   510  DJN510     -0.2188
     13  N5        60.1930   -6.2030   18.3970 N.3   510  DJN510     -0.2122
     14  C1        59.0680   -5.5520   19.0820 C.3   510  DJN510      0.1131
@<TRIPOS>BOND
     1     9     8    1
     2     7     6    1
     3     8     6    1
     4     8    10    1
     5    11    10    1
     6    11    12    1
     7     6     5    1
     8    10    13    1
     9     1     2    2
    10     5     4    1
    11     5    14    1
    12    13    14    1
    13     2     4   am
    14     2     3    1
