@<TRIPOS>MOLECULE
4do5_DGJ_A_1.pdb
 11 11 0 0 0
SMALL
GASTEIGER

@<TRIPOS>ATOM
      1  C1        58.9540   -5.7030   18.9120 C.3   509  DGJ509      0.1243
      2  C2        58.1230   -4.9080   17.9280 C.3   509  DGJ509      0.2020
      3  O2        57.0000   -4.2670   18.5320 O.3   509  DGJ509     -0.2188
      4  C3        57.6860   -5.8810   16.8310 C.3   509  DGJ509      0.2151
      5  O3        56.8380   -5.2140   15.9070 O.3   509  DGJ509     -0.2176
      6  C4        58.9390   -6.3820   16.1410 C.3   509  DGJ509      0.2031
      7  O4        59.6100   -5.2840   15.5190 O.3   509  DGJ509     -0.2187
      8  C5        59.8560   -7.0850   17.1320 C.3   509  DGJ509      0.1386
      9  N5        60.1740   -6.2690   18.3190 N.3   509  DGJ509     -0.2113
     10  C6        61.1630   -7.4770   16.4640 C.3   509  DGJ509      0.2020
     11  O6        62.0460   -8.1330   17.3680 O.3   509  DGJ509     -0.2188
@<TRIPOS>BOND
     1     7     6    1
     2     5     4    1
     3     6     4    1
     4     6     8    1
     5    10     8    1
     6    10    11    1
     7     4     2    1
     8     8     9    1
     9     2     3    1
    10     2     1    1
    11     9     1    1
