@<TRIPOS>MOLECULE
4do6_GLC_A_1.pdb
 12 12 0 0 0
SMALL
GASTEIGER

@<TRIPOS>ATOM
      1  C1        23.5390  -14.1890   25.0560 C.3   511  GLC511      0.3024
      2  C2        24.4210  -15.1230   24.2110 C.3   511  GLC511      0.2434
      3  C3        25.7600  -14.4930   23.8180 C.3   511  GLC511      0.2199
      4  C4        25.4850  -13.1160   23.2200 C.3   511  GLC511      0.2144
      5  C5        24.7710  -12.2820   24.2830 C.3   511  GLC511      0.1836
      6  C6        24.5840  -10.8310   23.8460 C.3   511  GLC511      0.2142
      7  O1        24.0110  -14.1510   26.3880 O.3   511  GLC511     -0.1869
      8  O2        24.6620  -16.3180   24.9210 O.3   511  GLC511     -0.2148
      9  O3        26.4760  -15.3340   22.9240 O.3   511  GLC511     -0.2174
     10  O4        26.6760  -12.4950   22.7880 O.3   511  GLC511     -0.2176
     11  O5        23.5030  -12.8690   24.5330 O.3   511  GLC511     -0.3236
     12  O6        23.8960  -10.0980   24.8390 O.3   511  GLC511     -0.2176
@<TRIPOS>BOND
     1    10     4    1
     2     9     3    1
     3     4     3    1
     4     4     5    1
     5     3     2    1
     6     6     5    1
     7     6    12    1
     8     2     8    1
     9     2     1    1
    10     5    11    1
    11    11     1    1
    12     1     7    1
