@<TRIPOS>MOLECULE
4do6_BGC_B_1.pdb
 12 12 0 0 0
SMALL
GASTEIGER

@<TRIPOS>ATOM
      1  C2        54.7450  -14.8430   19.7520 C.3   511  BGC511      0.2434
      2  C3        53.3850  -15.4810   19.9920 C.3   511  BGC511      0.2199
      3  C4        53.5370  -16.9990   20.0350 C.3   511  BGC511      0.2144
      4  C5        54.5670  -17.3510   21.1070 C.3   511  BGC511      0.1836
      5  C6        54.7540  -18.8500   21.2830 C.3   511  BGC511      0.2142
      6  C1        55.7790  -15.3540   20.7570 C.3   511  BGC511      0.3024
      7  O1        57.0530  -14.8800   20.3900 O.3   511  BGC511     -0.1869
      8  O2        54.6010  -13.4450   19.8630 O.3   511  BGC511     -0.2148
      9  O3        52.4690  -15.0610   18.9970 O.3   511  BGC511     -0.2174
     10  O4        52.2920  -17.5490   20.3660 O.3   511  BGC511     -0.2176
     11  O5        55.8120  -16.7690   20.7670 O.3   511  BGC511     -0.3236
     12  O6        55.6910  -19.0910   22.3160 O.3   511  BGC511     -0.2176
@<TRIPOS>BOND
     1     9     2    1
     2     1     8    1
     3     1     2    1
     4     1     6    1
     5     2     3    1
     6     3    10    1
     7     3     4    1
     8     7     6    1
     9     6    11    1
    10    11     4    1
    11     4     5    1
    12     5    12    1
