@<TRIPOS>MOLECULE
4do9_GFH_A_1.pdb
 32 34 0 0 0
SMALL
GASTEIGER

@<TRIPOS>ATOM
      1  PA         5.1900    5.0030   14.7200 P.3   410  GFH410      0.2209
      2  O1A        4.1620    5.0340   15.7550 O.3   410  GFH410     -0.4371
      3  O2A        6.5970    5.1840   15.1810 O.2   410  GFH410     -0.5170
      4  O3A        5.0320    3.7090   13.9130 O.3   410  GFH410     -0.2465
      5  O5'        4.8940    6.2320   13.7280 O.3   410  GFH410     -0.3112
      6  PB         3.8720    2.7400   13.6690 P.3   410  GFH410      0.4129
      7  O1B        3.8650    2.2850   12.2520 O.2   410  GFH410     -0.2519
      8  O2B        2.6020    3.2440   14.1870 O.3   410  GFH410     -0.1369
      9  C3B        4.4100    1.2510   14.6250 C.3   410  GFH410      0.3155
     10  F3B        4.2220    0.0470   13.9420 F     410  GFH410     -0.2160
     11  PG         3.6160    1.0640   16.2640 P.3   410  GFH410      0.1622
     12  O1G        3.6470    2.4520   16.7670 O.3   410  GFH410     -0.3549
     13  O2G        4.2790    0.0010   17.0560 O.3   410  GFH410     -0.3549
     14  O3G        2.2300    0.6940   15.9100 O.2   410  GFH410     -0.4568
     15  C5'        3.6110    6.4180   13.1390 C.3   410  GFH410      0.1812
     16  C4'        3.7200    6.6590   11.6540 C.3   410  GFH410      0.1772
     17  O4'        4.5780    7.7910   11.3980 O.3   410  GFH410     -0.3347
     18  C1'        5.2640    7.6030   10.1540 C.3   410  GFH410      0.1981
     19  N9         6.7000    7.6790   10.3800 N.pl3 410  GFH410     -0.2374
     20  C4         7.6300    8.1000    9.4710 C.2   410  GFH410      0.2299
     21  N3         7.3750    8.5740    8.2340 N.2   410  GFH410     -0.3074
     22  C2         8.4870    8.9020    7.5930 C.1   410  GFH410      0.2531
     23  N2         8.4230    9.4220    6.3510 N.pl3 410  GFH410     -0.0226
     24  N1         9.7450    8.7620    8.1310 N.2   410  GFH410     -0.2485
     25  C6        10.0120    8.2760    9.4160 C.1   410  GFH410      0.2372
     26  O6        11.1740    8.1930    9.8260 O.2   410  GFH410     -0.2069
     27  C5         8.8380    7.9250   10.1090 C.2   410  GFH410      0.2182
     28  N7         8.6810    7.4010   11.3910 N.2   410  GFH410     -0.2322
     29  C8         7.3880    7.2700   11.5020 C.3   410  GFH410      0.2245
     30  C2'        4.8870    6.2210    9.6430 C.3   410  GFH410      0.0865
     31  C3'        4.3990    5.5260   10.9170 C.3   410  GFH410      0.1857
     32  O3'        3.4600    4.4600   10.6890 O.3   410  GFH410     -0.2203
@<TRIPOS>BOND
     1    23    22    1
     2    22    24    2
     3    22    21    2
     4    24    25    2
     5    21    20    2
     6    25    26    2
     7    25    27    1
     8    20    27    1
     9    20    19    1
    10    30    18    1
    11    30    31    1
    12    27    28    2
    13    18    19    1
    14    18    17    1
    15    19    29    1
    16    32    31    1
    17    31    16    1
    18    28    29    1
    19    17    16    1
    20    16    15    1
    21     7     6    2
    22    15     5    1
    23     6     4    1
    24     6     8    1
    25     6     9    1
    26     5     1    1
    27     4     1    1
    28    10     9    1
    29     9    11    1
    30     1     3    2
    31     1     2    1
    32    14    11    2
    33    11    12    1
    34    11    13    1
