@<TRIPOS>MOLECULE
4doa_FHG_A_1.pdb
 32 34 0 0 0
SMALL
GASTEIGER

@<TRIPOS>ATOM
      1  P1         5.1280    5.0800   14.7220 P.3   410  FHG410      0.2209
      2  O1A        4.0150    5.1050   15.6720 O.3   410  FHG410     -0.4371
      3  O2A        6.4960    5.2230   15.2660 O.2   410  FHG410     -0.5170
      4  O3A        4.9620    3.7830   13.8820 O.3   410  FHG410     -0.2465
      5  O5'        4.9080    6.2670   13.6590 O.3   410  FHG410     -0.3112
      6  P2         3.8430    2.7450   13.7500 P.3   410  FHG410      0.4129
      7  O1B        3.8090    2.2150   12.3350 O.2   410  FHG410     -0.2519
      8  O2B        2.5510    3.0710   14.3750 O.3   410  FHG410     -0.1369
      9  C3B        4.5480    1.2720   14.6480 C.3   410  FHG410      0.3155
     10  F2B        5.8840    1.4950   14.6940 F     410  FHG410     -0.2160
     11  P3         3.9700    1.1360   16.4130 P.3   410  FHG410      0.1622
     12  O1G        3.6090    2.5270   16.8320 O.3   410  FHG410     -0.3549
     13  O2G        4.9670    0.3520   17.2200 O.3   410  FHG410     -0.3549
     14  O3G        2.7640    0.3230   16.2880 O.2   410  FHG410     -0.4568
     15  C5'        3.5980    6.4590   13.1310 C.3   410  FHG410      0.1812
     16  C4'        3.6910    6.6100   11.6410 C.3   410  FHG410      0.1772
     17  O4'        4.5140    7.7520   11.3640 O.3   410  FHG410     -0.3347
     18  C1'        5.2060    7.5880   10.1310 C.3   410  FHG410      0.1981
     19  N9         6.6610    7.6950   10.3560 N.pl3 410  FHG410     -0.2374
     20  C4         7.5970    8.1470    9.4490 C.2   410  FHG410      0.2299
     21  N3         7.3450    8.6450    8.2230 N.2   410  FHG410     -0.3074
     22  C2         8.4540    8.9900    7.5640 C.1   410  FHG410      0.2531
     23  N2         8.3450    9.5920    6.3500 N.pl3 410  FHG410     -0.0226
     24  N1         9.7280    8.8520    8.0920 N.2   410  FHG410     -0.2485
     25  C6         9.9950    8.3440    9.3760 C.1   410  FHG410      0.2372
     26  O6        11.1480    8.1830    9.7980 O.2   410  FHG410     -0.2069
     27  C5         8.8210    7.9780   10.0620 C.2   410  FHG410      0.2182
     28  N7         8.6910    7.4380   11.3350 N.2   410  FHG410     -0.2322
     29  C8         7.3900    7.2720   11.4500 C.3   410  FHG410      0.2245
     30  C2'        4.8100    6.1950    9.6300 C.3   410  FHG410      0.0865
     31  C3'        4.4090    5.4730   10.9210 C.3   410  FHG410      0.1857
     32  O3'        3.5230    4.3540   10.7080 O.3   410  FHG410     -0.2203
@<TRIPOS>BOND
     1    23    22    1
     2    22    24    2
     3    22    21    2
     4    24    25    2
     5    21    20    2
     6    25    26    2
     7    25    27    1
     8    20    27    1
     9    20    19    1
    10    30    18    1
    11    30    31    1
    12    27    28    2
    13    18    19    1
    14    18    17    1
    15    19    29    1
    16    32    31    1
    17    31    16    1
    18    28    29    1
    19    17    16    1
    20    16    15    1
    21     7     6    2
    22    15     5    1
    23     5     1    1
    24     6     4    1
    25     6     8    1
    26     6     9    1
    27     4     1    1
    28     9    10    1
    29     9    11    1
    30     1     3    2
    31     1     2    1
    32    14    11    2
    33    11    12    1
    34    11    13    1
