@<TRIPOS>MOLECULE
4dob_GRC_A_1.pdb
 32 34 0 0 0
SMALL
GASTEIGER

@<TRIPOS>ATOM
      1  N1         9.6640    8.9210    8.1760 N.2   410  GRC410     -0.2485
      2  C2         8.4070    9.0170    7.6060 C.1   410  GRC410      0.2531
      3  N2         8.3170    9.6030    6.3780 N.pl3 410  GRC410     -0.0226
      4  N3         7.2940    8.6810    8.2570 N.2   410  GRC410     -0.3074
      5  C4         7.5310    8.2000    9.4760 C.2   410  GRC410      0.2299
      6  C5         8.7270    8.0530   10.1140 C.2   410  GRC410      0.2182
      7  C6         9.9030    8.4420    9.4580 C.1   410  GRC410      0.2372
      8  O6        11.0390    8.2400    9.8730 O.2   410  GRC410     -0.2069
      9  N7         8.5650    7.5310   11.3930 N.2   410  GRC410     -0.2322
     10  C8         7.2760    7.3570   11.4840 C.3   410  GRC410      0.2245
     11  N9         6.5860    7.7640   10.3700 N.pl3 410  GRC410     -0.2374
     12  PA         5.0110    5.2340   14.6650 P.3   410  GRC410      0.2209
     13  PB         3.8540    2.8270   13.7420 P.3   410  GRC410      0.3954
     14  PG         3.9420    1.3550   16.4800 P.3   410  GRC410      0.1439
     15  C1'        5.1500    7.6170   10.1060 C.3   410  GRC410      0.1981
     16  O1A        3.9780    5.1150   15.7380 O.3   410  GRC410     -0.4371
     17  O1B        3.8220    2.3240   12.3410 O.2   410  GRC410     -0.2535
     18  O1G        3.4420    2.7220   16.8780 O.3   410  GRC410     -0.3559
     19  C2'        4.9040    6.1800    9.6840 C.3   410  GRC410      0.0865
     20  O2A        6.4420    5.3360   15.0770 O.2   410  GRC410     -0.5170
     21  O2B        2.5340    3.1540   14.2940 O.3   410  GRC410     -0.1381
     22  O2G        4.7950    0.5770   17.4370 O.3   410  GRC410     -0.3559
     23  C3'        4.3280    5.5150   10.9560 C.3   410  GRC410      0.1857
     24  O3'        3.4570    4.3910   10.6450 O.3   410  GRC410     -0.2203
     25  O3A        4.8390    3.9960   13.7630 O.3   410  GRC410     -0.2475
     26  C3B        4.7310    1.6010   14.8390 C.3   410  GRC410      0.2365
     27 CL1         4.7810   -0.0340   14.1110 Cl    410  GRC410     -0.0939
     28  O3G        2.7840    0.4600   16.2880 O.2   410  GRC410     -0.4583
     29  C4'        3.5900    6.6910   11.6060 C.3   410  GRC410      0.1772
     30  O4'        4.4030    7.8460   11.3020 O.3   410  GRC410     -0.3347
     31  C5'        3.4170    6.6370   13.1010 C.3   410  GRC410      0.1812
     32  O5'        4.7160    6.4290   13.6520 O.3   410  GRC410     -0.3112
@<TRIPOS>BOND
     1     3     2    1
     2     2     1    2
     3     2     4    2
     4     1     7    2
     5     4     5    2
     6     7     8    2
     7     7     6    1
     8     5     6    1
     9     5    11    1
    10    19    15    1
    11    19    23    1
    12    15    11    1
    13    15    30    1
    14     6     9    2
    15    11    10    1
    16    24    23    1
    17    23    29    1
    18    30    29    1
    19     9    10    1
    20    29    31    1
    21    17    13    2
    22    31    32    1
    23    32    12    1
    24    13    25    1
    25    13    21    1
    26    13    26    1
    27    25    12    1
    28    27    26    1
    29    12    20    2
    30    12    16    1
    31    26    14    1
    32    28    14    2
    33    14    18    1
    34    14    22    1
