@<TRIPOS>MOLECULE
4doc_G1C_A_1.pdb
 32 34 0 0 0
SMALL
GASTEIGER

@<TRIPOS>ATOM
      1  N1         9.8070    8.8610    8.1730 N.2   410  G1C410     -0.2485
      2  C2         8.4990    8.9500    7.6680 C.1   410  G1C410      0.2531
      3  N2         8.3700    9.4820    6.4030 N.pl3 410  G1C410     -0.0226
      4  N3         7.3320    8.6050    8.2790 N.2   410  G1C410     -0.3074
      5  C4         7.5500    8.1240    9.5230 C.2   410  G1C410      0.2299
      6  C5         8.8090    7.9630   10.1490 C.2   410  G1C410      0.2182
      7  C6         9.9130    8.3590    9.4150 C.1   410  G1C410      0.2372
      8  O6        11.1220    8.2190    9.9750 O.2   410  G1C410     -0.2069
      9  N7         8.6600    7.4360   11.4440 N.2   410  G1C410     -0.2322
     10  C8         7.3400    7.2620   11.5640 C.3   410  G1C410      0.2245
     11  N9         6.6250    7.6910   10.4260 N.pl3 410  G1C410     -0.2374
     12  PA         5.0970    5.0790   14.8890 P.3   410  G1C410      0.2209
     13  PB         3.8350    2.7420   13.8580 P.3   410  G1C410      0.3954
     14  PG         3.4030    1.0540   16.2360 P.3   410  G1C410      0.1439
     15  C1'        5.1580    7.6200   10.1830 C.3   410  G1C410      0.1981
     16  O1A        3.9530    5.1090   15.8290 O.3   410  G1C410     -0.4371
     17  O1B        3.9130    2.2810   12.3420 O.2   410  G1C410     -0.2535
     18  O1G        3.4290    2.4650   16.9440 O.3   410  G1C410     -0.3559
     19  C2'        4.7780    6.2030    9.7250 C.3   410  G1C410      0.0865
     20  O2A        6.5650    5.0470   15.1530 O.2   410  G1C410     -0.5170
     21  O2B        2.4480    3.1600   14.1510 O.3   410  G1C410     -0.1381
     22  O2G        4.2750    0.2460   17.2780 O.3   410  G1C410     -0.3559
     23  C3'        4.3930    5.4870   11.0160 C.3   410  G1C410      0.1857
     24  O3'        3.5660    4.4050   10.6220 O.3   410  G1C410     -0.2203
     25  O3A        5.0260    3.7420   13.9310 O.3   410  G1C410     -0.2475
     26  C3B        4.1810    1.2040   14.7400 C.3   410  G1C410      0.2365
     27 CL3B        5.9390    1.2250   15.0000 Cl    410  G1C410     -0.0939
     28  O3G        2.0020    0.5740   16.3050 O.2   410  G1C410     -0.4583
     29  C4'        3.6560    6.6570   11.7080 C.3   410  G1C410      0.1772
     30  O4'        4.4540    7.8350   11.3910 O.3   410  G1C410     -0.3347
     31  C5'        3.5720    6.4860   13.2310 C.3   410  G1C410      0.1812
     32  O5'        4.8440    6.2860   13.7460 O.3   410  G1C410     -0.3112
@<TRIPOS>BOND
     1     3     2    1
     2     2     1    2
     3     2     4    2
     4     1     7    2
     5     4     5    2
     6     7     8    2
     7     7     6    1
     8     5     6    1
     9     5    11    1
    10    19    15    1
    11    19    23    1
    12     6     9    2
    13    15    11    1
    14    15    30    1
    15    11    10    1
    16    24    23    1
    17    23    29    1
    18    30    29    1
    19     9    10    1
    20    29    31    1
    21    17    13    2
    22    31    32    1
    23    32    12    1
    24    13    25    1
    25    13    21    1
    26    13    26    1
    27    25    12    1
    28    26    27    1
    29    26    14    1
    30    12    20    2
    31    12    16    1
    32    14    28    2
    33    14    18    1
    34    14    22    1
