@<TRIPOS>MOLECULE
4doe_CBK_A_1.pdb
 23 24 0 0 0
SMALL
GASTEIGER

@<TRIPOS>ATOM
      1  C1        81.1290  -25.7390  -24.1090 C.3   503  CBK503      0.2695
      2  C2        80.0920  -25.3890  -23.0490 C.3   503  CBK503      0.2406
      3  O2        80.1720  -26.2830  -21.9640 O.3   503  CBK503     -0.2149
      4  C3        78.7070  -25.4500  -23.6240 C.3   503  CBK503      0.2198
      5  O3        77.8040  -24.9030  -22.6660 O.3   503  CBK503     -0.2174
      6  C4        78.6560  -24.6760  -24.9490 C.3   503  CBK503      0.2144
      7  O4        77.3790  -24.7940  -25.5650 O.3   503  CBK503     -0.2176
      8  C5        79.7260  -25.0420  -25.8930 C.3   503  CBK503      0.1835
      9  O5        80.9050  -24.8080  -25.1560 O.3   503  CBK503     -0.3256
     10  C6        79.7240  -24.2780  -27.2350 C.3   503  CBK503      0.2142
     11  O6        79.9530  -22.9020  -26.9250 O.3   503  CBK503     -0.2176
     12  C1'       86.4230  -26.2820  -24.0180 C.3   503  CBK503      0.3023
     13  O1'       86.8040  -25.5360  -22.8730 O.3   503  CBK503     -0.1869
     14  C2'       85.8420  -25.3260  -25.0300 C.3   503  CBK503      0.2433
     15  O2'       86.6760  -24.1540  -25.1800 O.3   503  CBK503     -0.2148
     16  C3'       84.4630  -24.8960  -24.5640 C.3   503  CBK503      0.2168
     17  O3'       83.9490  -24.2290  -25.6820 O.3   503  CBK503     -0.2175
     18  C4'       83.5660  -26.0700  -24.1500 C.3   503  CBK503      0.1804
     19  O4'       82.3920  -25.4250  -23.5930 O.3   503  CBK503     -0.3257
     20  C5'       84.2530  -26.9260  -23.1230 C.3   503  CBK503      0.1804
     21  O5'       85.5340  -27.3300  -23.6510 O.3   503  CBK503     -0.3237
     22  C6'       83.5520  -28.1950  -22.6730 C.3   503  CBK503      0.2141
     23  O6'       84.1510  -28.6750  -21.4610 O.3   503  CBK503     -0.2176
@<TRIPOS>BOND
     1    10    11    1
     2    10     8    1
     3     8     9    1
     4     8     6    1
     5    17    16    1
     6     7     6    1
     7    15    14    1
     8     9     1    1
     9    14    16    1
    10    14    12    1
    11     6     4    1
    12    16    18    1
    13    18    19    1
    14    18    20    1
    15     1    19    1
    16     1     2    1
    17    12    21    1
    18    12    13    1
    19    21    20    1
    20     4     2    1
    21     4     5    1
    22    20    22    1
    23     2     3    1
    24    22    23    1
