@<TRIPOS>MOLECULE
4doe_CT3_A_1.pdb
 34 36 0 0 0
SMALL
GASTEIGER

@<TRIPOS>ATOM
      1  C1A       73.5190  -23.0090  -29.3060 C.2   504  CT3504      0.3505
      2  C2A       72.1270  -22.4790  -29.6550 C.3   504  CT3504      0.2821
      3  C3A       71.8880  -22.3290  -31.1730 C.3   504  CT3504      0.2238
      4  C4A       73.0700  -21.5630  -31.7730 C.3   504  CT3504      0.1936
      5  C5A       74.3360  -22.3930  -31.4430 C.3   504  CT3504      0.2312
      6  C6A       75.6570  -22.0060  -32.1170 C.3   504  CT3504      0.2280
      7  O1X       73.8400  -23.2330  -27.9250 O.2   504  CT3504     -0.2472
      8  O2A       71.2200  -23.3450  -29.0110 O.3   504  CT3504     -0.2082
      9  O3A       70.6170  -21.6970  -31.4830 O.3   504  CT3504     -0.2170
     10  O4A       72.9700  -21.2900  -33.2190 O.3   504  CT3504     -0.3245
     11  O5A       74.5870  -22.4440  -30.0200 O.3   504  CT3504     -0.4451
     12  O6A       76.1630  -20.8460  -31.4330 O.3   504  CT3504     -0.2163
     13  C1B       72.4690  -20.1130  -33.8880 C.3   504  CT3504      0.2696
     14  C2B       72.7680  -19.9310  -35.3470 C.3   504  CT3504      0.2404
     15  C3B       72.0770  -18.7590  -36.0020 C.3   504  CT3504      0.2167
     16  C4B       70.5820  -18.9110  -35.7910 C.3   504  CT3504      0.1804
     17  C5B       70.4040  -18.9750  -34.2910 C.3   504  CT3504      0.1803
     18  C6B       68.9120  -19.1250  -33.9070 C.3   504  CT3504      0.2141
     19  O2B       74.2060  -19.8480  -35.5040 O.3   504  CT3504     -0.2149
     20  O3B       72.3250  -18.7080  -37.4100 O.3   504  CT3504     -0.2175
     21  O4B       69.9270  -17.7170  -36.2160 O.3   504  CT3504     -0.3257
     22  O5B       71.0820  -20.0460  -33.7220 O.3   504  CT3504     -0.3257
     23  O6B       68.4110  -20.3200  -34.4640 O.3   504  CT3504     -0.2176
     24  C1C       68.9280  -17.8530  -37.1950 C.3   504  CT3504      0.2695
     25  C2C       68.0400  -16.6340  -37.2930 C.3   504  CT3504      0.2406
     26  C3C       66.9930  -16.7630  -38.3790 C.3   504  CT3504      0.2198
     27  C4C       67.6380  -17.2720  -39.7090 C.3   504  CT3504      0.2144
     28  C5C       68.5060  -18.4620  -39.4100 C.3   504  CT3504      0.1835
     29  C6C       69.2520  -19.0880  -40.6130 C.3   504  CT3504      0.2142
     30  O2C       67.4630  -16.4280  -35.9950 O.3   504  CT3504     -0.2149
     31  O3C       66.3520  -15.5190  -38.5660 O.3   504  CT3504     -0.2174
     32  O4C       66.5590  -17.5370  -40.5910 O.3   504  CT3504     -0.2176
     33  O5C       69.5180  -18.0930  -38.4700 O.3   504  CT3504     -0.3256
     34  O6C       69.9910  -18.0000  -41.1960 O.3   504  CT3504     -0.2176
@<TRIPOS>BOND
     1    34    29    1
     2    29    28    1
     3    32    27    1
     4    27    28    1
     5    27    26    1
     6    28    33    1
     7    31    26    1
     8    33    24    1
     9    26    25    1
    10    20    15    1
    11    25    24    1
    12    25    30    1
    13    24    21    1
    14    21    16    1
    15    15    16    1
    16    15    14    1
    17    16    17    1
    18    19    14    1
    19    14    13    1
    20    23    18    1
    21    17    18    1
    22    17    22    1
    23    13    22    1
    24    13    10    1
    25    10     4    1
    26     6     5    1
    27     6    12    1
    28     4     5    1
    29     4     3    1
    30     9     3    1
    31     5    11    1
    32     3     2    1
    33    11     1    1
    34     2     1    1
    35     2     8    1
    36     1     7    2
