@<TRIPOS>MOLECULE
4don_3PF_A_1.pdb
 12 13 0 0 0
SMALL
GASTEIGER

@<TRIPOS>ATOM
      1  CAA       10.8610   -4.0360    2.2690 C.3   201  3PF201      0.1317
      2  OAB       12.7090   -5.0250    0.5830 O.2   201  3PF201     -0.1926
      3  CAC        7.4180   -7.8300   -1.0400 C.ar  201  3PF201      0.0002
      4  CAD        8.4380   -8.2970   -1.8660 C.ar  201  3PF201      0.0027
      5  CAE        7.6900   -6.8970   -0.0460 C.ar  201  3PF201      0.0039
      6  CAF        9.7350   -7.8180   -1.7100 C.ar  201  3PF201      0.0331
      7  CAG        9.3160   -5.4670    1.1170 C.2   201  3PF201      0.0796
      8  NAH       11.3170   -6.3980   -0.5150 N.2   201  3PF201     -0.3209
      9  CAI       11.5780   -5.4560    0.4440 C.1   201  3PF201      0.2724
     10  CAJ        9.0270   -6.4120    0.1200 C.ar  201  3PF201      0.0461
     11  CAK       10.0200   -6.8640   -0.6860 C.ar  201  3PF201      0.1468
     12  NAL       10.5730   -5.0100    1.2590 N.am  201  3PF201     -0.2029
@<TRIPOS>BOND
     1     4     6   ar
     2     4     3   ar
     3     6    11   ar
     4     3     5   ar
     5    11     8    2
     6    11    10   ar
     7     8     9    2
     8     5    10   ar
     9    10     7    2
    10     9     2    2
    11     9    12   am
    12     7    12    1
    13    12     1    1
