@<TRIPOS>MOLECULE
4doo_DAO_A_1.pdb
 14 13 0 0 0
SMALL
GASTEIGER

@<TRIPOS>ATOM
      1  O1        -4.3550    0.9830   -6.9620 O.co2 301  DAO301     -0.2457
      2  O2        -5.5480    0.1140   -5.3240 O.co2 301  DAO301     -0.2457
      3  C1        -5.4100    0.9050   -6.2870 C.2   301  DAO301      0.3649
      4  C2        -6.5630    1.8170   -6.6410 C.3   301  DAO301      0.1141
      5  C3        -6.7590    2.8500   -5.5440 C.3   301  DAO301      0.0118
      6  C4        -7.7920    3.9080   -5.9580 C.3   301  DAO301      0.0006
      7  C5        -8.2140    4.7620   -4.7610 C.3   301  DAO301      0.0000
      8  C6        -7.1990    5.8660   -4.4770 C.3   301  DAO301      0.0000
      9  C7        -7.2340    6.2900   -3.0180 C.3   301  DAO301      0.0000
     10  C8        -5.9490    7.0180   -2.6550 C.3   301  DAO301      0.0000
     11  C9        -5.8830    7.3120   -1.1670 C.3   301  DAO301      0.0000
     12  C10       -4.6270    8.1140   -0.8400 C.3   301  DAO301      0.0000
     13  C11       -4.8540    8.9960    0.3830 C.3   301  DAO301      0.0000
     14  C12       -3.5540    9.6230    0.8380 C.3   301  DAO301      0.0000
@<TRIPOS>BOND
     1     1     3   ar
     2     4     3    1
     3     4     5    1
     4     3     2   ar
     5     6     5    1
     6     6     7    1
     7     7     8    1
     8     8     9    1
     9     9    10    1
    10    10    11    1
    11    11    12    1
    12    12    13    1
    13    13    14    1
