@<TRIPOS>MOLECULE
4dor_EPH_B_1.pdb
 47 46 0 0 0
SMALL
GASTEIGER

@<TRIPOS>ATOM
      1  C1        15.3750  -15.3290    9.9060 C.3   601  EPH601      0.2543
      2  C2        15.0560  -14.3260   11.0120 C.3   601  EPH601      0.2420
      3  C4        14.3700  -15.9900    7.7140 C.2   601  EPH601      0.3171
      4  O2        14.6500  -14.9790    8.7250 O.3   601  EPH601     -0.4444
      5  O4        14.8290  -17.1190    7.8730 O.2   601  EPH601     -0.2501
      6  C18       13.5430  -15.6450    6.4920 C.3   601  EPH601      0.1096
      7  C19       12.2630  -14.8820    6.8540 C.3   601  EPH601      0.0116
      8  C20       11.1940  -15.7730    7.4820 C.3   601  EPH601      0.0006
      9  C21        9.7890  -15.1840    7.3800 C.3   601  EPH601      0.0004
     10  C22        8.8220  -15.8320    8.3750 C.3   601  EPH601      0.0047
     11  C23        7.6160  -14.9230    8.6410 C.3   601  EPH601      0.0257
     12  C24        6.6260  -15.5100    9.6370 C.2   601  EPH601     -0.0307
     13  C25        5.4430  -14.8980    9.8130 C.2   601  EPH601     -0.0304
     14  C26        4.4140  -15.4340   10.7900 C.3   601  EPH601      0.0303
     15  C27        3.2340  -14.4700   10.9970 C.3   601  EPH601      0.0303
     16  C28        2.4740  -14.9250   12.2290 C.2   601  EPH601     -0.0304
     17  C29        2.6330  -14.2250   13.3470 C.2   601  EPH601     -0.0307
     18  C30        1.9530  -14.5820   14.6440 C.3   601  EPH601      0.0257
     19  C31        2.7310  -13.8350   15.7040 C.3   601  EPH601      0.0047
     20  C32        2.3660  -14.1750   17.1310 C.3   601  EPH601      0.0003
     21  C33        3.0880  -13.4640   18.0070 C.3   601  EPH601      0.0000
     22  C34        2.9230  -13.6030   19.4970 C.3   601  EPH601      0.0000
     23  C37       16.0100  -14.5530   12.1780 C.3   601  EPH601      0.1964
     24  O5        15.8130  -15.8860   12.7010 O.3   601  EPH601     -0.3100
     25  C3        12.6920  -13.7490   10.8550 C.2   601  EPH601      0.3171
     26  O1        13.7230  -14.5560   11.4730 O.3   601  EPH601     -0.4457
     27  O3        12.9900  -12.7550   10.2130 O.2   601  EPH601     -0.2501
     28  C5        11.2610  -14.1680   11.0550 C.3   601  EPH601      0.1096
     29  C6        10.6550  -13.2240   12.0670 C.3   601  EPH601      0.0116
     30  C7         9.2050  -13.5260   12.3960 C.3   601  EPH601      0.0006
     31  C8         8.6800  -12.2850   13.1080 C.3   601  EPH601      0.0000
     32  C9         7.1620  -12.3330   13.1240 C.3   601  EPH601      0.0003
     33  C10        6.6410  -11.4460   14.2420 C.3   601  EPH601      0.0047
     34  C11        5.7790  -12.2650   15.2040 C.3   601  EPH601      0.0257
     35  C12        6.4690  -13.5260   15.7160 C.2   601  EPH601     -0.0304
     36  C13        6.0940  -14.7320   15.2550 C.2   601  EPH601     -0.0260
     37  C14        6.7550  -15.9970   15.7550 C.3   601  EPH601      0.0513
     38  C15        6.6940  -17.0840   14.6980 C.2   601  EPH601     -0.0260
     39  C16        5.5330  -17.6570   14.3490 C.2   601  EPH601     -0.0304
     40  C17        5.5380  -18.7350   13.2850 C.3   601  EPH601      0.0257
     41  C35        4.1340  -19.2170   12.9290 C.3   601  EPH601      0.0047
     42  C36        3.6010  -20.1160   14.0160 C.3   601  EPH601      0.0004
     43  P1        15.9760  -16.2050   14.2740 P.3   601  EPH601      0.2142
     44  O6        15.1380  -15.2220   15.0570 O.3   601  EPH601     -0.4373
     45  O7        15.7520  -17.6820   14.4910 O.2   601  EPH601     -0.5172
     46  O8        17.5570  -15.8760   14.5230 O.3   601  EPH601     -0.3114
     47  C38       18.6100  -16.7650   14.1360 C.3   601  EPH601      0.1815
@<TRIPOS>BOND
     1     6     7    1
     2     6     3    1
     3     7     8    1
     4     9     8    1
     5     9    10    1
     6     3     5    2
     7     3     4    1
     8    10    11    1
     9    11    12    1
    10     4     1    1
    11    12    13    2
    12    13    14    1
    13     1     2    1
    14    27    25    2
    15    14    15    1
    16    25    28    1
    17    25    26    1
    18    15    16    1
    19     2    26    1
    20     2    23    1
    21    28    29    1
    22    29    30    1
    23    23    24    1
    24    16    17    2
    25    30    31    1
    26    24    43    1
    27    41    40    1
    28    41    42    1
    29    31    32    1
    30    32    33    1
    31    40    39    1
    32    17    18    1
    33    47    46    1
    34    33    34    1
    35    43    45    2
    36    43    46    1
    37    43    44    1
    38    39    38    2
    39    18    19    1
    40    38    37    1
    41    34    35    1
    42    36    35    2
    43    36    37    1
    44    19    20    1
    45    20    21    1
    46    21    22    1
