@<TRIPOS>MOLECULE
4dp3_MMV_A_1.pdb
 26 27 0 0 0
SMALL
GASTEIGER

@<TRIPOS>ATOM
      1  C1        30.9430    4.0040   57.5850 C.2   701  MMV701      0.2435
      2  N2        31.2170    3.9430   56.2830 N.2   701  MMV701     -0.3090
      3  C3        30.6200    4.7460   55.4340 C.1   701  MMV701      0.2420
      4  N4        29.7430    5.6300   55.8430 N.2   701  MMV701     -0.3317
      5  C5        29.4310    5.7380   57.1220 C.2   701  MMV701      0.1357
      6  C6        30.0230    4.9130   58.0980 C.3   701  MMV701      0.2344
      7  N7        31.5870    3.1470   58.3890 N.pl3 701  MMV701     -0.0939
      8  N8        30.9020    4.6660   54.1250 N.pl3 701  MMV701     -0.0232
      9  C9        28.3890    6.8140   57.4380 C.3   701  MMV701      0.0585
     10  C10       29.1350    8.1420   57.6860 C.3   701  MMV701      0.0076
     11  O11       29.6630    5.0590   59.3970 O.3   701  MMV701     -0.3365
     12  C12       28.8150    4.0650   59.9350 C.3   701  MMV701      0.1726
     13  C13       28.8900    4.3460   61.4190 C.2   701  MMV701      0.0463
     14  C14       27.7240    5.1270   61.9960 C.2   701  MMV701      0.1774
     15  O15       26.6000    5.2600   61.1480 O.3   701  MMV701     -0.4507
     16  C16       25.6710    6.2670   61.2460 C.ar  701  MMV701      0.1453
     17  C17       24.3510    6.0150   60.7620 C.ar  701  MMV701      0.0348
     18  C18       23.3670    7.0370   60.8410 C.ar  701  MMV701      0.0030
     19  C19       23.6710    8.2940   61.3880 C.ar  701  MMV701      0.0002
     20  C20       24.9720    8.5480   61.8680 C.ar  701  MMV701      0.0031
     21  C21       25.9450    7.5470   61.7950 C.ar  701  MMV701      0.0375
     22  C22       23.9930    4.6590   60.1420 C.2   701  MMV701      0.0098
     23  C23       22.5090    4.3060   59.8300 C.2   701  MMV701      0.0862
     24  C24       22.2430    2.9700   59.1710 C.2   701  MMV701      0.3880
     25  O25       20.9290    2.8100   58.9710 O.co2 701  MMV701     -0.2405
     26  O26       23.0620    2.1350   58.8430 O.co2 701  MMV701     -0.2405
@<TRIPOS>BOND
     1     8     3    1
     2     3     4    2
     3     3     2    2
     4     4     5    2
     5     2     1    2
     6     5     9    1
     7     5     6    1
     8     9    10    1
     9     1     6    1
    10     1     7    1
    11     6    11    1
    12    26    24   ar
    13    25    24   ar
    14    24    23    1
    15    11    12    1
    16    23    22    2
    17    12    13    1
    18    22    17    1
    19    17    18   ar
    20    17    16   ar
    21    18    19   ar
    22    15    16    1
    23    15    14    1
    24    16    21   ar
    25    19    20   ar
    26    13    14    2
    27    21    20   ar
