@<TRIPOS>MOLECULE
4dp3_NDP_A_1.pdb
 48 52 0 0 0
SMALL
GASTEIGER

@<TRIPOS>ATOM
      1  PA        35.7340    3.9500   68.3220 P.3   702  NDP702      0.2189
      2  O1A       36.7190    3.1160   67.6730 O.2   702  NDP702     -0.5170
      3  O2A       34.3590    4.1760   67.7480 O.3   702  NDP702     -0.4371
      4  O5B       35.5130    3.3240   69.8230 O.3   702  NDP702     -0.3112
      5  C5B       36.6380    3.1760   70.6850 C.3   702  NDP702      0.1813
      6  C4B       36.0330    2.5110   71.9010 C.3   702  NDP702      0.1820
      7  O4B       35.4720    1.2330   71.4450 O.3   702  NDP702     -0.3136
      8  C3B       36.9260    2.1540   73.0130 C.3   702  NDP702      0.2157
      9  O3B       37.4460    3.2360   73.8240 O.3   702  NDP702     -0.2175
     10  C2B       36.2520    1.0180   73.6870 C.3   702  NDP702      0.2314
     11  O2B       35.0800    1.2960   74.4710 O.3   702  NDP702     -0.2630
     12  C1B       35.9170    0.2790   72.4160 C.3   702  NDP702      0.3158
     13  N9A       36.9240   -0.7080   71.9130 N.pl3 702  NDP702     -0.1439
     14  C8A       37.7500   -0.6300   70.7660 C.3   702  NDP702      0.3377
     15  N7A       38.5030   -1.7020   70.6440 N.2   702  NDP702     -0.2095
     16  C5A       38.2000   -2.5120   71.7000 C.2   702  NDP702      0.2526
     17  C6A       38.6430   -3.7980   72.1430 C.2   702  NDP702      0.4393
     18  N6A       39.5640   -4.4700   71.4640 N.pl3 702  NDP702      0.2180
     19  N1A       38.1110   -4.3330   73.2770 N.2   702  NDP702      0.0021
     20  C2A       37.1670   -3.6490   73.9720 C.3   702  NDP702      0.5254
     21  N3A       36.6840   -2.4420   73.6410 N.2   702  NDP702     -0.0055
     22  C4A       37.2380   -1.9210   72.4850 C.2   702  NDP702      0.3518
     23  O3        36.2620    5.3660   68.6850 O.3   702  NDP702     -0.2703
     24  PN        37.0690    6.5610   68.0260 P.3   702  NDP702      0.2189
     25  O1N       37.1020    7.6220   69.0390 O.3   702  NDP702     -0.4371
     26  O2N       38.3210    5.9650   67.4540 O.2   702  NDP702     -0.5170
     27  O5D       36.0980    6.8360   66.7780 O.3   702  NDP702     -0.3112
     28  C5D       34.7980    7.4880   66.9550 C.3   702  NDP702      0.1813
     29  C4D       34.7590    8.6940   65.9760 C.3   702  NDP702      0.1799
     30  O4D       34.7850    8.1260   64.6940 O.3   702  NDP702     -0.3327
     31  C3D       33.4000    9.3970   66.0470 C.3   702  NDP702      0.2158
     32  O3D       33.5450   10.8110   65.8780 O.3   702  NDP702     -0.2175
     33  C2D       32.5150    8.7380   65.0180 C.3   702  NDP702      0.2309
     34  O2D       31.5420    9.6520   64.5550 O.3   702  NDP702     -0.2158
     35  C1D       33.6470    8.5250   63.9320 C.3   702  NDP702      0.2263
     36  N1N       33.3410    7.4330   62.9850 N.pl3 702  NDP702     -0.2787
     37  C2N       33.4570    7.8000   61.6260 C.3   702  NDP702      0.1244
     38  C3N       33.1890    6.7710   60.6420 C.2   702  NDP702      0.0544
     39  C7N       33.3000    7.0850   59.2040 C.2   702  NDP702      0.2818
     40  O7N       33.0970    6.2550   58.3050 O.2   702  NDP702     -0.2670
     41  N7N       33.6400    8.3270   58.7970 N.am  702  NDP702     -0.0839
     42  C4N       32.8300    5.4900   61.1020 C.2   702  NDP702      0.0033
     43  C5N       32.7210    5.1610   62.4410 C.2   702  NDP702      0.0157
     44  C6N       32.9790    6.1310   63.3890 C.2   702  NDP702      0.0633
     45  P2B       35.0600    1.6720   75.9620 P.3   702  NDP702      0.5328
     46  O1X       35.7560    2.9710   76.0070 O.2   702  NDP702     -0.2224
     47  O2X       33.6490    1.7460   76.4080 O.3   702  NDP702     -0.1145
     48  O3X       35.8240    0.5990   76.7440 O.3   702  NDP702     -0.1145
@<TRIPOS>BOND
     1    40    39    2
     2    41    39   am
     3    39    38    1
     4    38    42    2
     5    38    37    1
     6    42    43    1
     7    37    36    1
     8    43    44    2
     9    36    44    1
    10    36    35    1
    11    35    30    1
    12    35    33    1
    13    34    33    1
    14    30    29    1
    15    33    31    1
    16    32    31    1
    17    29    31    1
    18    29    28    1
    19    27    28    1
    20    27    24    1
    21    26    24    2
    22     2     1    2
    23     3     1    1
    24    24    23    1
    25    24    25    1
    26     1    23    1
    27     1     4    1
    28     4     5    1
    29    15    14    1
    30    15    16    2
    31     5     6    1
    32    14    13    1
    33     7     6    1
    34     7    12    1
    35    18    17    1
    36    16    17    1
    37    16    22    1
    38     6     8    1
    39    13    12    1
    40    13    22    1
    41    17    19    2
    42    12    10    1
    43    22    21    2
    44     8    10    1
    45     8     9    1
    46    19    20    1
    47    21    20    1
    48    10    11    1
    49    11    45    1
    50    45    46    2
    51    45    47    1
    52    45    48    1
