@<TRIPOS>MOLECULE
4dpd_DHF_A_1.pdb
 32 34 0 0 0
SMALL
GASTEIGER

@<TRIPOS>ATOM
      1  N1        30.4140    4.3960   56.8980 N.2   701  DHF701     -0.2672
      2  C2        30.0550    5.2270   55.9140 C.1   701  DHF701      0.2609
      3  NA2       30.4970    4.9940   54.6620 N.pl3 701  DHF701     -0.0220
      4  N3        29.2670    6.3050   56.1260 N.2   701  DHF701     -0.2466
      5  C4        28.7670    6.6170   57.3440 C.1   701  DHF701      0.2569
      6  O4        28.0310    7.6230   57.5030 O.2   701  DHF701     -0.2052
      7  C4A       29.1080    5.7220   58.4750 C.2   701  DHF701      0.2988
      8  N5        28.6530    5.9430   59.7260 N.2   701  DHF701     -0.3839
      9  C6        28.9900    5.1020   60.7390 C.2   701  DHF701      0.1356
     10  C7        29.8770    3.8940   60.4980 C.3   701  DHF701      0.1931
     11  N8        30.3390    3.7140   59.1180 N.2   701  DHF701     -0.1992
     12  C8A       29.9810    4.5700   58.1580 C.1   701  DHF701      0.1401
     13  C9        28.4950    5.3180   62.1550 C.3   701  DHF701      0.1683
     14  N10       27.5700    6.4410   62.2530 N.pl3 701  DHF701     -0.2303
     15  C11       23.5740    6.0440   61.2780 C.ar  701  DHF701      0.0551
     16  C12       23.9790    7.1520   62.0170 C.ar  701  DHF701      0.0059
     17  C13       25.3280    7.2850   62.3520 C.ar  701  DHF701      0.0162
     18  C14       26.2540    6.3170   61.9410 C.ar  701  DHF701      0.0658
     19  C15       25.8400    5.2190   61.1950 C.ar  701  DHF701      0.0162
     20  C16       24.4960    5.0910   60.8680 C.ar  701  DHF701      0.0059
     21  C         22.1570    5.8320   60.8720 C.2   701  DHF701      0.2652
     22  O         21.2650    6.5240   61.3240 O.2   701  DHF701     -0.2684
     23  N         21.9680    4.8620   59.9900 N.am  701  DHF701     -0.1918
     24  CA        20.6760    4.4060   59.5270 C.3   701  DHF701      0.1986
     25  CB        20.0950    5.3680   58.4820 C.3   701  DHF701      0.0451
     26  CG        20.3440    4.9190   57.0380 C.3   701  DHF701      0.1164
     27  CD        19.2740    5.4850   56.1310 C.2   701  DHF701      0.3649
     28  OE1       18.1380    5.6780   56.6230 O.co2 701  DHF701     -0.2457
     29  OE2       19.5630    5.7420   54.9360 O.co2 701  DHF701     -0.2457
     30  CT        20.8200    3.0150   58.9680 C.2   701  DHF701      0.3842
     31  O1        21.9280    2.6530   58.4690 O.co2 701  DHF701     -0.2437
     32  O2        19.8060    2.2820   59.0420 O.co2 701  DHF701     -0.2437
@<TRIPOS>BOND
     1     3     2    1
     2    29    27   ar
     3     2     4    2
     4     2     1    2
     5     4     5    2
     6    27    28   ar
     7    27    26    1
     8     1    12    2
     9    26    25    1
    10     5     6    2
    11     5     7    1
    12    12     7    1
    13    12    11    2
    14    31    30   ar
    15     7     8    2
    16    25    24    1
    17    30    32   ar
    18    30    24    1
    19    11    10    1
    20    24    23    1
    21     8     9    2
    22    23    21   am
    23    10     9    1
    24     9    13    1
    25    20    19   ar
    26    20    15   ar
    27    21    15    1
    28    21    22    2
    29    19    18   ar
    30    15    16   ar
    31    18    14    1
    32    18    17   ar
    33    16    17   ar
    34    13    14    1
