@<TRIPOS>MOLECULE
4dpd_NAP_A_1.pdb
 48 52 0 0 0
SMALL
GASTEIGER

@<TRIPOS>ATOM
      1  PA        35.1920    4.1550   68.6750 P.3   702  NAP702      0.2189
      2  O1A       36.4220    3.6100   67.9720 O.2   702  NAP702     -0.5170
      3  O2A       33.7910    4.0760   68.1210 O.3   702  NAP702     -0.4371
      4  O5B       35.1040    3.5200   70.1590 O.3   702  NAP702     -0.3112
      5  C5B       36.2250    3.3060   71.0060 C.3   702  NAP702      0.1813
      6  C4B       35.6420    2.5110   72.1660 C.3   702  NAP702      0.1820
      7  O4B       35.1380    1.2250   71.7660 O.3   702  NAP702     -0.3136
      8  C3B       36.6230    2.2220   73.2810 C.3   702  NAP702      0.2157
      9  O3B       36.7520    3.3640   74.1230 O.3   702  NAP702     -0.2175
     10  C2B       35.9340    1.0490   73.9400 C.3   702  NAP702      0.2314
     11  O2B       34.7500    1.4490   74.6360 O.3   702  NAP702     -0.2630
     12  C1B       35.4440    0.2500   72.7580 C.3   702  NAP702      0.3158
     13  N9A       36.5210   -0.6520   72.2970 N.pl3 702  NAP702     -0.1439
     14  C8A       37.3100   -0.4950   71.2230 C.3   702  NAP702      0.3377
     15  N7A       38.2050   -1.5050   71.0910 N.2   702  NAP702     -0.2095
     16  C5A       37.9920   -2.3460   72.1040 C.2   702  NAP702      0.2526
     17  C6A       38.5780   -3.6270   72.5650 C.2   702  NAP702      0.4393
     18  N6A       39.5940   -4.2310   71.8900 N.pl3 702  NAP702      0.2180
     19  N1A       38.0540   -4.1720   73.6880 N.2   702  NAP702      0.0021
     20  C2A       37.0470   -3.5890   74.3650 C.3   702  NAP702      0.5254
     21  N3A       36.4660   -2.4370   74.0110 N.2   702  NAP702     -0.0055
     22  C4A       36.8880   -1.7780   72.9060 C.2   702  NAP702      0.3518
     23  O3        35.4800    5.6680   69.0820 O.3   702  NAP702     -0.2703
     24  PN        36.3320    6.6980   68.2100 P.3   702  NAP702      0.2189
     25  O1N       36.3840    7.9820   69.0240 O.3   702  NAP702     -0.4371
     26  O2N       37.6150    6.0080   67.8160 O.2   702  NAP702     -0.5170
     27  O5D       35.2830    6.8770   67.0000 O.3   702  NAP702     -0.3112
     28  C5D       34.0500    7.6000   67.1810 C.3   702  NAP702      0.1813
     29  C4D       34.0250    8.7510   66.1750 C.3   702  NAP702      0.1799
     30  O4D       34.1720    8.2320   64.8420 O.3   702  NAP702     -0.3327
     31  C3D       32.7290    9.5240   66.1320 C.3   702  NAP702      0.2158
     32  O3D       33.0830   10.8660   65.7860 O.3   702  NAP702     -0.2175
     33  C2D       31.9430    8.9230   64.9860 C.3   702  NAP702      0.2309
     34  O2D       31.0260    9.8710   64.4340 O.3   702  NAP702     -0.2158
     35  C1D       33.0640    8.6260   64.0290 C.3   702  NAP702      0.2263
     36  N1N       32.8190    7.5950   63.0360 N.pl3 702  NAP702     -0.2787
     37  C2N       33.0400    7.9520   61.7580 C.3   702  NAP702      0.1244
     38  C3N       32.8570    7.0480   60.7150 C.2   702  NAP702      0.0544
     39  C7N       33.1390    7.4550   59.2830 C.2   702  NAP702      0.2818
     40  O7N       33.1770    6.5970   58.4350 O.2   702  NAP702     -0.2670
     41  N7N       33.4380    8.7070   58.9520 N.am  702  NAP702     -0.0839
     42  C4N       32.4430    5.7420   61.0410 C.2   702  NAP702      0.0033
     43  C5N       32.2290    5.3960   62.3890 C.2   702  NAP702      0.0157
     44  C6N       32.4360    6.3570   63.3860 C.2   702  NAP702      0.0633
     45  P2B       34.7790    1.6460   76.2380 P.3   702  NAP702      0.5328
     46  O1X       35.6720    0.5270   76.7240 O.3   702  NAP702     -0.1145
     47  O2X       35.3530    3.0300   76.4220 O.2   702  NAP702     -0.2224
     48  O3X       33.3490    1.5140   76.6830 O.3   702  NAP702     -0.1145
@<TRIPOS>BOND
     1    40    39    2
     2    41    39   am
     3    39    38    1
     4    38    42    2
     5    38    37    1
     6    42    43    1
     7    37    36    1
     8    43    44    2
     9    36    44    1
    10    36    35    1
    11    35    30    1
    12    35    33    1
    13    34    33    1
    14    30    29    1
    15    33    31    1
    16    32    31    1
    17    31    29    1
    18    29    28    1
    19    27    28    1
    20    27    24    1
    21    26    24    2
    22     2     1    2
    23     3     1    1
    24    24    25    1
    25    24    23    1
    26     1    23    1
    27     1     4    1
    28     4     5    1
    29     5     6    1
    30    15    14    1
    31    15    16    2
    32    14    13    1
    33     7     6    1
    34     7    12    1
    35    18    17    1
    36    16    17    1
    37    16    22    1
    38     6     8    1
    39    13    12    1
    40    13    22    1
    41    17    19    2
    42    12    10    1
    43    22    21    2
    44     8    10    1
    45     8     9    1
    46    19    20    1
    47    10    11    1
    48    21    20    1
    49    11    45    1
    50    45    47    2
    51    45    48    1
    52    45    46    1
