@<TRIPOS>MOLECULE
4dpd_UMP_A_1.pdb
 20 21 0 0 0
SMALL
GASTEIGER

@<TRIPOS>ATOM
      1  N1        44.1160   20.5050   19.1910 N.am  703  UMP703     -0.1790
      2  C2        43.2670   20.0030   20.2310 C.1   703  UMP703      0.2844
      3  N3        42.4600   20.8540   20.8670 N.2   703  UMP703     -0.2452
      4  C4        42.4240   22.1660   20.5690 C.1   703  UMP703      0.2182
      5  C5        43.2340   22.6930   19.5760 C.2   703  UMP703      0.1242
      6  C6        44.0860   21.8300   18.9050 C.2   703  UMP703      0.0928
      7  O2        43.2150   18.8040   20.5910 O.2   703  UMP703     -0.1918
      8  O4        41.6610   22.9300   21.1800 O.2   703  UMP703     -0.2085
      9  C1'       45.0900   19.6790   18.4480 C.3   703  UMP703      0.2090
     10  C2'       44.5990   18.5370   17.5500 C.3   703  UMP703      0.0874
     11  C3'       45.7400   18.4570   16.5300 C.3   703  UMP703      0.1857
     12  C4'       46.2590   19.8860   16.4010 C.3   703  UMP703      0.1774
     13  O3'       46.8440   17.6950   17.0290 O.3   703  UMP703     -0.2203
     14  O4'       45.9200   20.5350   17.6320 O.3   703  UMP703     -0.3339
     15  C5'       45.6310   20.5800   15.1920 C.3   703  UMP703      0.1858
     16  O5'       45.8860   19.6730   14.1230 O.3   703  UMP703     -0.2675
     17  P         45.3470   19.7900   12.6240 P.3   703  UMP703      0.5327
     18  OP1       46.5460   19.3400   11.8380 O.2   703  UMP703     -0.2224
     19  OP2       44.2740   18.7580   12.6140 O.3   703  UMP703     -0.1145
     20  OP3       44.9010   21.2200   12.4460 O.3   703  UMP703     -0.1145
@<TRIPOS>BOND
     1    18    17    2
     2    20    17    1
     3    19    17    1
     4    17    16    1
     5    16    15    1
     6    15    12    1
     7    12    11    1
     8    12    14    1
     9    11    13    1
    10    11    10    1
    11    10     9    1
    12    14     9    1
    13     9     1    1
    14     6     1    1
    15     6     5    2
    16     1     2   am
    17     5     4    1
    18     2     7    2
    19     2     3    2
    20     4     3    2
    21     4     8    2
