@<TRIPOS>MOLECULE
4dpe_NGH_B_1.pdb
 21 21 0 0 0
SMALL
GASTEIGER

@<TRIPOS>ATOM
      1  C1         2.2130   -8.0480   -1.4740 C.ar  313  NGH313      0.0230
      2  C2         1.7810   -7.6930   -2.7650 C.ar  313  NGH313      0.0383
      3  C3         2.4310   -8.0900   -3.9130 C.ar  313  NGH313      0.1388
      4  C4         3.6020   -8.8600   -3.7800 C.ar  313  NGH313      0.0383
      5  C5         4.0260   -9.2000   -2.4900 C.ar  313  NGH313      0.0230
      6  C6         3.3600   -8.8110   -1.3220 C.ar  313  NGH313      0.1224
      7  O1         1.9340   -7.6970   -5.1330 O.3   313  NGH313     -0.4714
      8  C7         2.2610   -8.3310   -6.3660 C.3   313  NGH313      0.2525
      9  S1         3.9620   -9.2150    0.1570 S.O2  313  NGH313      0.0637
     10  O2         3.6170   -8.1540    1.1620 O.2   313  NGH313     -0.1528
     11  O3         5.4160   -9.2680   -0.1240 O.2   313  NGH313     -0.1528
     12  N          3.3960  -10.5320    0.6770 N.3   313  NGH313     -0.1460
     13  C9         4.1060  -11.7710    0.3770 C.3   313  NGH313      0.0963
     14  C10        2.1620  -10.4700    1.5120 C.3   313  NGH313      0.1857
     15  C11        0.8930  -10.4500    0.6570 C.2   313  NGH313      0.3015
     16  N1        -0.0120   -9.4850    0.8490 N.am  313  NGH313      0.0400
     17  O4        -1.0520   -9.4290    0.1760 O.2   313  NGH313     -0.1531
     18  O5         0.7290  -11.3150   -0.1910 O.2   313  NGH313     -0.2682
     19  C12        4.3140  -12.5540    1.6910 C.3   313  NGH313      0.0178
     20  C13        4.0740  -14.0750    1.5230 C.3   313  NGH313      0.0015
     21  C14        5.6850  -12.2180    2.2990 C.3   313  NGH313      0.0015
@<TRIPOS>BOND
     1     8     7    1
     2     7     3    1
     3     3     4   ar
     4     3     2   ar
     5     4     5   ar
     6     2     1   ar
     7     5     6   ar
     8     1     6   ar
     9     6     9    1
    10    18    15    2
    11    11     9    2
    12     9    12    1
    13     9    10    2
    14    17    16    2
    15    13    12    1
    16    13    19    1
    17    15    16    1
    18    15    14    1
    19    12    14    1
    20    20    19    1
    21    19    21    1
