@<TRIPOS>MOLECULE
4dpf_0LG_A_1.pdb
 46 49 0 0 0
SMALL
GASTEIGER

@<TRIPOS>ATOM
      1  O14        7.5780   -0.4430  -10.6280 O.2   500  0LG500     -0.1542
      2  S11        7.3040   -1.1830  -11.7790 S.O2  500  0LG500      0.0588
      3  O13        5.9760   -1.6610  -11.7930 O.2   500  0LG500     -0.1542
      4  C12        8.4810   -2.4350  -11.8480 C.3   500  0LG500      0.1999
      5  N7         7.5460   -0.1170  -13.0160 N.pl3 500  0LG500     -0.1925
      6  C10        8.8770    0.5160  -13.0700 C.3   500  0LG500      0.1388
      7  C6         6.9980   -0.4060  -14.3180 C.ar  500  0LG500      0.0699
      8  C1         6.4810   -1.6510  -14.6830 C.ar  500  0LG500      0.0278
      9  C2         5.9540   -1.8230  -15.9310 C.ar  500  0LG500      0.0848
     10  C5         6.9870    0.6680  -15.2270 C.ar  500  0LG500      0.0278
     11  C4         6.4310    0.4680  -16.4850 C.ar  500  0LG500      0.0848
     12  C3         5.9280   -0.7750  -16.8360 C.ar  500  0LG500      0.0233
     13  C8         6.3730    1.5850  -17.4780 C.1   500  0LG500      0.1502
     14  O15        7.2760    2.3960  -17.5970 O.2   500  0LG500     -0.2222
     15  N16        5.2450    1.5860  -18.1650 N.2   500  0LG500     -0.1993
     16  C17        4.8980    2.4830  -19.2910 C.3   500  0LG500      0.1759
     17  C18        3.9740    3.6200  -18.7920 C.3   500  0LG500      0.1948
     18  C19        4.6910    4.5020  -17.7770 C.3   500  0LG500      0.1240
     19  N20        3.9380    5.6950  -17.4350 N.3   500  0LG500     -0.2105
     20  C37        4.6560    6.8050  -16.8220 C.3   500  0LG500      0.1151
     21  C38        5.7220    7.3850  -17.7290 C.ar  500  0LG500     -0.0051
     22  C39        5.3590    7.9170  -18.9450 C.ar  500  0LG500     -0.0072
     23  C40        6.2920    8.4520  -19.8100 C.ar  500  0LG500     -0.0228
     24  C44        5.7980    8.9570  -21.1210 C.3   500  0LG500      0.0223
     25  C45        5.0330   10.2400  -20.9540 C.3   500  0LG500      0.0047
     26  C46        6.9320    9.1060  -22.1170 C.3   500  0LG500      0.0047
     27  C41        7.6410    8.4400  -19.4490 C.ar  500  0LG500     -0.0043
     28  C42        8.0050    7.8980  -18.2150 C.ar  500  0LG500     -0.0006
     29  C43        7.0720    7.3800  -17.3280 C.ar  500  0LG500     -0.0029
     30  O21        3.5880    4.4510  -19.9130 O.3   500  0LG500     -0.2194
     31  C22        4.1810    1.6140  -20.3580 C.3   500  0LG500      0.1703
     32  O34        4.8280    0.3110  -20.5180 O.3   500  0LG500     -0.3468
     33  C35        3.9460   -0.7780  -20.9130 C.3   500  0LG500      0.1681
     34  C36        4.5040   -2.1700  -20.5860 C.2   500  0LG500      0.0011
     35  C33        3.9550   -3.0700  -19.7950 C.2   500  0LG500     -0.0258
     36  C26        4.7130   -4.3800  -19.6330 C.3   500  0LG500      0.0554
     37  C25        4.8420   -4.7240  -18.1370 C.3   500  0LG500      0.1413
     38  N23        5.5020   -3.5510  -17.5570 N.2   500  0LG500     -0.1997
     39  C9         5.3080   -3.1100  -16.3360 C.1   500  0LG500      0.1504
     40  O24        4.5210   -3.6290  -15.5340 O.2   500  0LG500     -0.2222
     41  C27        5.5670   -5.9990  -17.9190 C.ar  500  0LG500      0.0010
     42  C28        6.9250   -6.1660  -18.1940 C.ar  500  0LG500     -0.0024
     43  C29        7.4990   -7.3960  -17.9330 C.ar  500  0LG500     -0.0003
     44  C30        6.7320   -8.4550  -17.4050 C.ar  500  0LG500     -0.0000
     45  C31        5.3740   -8.3040  -17.1460 C.ar  500  0LG500     -0.0003
     46  C32        4.8030   -7.0630  -17.4030 C.ar  500  0LG500     -0.0024
@<TRIPOS>BOND
     1    26    24    1
     2    24    25    1
     3    24    23    1
     4    33    34    1
     5    33    32    1
     6    34    35    2
     7    32    31    1
     8    31    16    1
     9    30    17    1
    10    23    27   ar
    11    23    22   ar
    12    35    36    1
    13    36    37    1
    14    27    28   ar
    15    16    17    1
    16    16    15    1
    17    22    21   ar
    18    17    18    1
    19    28    29   ar
    20    42    43   ar
    21    42    41   ar
    22    15    13    2
    23    37    41    1
    24    37    38    1
    25    43    44   ar
    26    41    46   ar
    27    18    19    1
    28    21    29   ar
    29    21    20    1
    30    14    13    2
    31    38    39    2
    32    13    11    1
    33    19    20    1
    34    44    45   ar
    35    46    45   ar
    36    12    11   ar
    37    12     9   ar
    38    11    10   ar
    39    39     9    1
    40    39    40    2
    41     9     8   ar
    42    10     7   ar
    43     8     7   ar
    44     7     5    1
    45     6     5    1
    46     5     2    1
    47     4     2    1
    48     3     2    2
    49     2     1    2
