@<TRIPOS>MOLECULE
4dpg_APC_A_1.pdb
 27 29 0 0 0
SMALL
GASTEIGER

@<TRIPOS>ATOM
      1  PB         1.6690   50.5540   13.2810 P.3   602  APC602      0.1295
      2  O1B        2.0030   49.1800   12.8400 O.3   602  APC602     -0.3567
      3  O2B        0.3600   51.0570   12.4890 O.2   602  APC602     -0.4595
      4  O3B        1.3490   50.5440   14.8680 O.3   602  APC602     -0.3567
      5  PA         3.7740   52.3860   14.4340 P.3   602  APC602      0.3770
      6  O1A        4.1990   53.7840   14.1860 O.2   602  APC602     -0.2550
      7  O2A        2.6680   52.3840   15.6110 O.3   602  APC602     -0.1394
      8  C3A        3.0750   51.6560   12.9210 C.3   602  APC602      0.1765
      9  O5'        5.0690   51.5320   14.8840 O.3   602  APC602     -0.2897
     10  C5'        5.6700   50.5680   14.0130 C.3   602  APC602      0.1836
     11  C4'        6.9120   49.9600   14.6720 C.3   602  APC602      0.1822
     12  O4'        6.8610   50.1390   16.0930 O.3   602  APC602     -0.3135
     13  C3'        7.0390   48.4620   14.4080 C.3   602  APC602      0.2184
     14  O3'        8.3700   48.1340   13.9710 O.3   602  APC602     -0.2174
     15  C2'        6.7230   47.7850   15.7310 C.3   602  APC602      0.2570
     16  O2'        7.7010   46.7880   16.0430 O.3   602  APC602     -0.2130
     17  C1'        6.7440   48.8870   16.7840 C.3   602  APC602      0.3186
     18  N9         5.5280   48.8790   17.6470 N.pl3 602  APC602     -0.1439
     19  C8         4.8000   49.9670   17.9440 C.3   602  APC602      0.3377
     20  N7         3.7800   49.6130   18.7580 N.2   602  APC602     -0.2095
     21  C5         3.8750   48.2870   18.9800 C.2   602  APC602      0.2526
     22  C6         3.1170   47.3970   19.7280 C.2   602  APC602      0.4393
     23  N6         2.0290   47.8270   20.4210 N.pl3 602  APC602      0.2180
     24  N1         3.4860   46.0960   19.7440 N.2   602  APC602      0.0021
     25  C2         4.5580   45.6610   19.0570 C.3   602  APC602      0.5254
     26  N3         5.3000   46.5020   18.3300 N.2   602  APC602     -0.0055
     27  C4         4.9820   47.8230   18.2780 C.2   602  APC602      0.3518
@<TRIPOS>BOND
     1     3     1    2
     2     2     1    1
     3     8     1    1
     4     8     5    1
     5     1     4    1
     6    14    13    1
     7    10    11    1
     8    10     9    1
     9     6     5    2
    10    13    11    1
    11    13    15    1
    12     5     9    1
    13     5     7    1
    14    11    12    1
    15    15    16    1
    16    15    17    1
    17    12    17    1
    18    17    18    1
    19    18    19    1
    20    18    27    1
    21    19    20    1
    22    27    26    2
    23    27    21    1
    24    26    25    1
    25    20    21    2
    26    21    22    1
    27    25    24    1
    28    22    24    2
    29    22    23    1
