@<TRIPOS>MOLECULE
4dpg_LYS_A_1.pdb
 10 9 0 0 0
SMALL
GASTEIGER

@<TRIPOS>ATOM
      1  N         12.3470   55.9970   17.0180 N.3   601  LYS601     -0.1208
      2  CA        12.0580   55.3400   15.7370 C.3   601  LYS601      0.1943
      3  C         10.7570   54.5020   15.7500 C.2   601  LYS601      0.3819
      4  O         10.4440   53.7810   14.7920 O.co2 601  LYS601     -0.2441
      5  CB        13.2580   54.4810   15.3200 C.3   601  LYS601      0.0307
      6  CG        14.5270   55.2770   15.0790 C.3   601  LYS601      0.0036
      7  CD        14.6090   55.7580   13.6410 C.3   601  LYS601      0.0206
      8  CE        15.9730   56.3730   13.3300 C.3   601  LYS601      0.1093
      9  NZ        16.1560   57.6380   14.0900 N.3   601  LYS601     -0.1314
     10  OXT        9.9920   54.5280   16.7260 O.co2 601  LYS601     -0.2441
@<TRIPOS>BOND
     1     8     7    1
     2     8     9    1
     3     7     6    1
     4     4     3   ar
     5     6     5    1
     6     5     2    1
     7     2     3    1
     8     2     1    1
     9     3    10   ar
