@<TRIPOS>MOLECULE
4dph_P65_A_1.pdb
 23 24 0 0 0
SMALL
GASTEIGER

@<TRIPOS>ATOM
      1  NH2       31.1560    3.0950   58.6780 N.pl3 701  P65701     -0.0939
      2  C5        30.5810    4.0090   57.8570 C.2   701  P65701      0.2435
      3  N4        30.8820    4.0030   56.5350 N.2   701  P65701     -0.3090
      4  C3        30.3420    4.8900   55.6850 C.1   701  P65701      0.2420
      5  NH1       30.6930    4.8080   54.3810 N.pl3 701  P65701     -0.0232
      6  N2        29.4720    5.8300   56.1470 N.2   701  P65701     -0.3317
      7  C6        29.7130    4.9670   58.3520 C.3   701  P65701      0.2341
      8  C1        29.1480    5.8870   57.4790 C.2   701  P65701      0.1361
      9  CM1       28.1960    6.9360   58.0030 C.3   701  P65701      0.0657
     10  O7        29.4040    4.9780   59.6730 O.3   701  P65701     -0.3414
     11  C8        28.4550    4.0230   60.1560 C.3   701  P65701      0.1471
     12  C9        28.2130    4.1720   61.6660 C.3   701  P65701      0.0794
     13  C10       27.7000    5.5550   62.0190 C.3   701  P65701      0.2080
     14  O11       26.3040    5.6420   61.7610 O.3   701  P65701     -0.4745
     15  C12       25.6580    6.8530   61.8450 C.ar  701  P65701      0.1499
     16  C17       26.2810    7.9430   62.4710 C.ar  701  P65701      0.0500
     17  C16       25.6320    9.1710   62.5780 C.ar  701  P65701      0.0713
     18 CL3        26.2310   10.4190   63.2340 Cl    701  P65701     -0.0813
     19  C15       24.3780    9.2830   62.0430 C.ar  701  P65701      0.0692
     20 CL2        23.7550   10.6530   62.1960 Cl    701  P65701     -0.0813
     21  C14       23.7290    8.1910   61.4280 C.ar  701  P65701      0.0267
     22  C13       24.3770    6.9550   61.3220 C.ar  701  P65701      0.0924
     23 CL1        23.6930    5.7260   60.6940 Cl    701  P65701     -0.0791
@<TRIPOS>BOND
     1     5     4    1
     2     4     6    2
     3     4     3    2
     4     6     8    2
     5     3     2    2
     6     8     9    1
     7     8     7    1
     8     2     7    1
     9     2     1    1
    10     7    10    1
    11    10    11    1
    12    11    12    1
    13    23    22    1
    14    22    21   ar
    15    22    15   ar
    16    21    19   ar
    17    12    13    1
    18    14    15    1
    19    14    13    1
    20    15    16   ar
    21    19    20    1
    22    19    17   ar
    23    16    17   ar
    24    17    18    1
