@<TRIPOS>MOLECULE
4dph_NDP_A_1.pdb
 48 52 0 0 0
SMALL
GASTEIGER

@<TRIPOS>ATOM
      1  PA        35.4560    4.0210   68.5530 P.3   702  NDP702      0.2189
      2  O1A       36.6370    3.4050   67.9390 O.3   702  NDP702     -0.4371
      3  O2A       34.1680    3.8560   67.8440 O.2   702  NDP702     -0.5170
      4  O5B       35.2310    3.4090   70.0270 O.3   702  NDP702     -0.3112
      5  C5B       36.3260    3.0950   70.8630 C.3   702  NDP702      0.1813
      6  C4B       35.7220    2.3880   72.0680 C.3   702  NDP702      0.1820
      7  O4B       35.1900    1.1220   71.7100 O.3   702  NDP702     -0.3136
      8  C3B       36.7130    2.1340   73.1990 C.3   702  NDP702      0.2157
      9  O3B       36.8610    3.2510   74.0650 O.3   702  NDP702     -0.2175
     10  C2B       36.1060    0.9080   73.8480 C.3   702  NDP702      0.2314
     11  O2B       34.9060    1.1960   74.5100 O.3   702  NDP702     -0.2630
     12  C1B       35.5810    0.1480   72.6580 C.3   702  NDP702      0.3158
     13  N9A       36.6310   -0.7490   72.1540 N.pl3 702  NDP702     -0.1439
     14  C8A       37.4200   -0.6030   71.0470 C.3   702  NDP702      0.3377
     15  N7A       38.2510   -1.6670   70.9750 N.2   702  NDP702     -0.2095
     16  C5A       38.0100   -2.5040   72.0150 C.2   702  NDP702      0.2526
     17  C6A       38.5560   -3.7390   72.4100 C.2   702  NDP702      0.4393
     18  N6A       38.9160   -4.6120   71.4760 N.pl3 702  NDP702      0.2180
     19  N1A       38.0780   -4.3160   73.5700 N.2   702  NDP702      0.0021
     20  C2A       37.0600   -3.7140   74.2860 C.3   702  NDP702      0.5254
     21  N3A       36.5170   -2.5100   73.8900 N.2   702  NDP702     -0.0055
     22  C4A       36.9930   -1.9150   72.7710 C.2   702  NDP702      0.3518
     23  O3        35.7290    5.5500   68.9260 O.3   702  NDP702     -0.2703
     24  PN        36.7160    6.5560   68.1700 P.3   702  NDP702      0.2189
     25  O1N       36.8510    7.7380   69.0530 O.3   702  NDP702     -0.4371
     26  O2N       37.8670    5.7580   67.6790 O.2   702  NDP702     -0.5170
     27  O5D       35.7960    7.0320   66.9360 O.3   702  NDP702     -0.3112
     28  C5D       34.5320    7.6270   67.1150 C.3   702  NDP702      0.1813
     29  C4D       34.4250    8.7740   66.1200 C.3   702  NDP702      0.1799
     30  O4D       34.5400    8.3010   64.7790 O.3   702  NDP702     -0.3327
     31  C3D       33.0700    9.4230   66.2130 C.3   702  NDP702      0.2158
     32  O3D       33.2650   10.7710   65.8760 O.3   702  NDP702     -0.2175
     33  C2D       32.2770    8.7480   65.1250 C.3   702  NDP702      0.2309
     34  O2D       31.2680    9.5970   64.6520 O.3   702  NDP702     -0.2158
     35  C1D       33.3370    8.5290   64.0640 C.3   702  NDP702      0.2263
     36  N1N       33.0280    7.4410   63.1070 N.pl3 702  NDP702     -0.2787
     37  C2N       33.0830    7.7530   61.7760 C.3   702  NDP702      0.1244
     38  C3N       32.9760    6.8120   60.7400 C.2   702  NDP702      0.0544
     39  C7N       33.0670    7.2710   59.2960 C.2   702  NDP702      0.2818
     40  O7N       33.3050    6.2890   58.3140 O.2   702  NDP702     -0.2670
     41  N7N       32.9290    8.5710   58.9850 N.am  702  NDP702     -0.0839
     42  C4N       32.7760    5.3410   61.0620 C.2   702  NDP702      0.0033
     43  C5N       32.7150    5.1140   62.5510 C.2   702  NDP702      0.0157
     44  C6N       32.8460    6.1420   63.4920 C.2   702  NDP702      0.0633
     45  P2B       34.7970    1.5690   76.0640 P.3   702  NDP702      0.5328
     46  O1X       35.0810    3.0470   76.1550 O.2   702  NDP702     -0.2224
     47  O2X       33.3850    1.2890   76.5390 O.3   702  NDP702     -0.1145
     48  O3X       35.7790    0.7210   76.8340 O.3   702  NDP702     -0.1145
@<TRIPOS>BOND
     1    40    39    2
     2    41    39   am
     3    39    38    1
     4    38    42    2
     5    38    37    1
     6    42    43    1
     7    37    36    1
     8    43    44    2
     9    36    44    1
    10    36    35    1
    11    35    30    1
    12    35    33    1
    13    34    33    1
    14    30    29    1
    15    33    31    1
    16    32    31    1
    17    29    31    1
    18    29    28    1
    19    27    28    1
    20    27    24    1
    21    26    24    2
    22     3     1    2
    23     2     1    1
    24    24    23    1
    25    24    25    1
    26     1    23    1
    27     1     4    1
    28     4     5    1
    29     5     6    1
    30    15    14    1
    31    15    16    2
    32    14    13    1
    33    18    17    1
    34     7     6    1
    35     7    12    1
    36    16    17    1
    37    16    22    1
    38     6     8    1
    39    13    12    1
    40    13    22    1
    41    17    19    2
    42    12    10    1
    43    22    21    2
    44     8    10    1
    45     8     9    1
    46    19    20    1
    47    10    11    1
    48    21    20    1
    49    11    45    1
    50    45    46    2
    51    45    47    1
    52    45    48    1
