@<TRIPOS>MOLECULE
4dpi_0N1_A_1.pdb
 41 44 0 0 0
SMALL
GASTEIGER

@<TRIPOS>ATOM
      1  C12       -2.5530   -4.2850   17.3670 C.ar  501  0N1501      0.0010
      2  C6        -7.2900   -1.5900   15.3580 C.ar  501  0N1501      0.0074
      3  C1        -7.8740   -0.3620   15.0450 C.ar  501  0N1501     -0.0204
      4  C2        -7.5710    0.8070   15.7960 C.ar  501  0N1501      0.0074
      5  C5        -6.3920   -1.6900   16.4540 C.ar  501  0N1501      0.0832
      6  C4        -6.1650   -0.5570   17.2340 C.ar  501  0N1501      0.0232
      7  C3        -6.7020    0.6800   16.8830 C.ar  501  0N1501      0.0832
      8  C8        -5.7040   -2.9470   16.8500 C.1   501  0N1501      0.1503
      9  C17       -2.2010   -5.5540   16.8760 C.ar  501  0N1501     -0.0024
     10  C18       -3.8310   -3.9130   19.6080 C.3   501  0N1501      0.0554
     11  C19       -3.6130   -2.4890   20.0920 C.2   501  0N1501     -0.0258
     12  C37       -5.5210    8.1460   19.1550 C.ar  501  0N1501     -0.0072
     13  C38       -5.8240    9.0420   21.3870 C.3   501  0N1501      0.0223
     14  C39       -5.2670   10.4460   21.2630 C.3   501  0N1501      0.0047
     15  C40       -6.6680    8.8170   22.6390 C.3   501  0N1501      0.0047
     16  C41       -4.2620    1.8610   20.4580 C.3   501  0N1501      0.1703
     17  C35       -7.7760    8.6230   19.7660 C.ar  501  0N1501     -0.0043
     18  C36       -6.4400    8.6080   20.0920 C.ar  501  0N1501     -0.0228
     19  C33       -7.2850    7.6800   17.5910 C.ar  501  0N1501     -0.0029
     20  C25       -6.4460    1.8840   17.7320 C.1   501  0N1501      0.1501
     21  C27       -4.1610    3.9310   19.0150 C.3   501  0N1501      0.1948
     22  C29       -4.8840    4.7840   17.9550 C.3   501  0N1501      0.1240
     23  C31       -4.8810    7.1310   16.9430 C.3   501  0N1501      0.1151
     24  C32       -5.9300    7.6610   17.9220 C.ar  501  0N1501     -0.0051
     25  O26       -7.3940    2.7290   17.8780 O.2   501  0N1501     -0.2222
     26  N24       -5.2480    1.9280   18.3100 N.2   501  0N1501     -0.1993
     27  C23       -4.9970    2.7420   19.4720 C.3   501  0N1501      0.1759
     28  N30       -4.1300    5.9700   17.5270 N.3   501  0N1501     -0.2105
     29  C34       -8.2010    8.1320   18.5330 C.ar  501  0N1501     -0.0006
     30  O28       -3.7460    4.7230   20.1540 O.3   501  0N1501     -0.2194
     31  O22       -4.9760    0.6120   20.6100 O.3   501  0N1501     -0.3468
     32  C21       -4.1540   -0.4140   21.2310 C.3   501  0N1501      0.1681
     33  C20       -4.5270   -1.8210   20.8140 C.2   501  0N1501      0.0011
     34  C11       -3.8820   -4.0720   18.0850 C.3   501  0N1501      0.1413
     35  C16       -0.9920   -5.7390   16.1720 C.ar  501  0N1501     -0.0003
     36  C15       -0.1510   -4.6340   15.9610 C.ar  501  0N1501     -0.0000
     37  C14       -0.5010   -3.3610   16.4140 C.ar  501  0N1501     -0.0003
     38  C13       -1.7190   -3.2030   17.0700 C.ar  501  0N1501     -0.0024
     39  N10       -4.5550   -2.9050   17.5850 N.2   501  0N1501     -0.1997
     40  O9        -6.1840   -4.0010   16.0000 O.2   501  0N1501     -0.2222
     41  C7        -8.8380   -0.2240   13.8750 C.3   501  0N1501      0.0311
@<TRIPOS>BOND
     1    41     3    1
     2     3     2   ar
     3     3     4   ar
     4     2     5   ar
     5     4     7   ar
     6    36    35   ar
     7    36    37   ar
     8    40     8    2
     9    35     9   ar
    10    37    38   ar
    11     5     8    1
    12     5     6   ar
    13     8    39    2
    14     9     1   ar
    15     7     6   ar
    16     7    20    1
    17    23    28    1
    18    23    24    1
    19    38     1   ar
    20     1    34    1
    21    28    22    1
    22    39    34    1
    23    19    24   ar
    24    19    29   ar
    25    20    25    2
    26    20    26    2
    27    24    12   ar
    28    22    21    1
    29    34    10    1
    30    26    27    1
    31    29    17   ar
    32    21    27    1
    33    21    30    1
    34    12    18   ar
    35    27    16    1
    36    10    11    1
    37    17    18   ar
    38    18    13    1
    39    11    33    2
    40    16    31    1
    41    31    32    1
    42    33    32    1
    43    14    13    1
    44    13    15    1
