@<TRIPOS>MOLECULE
4dpl_NAP_A_1.pdb
 48 52 0 0 0
SMALL
GASTEIGER

@<TRIPOS>ATOM
      1  PA        58.6750    3.8890    1.9090 P.3   401  NAP401      0.2189
      2  O1A       58.7410    2.3670    2.0980 O.3   401  NAP401     -0.4371
      3  O2A       59.4300    4.5750    0.7940 O.2   401  NAP401     -0.5170
      4  O5B       59.0260    4.6820    3.3020 O.3   401  NAP401     -0.3112
      5  C5B       59.0020    4.1780    4.6360 C.3   401  NAP401      0.1813
      6  C4B       59.4410    5.3560    5.5230 C.3   401  NAP401      0.1820
      7  O4B       58.7430    5.3440    6.7740 O.3   401  NAP401     -0.3136
      8  C3B       60.9270    5.3010    5.8720 C.3   401  NAP401      0.2157
      9  O3B       61.4450    6.6370    5.8380 O.3   401  NAP401     -0.2175
     10  C2B       61.0250    4.8020    7.3070 C.3   401  NAP401      0.2314
     11  O2B       62.1140    5.4280    7.9990 O.3   401  NAP401     -0.2630
     12  C1B       59.6690    5.2250    7.8910 C.3   401  NAP401      0.3158
     13  N9A       59.0770    4.2610    8.8620 N.pl3 401  NAP401     -0.1439
     14  C8A       58.7460    2.9650    8.6110 C.3   401  NAP401      0.3377
     15  N7A       58.1960    2.4290    9.7310 N.2   401  NAP401     -0.2095
     16  C5A       58.1730    3.4060   10.6710 C.2   401  NAP401      0.2526
     17  C6A       57.7240    3.4400   11.9750 C.2   401  NAP401      0.4393
     18  N6A       57.2040    2.3090   12.4980 N.pl3 401  NAP401      0.2180
     19  N1A       57.8230    4.5870   12.7040 N.2   401  NAP401      0.0021
     20  C2A       58.3560    5.6910   12.1500 C.3   401  NAP401      0.5254
     21  N3A       58.8040    5.6770   10.8730 N.2   401  NAP401     -0.0055
     22  C4A       58.7220    4.5540   10.1280 C.2   401  NAP401      0.3518
     23  O3        57.0660    4.2360    1.7980 O.3   401  NAP401     -0.2703
     24  PN        56.3730    5.4060    0.8590 P.3   401  NAP401      0.2189
     25  O1N       56.9750    6.7870    1.1630 O.3   401  NAP401     -0.4371
     26  O2N       56.1010    4.9710   -0.5910 O.2   401  NAP401     -0.5170
     27  O5D       54.9030    5.4160    1.5830 O.3   401  NAP401     -0.3112
     28  C5D       54.6540    5.7290    2.9620 C.3   401  NAP401      0.1813
     29  C4D       53.1320    5.8190    3.1470 C.3   401  NAP401      0.1799
     30  O4D       52.4890    6.8070    2.2990 O.3   401  NAP401     -0.3327
     31  C3D       52.4600    4.4810    2.8390 C.3   401  NAP401      0.2158
     32  O3D       51.3570    4.3310    3.7260 O.3   401  NAP401     -0.2175
     33  C2D       51.9070    4.6520    1.4390 C.3   401  NAP401      0.2309
     34  O2D       50.8030    3.7630    1.2410 O.3   401  NAP401     -0.2158
     35  C1D       51.5130    6.1450    1.4470 C.3   401  NAP401      0.2263
     36  N1N       51.4480    6.6420    0.0630 N.pl3 401  NAP401     -0.2787
     37  C2N       52.3190    6.2080   -0.9310 C.3   401  NAP401      0.1244
     38  C3N       52.3040    6.8320   -2.1390 C.2   401  NAP401      0.0544
     39  C7N       53.3140    6.6440   -3.0820 C.2   401  NAP401      0.2818
     40  O7N       53.0620    6.8320   -4.3060 O.2   401  NAP401     -0.2670
     41  N7N       54.5020    6.2660   -2.5700 N.am  401  NAP401     -0.0839
     42  C4N       51.2610    7.7010   -2.4500 C.2   401  NAP401      0.0033
     43  C5N       50.2670    8.0110   -1.4980 C.2   401  NAP401      0.0157
     44  C6N       50.4310    7.5580   -0.2220 C.2   401  NAP401      0.0633
     45  P2B       63.5130    4.6660    8.3500 P.3   401  NAP401      0.5328
     46  O1X       63.9400    4.0580    7.0200 O.2   401  NAP401     -0.2224
     47  O2X       64.3280    5.8050    8.9710 O.3   401  NAP401     -0.1145
     48  O3X       63.0360    3.5560    9.2560 O.3   401  NAP401     -0.1145
@<TRIPOS>BOND
     1    40    39    2
     2    39    41   am
     3    39    38    1
     4    42    38    2
     5    42    43    1
     6    38    37    1
     7    43    44    2
     8    37    36    1
     9    26    24    2
    10    44    36    1
    11    36    35    1
    12     3     1    2
    13    24    25    1
    14    24    27    1
    15    24    23    1
    16    34    33    1
    17    33    35    1
    18    33    31    1
    19    35    30    1
    20    27    28    1
    21    23     1    1
    22     1     2    1
    23     1     4    1
    24    30    29    1
    25    31    29    1
    26    31    32    1
    27    28    29    1
    28     4     5    1
    29     5     6    1
    30     6     8    1
    31     6     7    1
    32     9     8    1
    33     8    10    1
    34     7    12    1
    35    46    45    2
    36    10    12    1
    37    10    11    1
    38    12    13    1
    39    11    45    1
    40    45    47    1
    41    45    48    1
    42    14    13    1
    43    14    15    1
    44    13    22    1
    45    15    16    2
    46    22    16    1
    47    22    21    2
    48    16    17    1
    49    21    20    1
    50    17    18    1
    51    17    19    2
    52    20    19    1
