@<TRIPOS>MOLECULE
4dpm_COA_A_1.pdb
 48 50 0 0 0
SMALL
GASTEIGER

@<TRIPOS>ATOM
      1  N1A      -13.7220  -19.7660   25.4520 N.2   402  COA402      0.0021
      2  C2A      -14.4750  -20.4600   24.5850 C.3   402  COA402      0.5254
      3  N3A      -15.0770  -19.8170   23.5450 N.2   402  COA402     -0.0055
      4  C4A      -15.0010  -18.5250   23.3960 C.2   402  COA402      0.3518
      5  C5A      -14.3010  -17.7470   24.2830 C.2   402  COA402      0.2526
      6  C6A      -13.5760  -18.4000   25.3260 C.2   402  COA402      0.4393
      7  N6A      -12.8700  -17.7260   26.2200 N.pl3 402  COA402      0.2180
      8  N7A      -14.4230  -16.5170   23.8710 N.2   402  COA402     -0.2095
      9  C8A      -15.2290  -16.5630   22.7710 C.3   402  COA402      0.3377
     10  N9A      -15.5820  -17.8160   22.4760 N.pl3 402  COA402     -0.1439
     11  C1B      -16.5610  -18.3630   21.5410 C.3   402  COA402      0.3185
     12  C2B      -17.7840  -17.3890   21.4350 C.3   402  COA402      0.2543
     13  O2B      -18.7170  -17.3250   22.5110 O.3   402  COA402     -0.2131
     14  C3B      -18.5190  -17.8820   20.1630 C.3   402  COA402      0.1928
     15  O3B      -19.3000  -18.9900   20.5810 O.3   402  COA402     -0.2673
     16  P3B      -20.8350  -19.4070   20.5450 P.3   402  COA402      0.5327
     17  O7A      -21.7890  -18.2030   20.6760 O.3   402  COA402     -0.1145
     18  O8A      -20.9510  -19.8630   19.1230 O.2   402  COA402     -0.2224
     19  O9A      -20.9500  -20.1600   21.7950 O.3   402  COA402     -0.1145
     20  C4B      -17.3090  -18.4470   19.3470 C.3   402  COA402      0.1795
     21  O4B      -16.1700  -18.5980   20.2540 O.3   402  COA402     -0.3136
     22  C5B      -16.6770  -17.6590   18.1840 C.3   402  COA402      0.1812
     23  O5B      -16.8050  -16.3750   18.7780 O.3   402  COA402     -0.3112
     24  P1A      -16.0910  -14.9760   18.2790 P.3   402  COA402      0.2189
     25  O1A      -17.3900  -14.2380   17.8680 O.2   402  COA402     -0.5170
     26  O2A      -15.3520  -14.1520   19.3980 O.3   402  COA402     -0.4371
     27  O3A      -15.4020  -15.1800   16.9680 O.3   402  COA402     -0.2703
     28  P2A      -15.3640  -13.9740   15.8270 P.3   402  COA402      0.2188
     29  O4A      -15.5750  -12.5340   16.4030 O.3   402  COA402     -0.4371
     30  O5A      -16.0120  -14.3030   14.4580 O.2   402  COA402     -0.5170
     31  O6A      -13.9050  -14.1240   15.3700 O.3   402  COA402     -0.3138
     32  CBP      -11.6310  -14.2200   15.4810 C.3   402  COA402      0.0645
     33  CCP      -12.9660  -13.9190   16.3310 C.3   402  COA402      0.1519
     34  CDP      -11.3460  -15.6570   14.9420 C.3   402  COA402      0.0056
     35  CEP      -11.3900  -13.4450   14.1360 C.3   402  COA402      0.0056
     36  CAP      -10.7870  -13.7940   16.7230 C.3   402  COA402      0.2312
     37  OAP      -11.1140  -14.8990   17.6330 O.3   402  COA402     -0.2131
     38  C9P       -9.3150  -13.5810   16.6600 C.2   402  COA402      0.2719
     39  O9P       -8.9430  -12.4280   16.4650 O.2   402  COA402     -0.2706
     40  N8P       -8.5610  -14.7490   16.8660 N.am  402  COA402     -0.2028
     41  C7P       -7.1430  -15.1420   16.8960 C.3   402  COA402      0.1248
     42  C6P       -6.9170  -15.8550   15.4920 C.3   402  COA402      0.1102
     43  C5P       -6.6930  -14.8270   14.3770 C.2   402  COA402      0.2432
     44  O5P       -5.5680  -14.2700   14.1780 O.2   402  COA402     -0.2733
     45  N4P       -7.8100  -14.5250   13.6720 N.am  402  COA402     -0.2044
     46  C3P       -7.9160  -13.5670   12.5420 C.3   402  COA402      0.1276
     47  C2P       -7.5690  -14.4870   11.3550 C.3   402  COA402      0.0920
     48  S1P       -7.5910  -13.7390    9.7490 S.3   402  COA402     -0.0802
@<TRIPOS>BOND
     1    48    47    1
     2    47    46    1
     3    46    45    1
     4    45    43   am
     5    35    32    1
     6    44    43    2
     7    43    42    1
     8    30    28    2
     9    34    32    1
    10    31    28    1
    11    31    33    1
    12    32    33    1
    13    32    36    1
    14    42    41    1
    15    28    29    1
    16    28    27    1
    17    39    38    2
    18    38    36    1
    19    38    40   am
    20    36    37    1
    21    40    41    1
    22    27    24    1
    23    25    24    2
    24    22    23    1
    25    22    20    1
    26    24    23    1
    27    24    26    1
    28    18    16    2
    29    20    14    1
    30    20    21    1
    31    14    15    1
    32    14    12    1
    33    21    11    1
    34    16    15    1
    35    16    17    1
    36    16    19    1
    37    12    11    1
    38    12    13    1
    39    11    10    1
    40    10     9    1
    41    10     4    1
    42     9     8    1
    43     4     3    2
    44     4     5    1
    45     3     2    1
    46     8     5    2
    47     5     6    1
    48     2     1    1
    49     6     1    2
    50     6     7    1
