@<TRIPOS>MOLECULE
4dpn_STL_A_1.pdb
 17 18 0 0 0
SMALL
GASTEIGER

@<TRIPOS>ATOM
      1  C1       -23.2970   -9.4190  -14.8170 C.ar  303  STL303      0.1989
      2  C2       -22.7060   -8.1680  -14.7490 C.ar  303  STL303      0.0840
      3  C3       -22.7370   -7.3050  -15.8370 C.ar  303  STL303      0.1989
      4  C4       -23.3470   -7.6870  -17.0350 C.ar  303  STL303      0.0422
      5  C5       -23.9700   -8.9400  -17.1230 C.ar  303  STL303      0.0064
      6  C6       -23.9200   -9.8160  -16.0110 C.ar  303  STL303      0.0422
      7  C7       -24.6030   -9.3460  -18.4330 C.2   303  STL303      0.0002
      8  C8       -24.6110  -10.6570  -18.7120 C.2   303  STL303      0.0000
      9  C9       -25.0940  -11.3140  -19.9500 C.ar  303  STL303      0.0002
     10  C10      -24.8830  -10.6840  -21.1770 C.ar  303  STL303      0.0033
     11  C11      -25.2780  -11.2890  -22.3590 C.ar  303  STL303      0.0420
     12  C12      -25.8630  -12.5590  -22.2980 C.ar  303  STL303      0.1957
     13  C13      -26.0590  -13.2200  -21.0860 C.ar  303  STL303      0.0420
     14  C14      -25.6590  -12.5940  -19.8970 C.ar  303  STL303      0.0033
     15  O1       -26.2530  -13.1490  -23.4530 O.3   303  STL303     -0.2866
     16  O2       -22.1470   -6.0930  -15.6720 O.3   303  STL303     -0.2865
     17  O3       -23.2190  -10.2050  -13.6970 O.3   303  STL303     -0.2865
@<TRIPOS>BOND
     1    15    12    1
     2    11    12   ar
     3    11    10   ar
     4    12    13   ar
     5    10     9   ar
     6    13    14   ar
     7     9    14   ar
     8     9     8    1
     9     8     7    2
    10     7     5    1
    11     5     4   ar
    12     5     6   ar
    13     4     3   ar
    14     6     1   ar
    15     3    16    1
    16     3     2   ar
    17     1     2   ar
    18     1    17    1
