@<TRIPOS>MOLECULE
4dpq_LYS_A_1.pdb
 10 9 0 0 0
SMALL
GASTEIGER

@<TRIPOS>ATOM
      1  N         11.1800   29.4550   -0.7320 N.3   404  LYS404     -0.1208
      2  CA        11.4000   28.7640   -2.0470 C.3   404  LYS404      0.1943
      3  C         10.1820   29.0110   -2.9840 C.2   404  LYS404      0.3819
      4  O          9.0320   29.4470   -2.5590 O.co2 404  LYS404     -0.2441
      5  CB        11.7760   27.2480   -1.8820 C.3   404  LYS404      0.0307
      6  CG        10.6360   26.2590   -1.5510 C.3   404  LYS404      0.0036
      7  CD        11.1010   24.8010   -1.7040 C.3   404  LYS404      0.0206
      8  CE        10.0740   23.7520   -1.2250 C.3   404  LYS404      0.1093
      9  NZ         8.7170   23.8300   -1.8730 N.3   404  LYS404     -0.1314
     10  OXT       10.3880   28.7790   -4.2090 O.co2 404  LYS404     -0.2441
@<TRIPOS>BOND
     1    10     3   ar
     2     3     4   ar
     3     3     2    1
     4     2     5    1
     5     2     1    1
     6     5     6    1
     7     9     8    1
     8     7     6    1
     9     7     8    1
