@<TRIPOS>MOLECULE
4dpr_X8Z_A_1.pdb
 14 14 0 0 0
SMALL
GASTEIGER

@<TRIPOS>ATOM
      1  O1         3.3710   -7.2290    0.0130 O.2   702  X8Z702     -0.2748
      2  C4         3.9330   -7.4460    1.0790 C.2   702  X8Z702      0.2264
      3  C2         3.3060   -6.9540    2.4040 C.3   702  X8Z702      0.0883
      4  C1         2.7030   -5.5730    2.1800 C.3   702  X8Z702      0.0777
      5  S          3.8870   -4.2550    2.6260 S.3   702  X8Z702     -0.0816
      6  C3         2.2130   -7.9790    2.8670 C.3   702  X8Z702      0.0105
      7  N          5.0370   -8.2290    1.1950 N.am  702  X8Z702     -0.2713
      8  C8         5.7530   -8.8970    0.0280 C.3   702  X8Z702      0.1790
      9  C9         4.8080   -9.7130   -0.6420 C.2   702  X8Z702      0.3825
     10  O3         4.8800   -9.7930   -1.8790 O.co2 702  X8Z702     -0.2438
     11  O2         3.9640  -10.3150    0.0520 O.co2 702  X8Z702     -0.2438
     12  C5         5.7690   -8.5690    2.4700 C.3   702  X8Z702      0.0939
     13  C6         7.1510   -9.1210    1.9950 C.3   702  X8Z702      0.0238
     14  C7         6.8880   -9.7540    0.6410 C.3   702  X8Z702      0.0332
@<TRIPOS>BOND
     1    10     9   ar
     2     9     8    1
     3     9    11   ar
     4     1     2    2
     5     8    14    1
     6     8     7    1
     7    14    13    1
     8     2     7   am
     9     2     3    1
    10     7    12    1
    11    13    12    1
    12     4     3    1
    13     4     5    1
    14     3     6    1
