@<TRIPOS>MOLECULE
4dpt_FM0_B_1.pdb
 19 18 0 0 0
SMALL
GASTEIGER

@<TRIPOS>ATOM
      1  OAA        4.1010   18.7850   21.5170 O.co2 401  FM0401     -0.2456
      2  OAB       12.1100   18.1940   22.2060 O.3   401  FM0401     -0.1143
      3  OAC        8.7630   17.5150   21.1060 O.3   401  FM0401     -0.4370
      4  OAD        3.9930   19.2690   23.6470 O.co2 401  FM0401     -0.2456
      5  OAE        4.4570   20.6900   19.7330 O.3   401  FM0401     -0.2221
      6  OAF       12.9150   19.6540   20.4200 O.3   401  FM0401     -0.1143
      7  OAG       11.7990   17.5660   19.8360 O.2   401  FM0401     -0.2221
      8  OAH        9.6400   18.2250   18.9370 O.2   401  FM0401     -0.5169
      9  FAI        4.7360   23.3690   19.3160 F     401  FM0401     -0.2316
     10  CAJ        4.2810   22.8180   20.4380 C.3   401  FM0401      0.2239
     11  CAK        7.1300   20.2010   21.0520 C.3   401  FM0401      0.1518
     12  CAL        6.3580   21.4970   20.8110 C.3   401  FM0401      0.0663
     13  CAM        4.2940   21.1120   22.1520 C.3   401  FM0401      0.1472
     14  OAN        7.9350   19.7080   20.0380 O.3   401  FM0401     -0.3137
     15  OAO       10.4250   19.4130   20.8630 O.3   401  FM0401     -0.2261
     16  CAP        4.1190   19.6480   22.4550 C.2   401  FM0401      0.3675
     17  CAQ        4.8480   21.5000   20.7870 C.3   401  FM0401      0.1723
     18  PAR       11.8210   18.7090   20.8290 P.3   401  FM0401      0.5373
     19  PAS        9.1590   18.7130   20.2750 P.3   401  FM0401      0.2230
@<TRIPOS>BOND
     1     8    19    2
     2     9    10    1
     3     5    17    1
     4     7    18    2
     5    14    19    1
     6    14    11    1
     7    19    15    1
     8    19     3    1
     9     6    18    1
    10    10    17    1
    11    17    12    1
    12    17    13    1
    13    12    11    1
    14    18    15    1
    15    18     2    1
    16     1    16   ar
    17    13    16    1
    18    16     4   ar
