@<TRIPOS>MOLECULE
4dpt_AGS_B_1.pdb
 31 33 0 0 0
SMALL
GASTEIGER

@<TRIPOS>ATOM
      1  PG         7.0960   16.9470   16.7500 P.3   402  AGS402      0.4340
      2  S1G        5.8060   18.5180   16.5580 S.3   402  AGS402      0.0416
      3  O2G        6.3650   15.6680   16.9710 O.2   402  AGS402     -0.2423
      4  O3G        7.8740   17.0500   17.9980 O.3   402  AGS402     -0.1305
      5  PB         7.5830   17.4840   14.1660 P.3   402  AGS402      0.2262
      6  O1B        7.5940   16.4440   13.0920 O.2   402  AGS402     -0.5168
      7  O2B        6.1510   18.0450   14.3240 O.3   402  AGS402     -0.4369
      8  O3B        8.0340   16.8540   15.4990 O.3   402  AGS402     -0.2405
      9  PA        10.0230   18.7050   14.3710 P.3   402  AGS402      0.2189
     10  O1A       10.5520   20.1750   14.3790 O.2   402  AGS402     -0.5170
     11  O2A        9.9840   18.1740   15.7980 O.3   402  AGS402     -0.4371
     12  O3A        8.5820   18.6710   13.7670 O.3   402  AGS402     -0.2701
     13  O5'       11.0000   17.7790   13.4810 O.3   402  AGS402     -0.3112
     14  C5'       10.7640   16.4170   13.3750 C.3   402  AGS402      0.1813
     15  C4'       11.9210   15.5460   13.2210 C.3   402  AGS402      0.1821
     16  O4'       11.5110   14.2250   13.2940 O.3   402  AGS402     -0.3135
     17  C3'       12.5100   15.7150   11.8870 C.3   402  AGS402      0.2184
     18  O3'       13.7190   16.3750   12.0100 O.3   402  AGS402     -0.2174
     19  C2'       12.7420   14.4080   11.3930 C.3   402  AGS402      0.2570
     20  O2'       14.1010   14.2560   11.0960 O.3   402  AGS402     -0.2130
     21  C1'       12.3720   13.5030   12.4710 C.3   402  AGS402      0.3186
     22  N9        11.6670   12.3470   12.0480 N.pl3 402  AGS402     -0.1439
     23  C8        10.4510   12.3000   11.4880 C.3   402  AGS402      0.3377
     24  N7        10.1400   11.0210   11.2340 N.2   402  AGS402     -0.2095
     25  C5        11.1670   10.2480   11.6360 C.2   402  AGS402      0.2526
     26  C6        11.4170    8.8710   11.6300 C.2   402  AGS402      0.4393
     27  N6        10.4590    7.9620   11.1130 N.pl3 402  AGS402      0.2180
     28  N1        12.5800    8.4280   12.1240 N.2   402  AGS402      0.0021
     29  C2        13.5030    9.2490   12.6170 C.3   402  AGS402      0.5254
     30  N3        13.2880   10.5700   12.6340 N.2   402  AGS402     -0.0055
     31  C4        12.1420   11.0880   12.1550 C.2   402  AGS402      0.3518
@<TRIPOS>BOND
     1    20    19    1
     2    27    26    1
     3    24    23    1
     4    24    25    2
     5    19    17    1
     6    19    21    1
     7    23    22    1
     8    26    25    1
     9    26    28    2
    10    25    31    1
    11    17    18    1
    12    17    15    1
    13    22    31    1
    14    22    21    1
    15    28    29    1
    16    31    30    2
    17    21    16    1
    18    29    30    1
    19     6     5    2
    20    15    16    1
    21    15    14    1
    22    14    13    1
    23    13     9    1
    24    12     5    1
    25    12     9    1
    26     5     7    1
    27     5     8    1
    28     9    10    2
    29     9    11    1
    30     8     1    1
    31     2     1    1
    32     1     3    2
    33     1     4    1
