@<TRIPOS>MOLECULE
4dpu_AGS_A_1.pdb
 31 33 0 0 0
SMALL
GASTEIGER

@<TRIPOS>ATOM
      1  PG        18.4890  -20.6430  -24.5550 P.3   402  AGS402      0.4340
      2  S1G       19.5860  -21.8600  -23.3370 S.3   402  AGS402      0.0416
      3  O2G       18.1850  -19.3440  -23.8930 O.3   402  AGS402     -0.1305
      4  O3G       17.1320  -21.1830  -24.7600 O.2   402  AGS402     -0.2423
      5  PB        18.4750  -20.6830  -27.2390 P.3   402  AGS402      0.2262
      6  O1B       19.4250  -20.5700  -28.3880 O.2   402  AGS402     -0.5168
      7  O2B       17.8680  -22.1050  -27.2110 O.3   402  AGS402     -0.4369
      8  O3B       19.2280  -20.4240  -25.9190 O.3   402  AGS402     -0.2405
      9  PA        17.5090  -18.1480  -26.8800 P.3   402  AGS402      0.2189
     10  O1A       16.6830  -17.1530  -27.7550 O.2   402  AGS402     -0.5170
     11  O2A       17.0330  -18.0660  -25.4350 O.3   402  AGS402     -0.4371
     12  O3A       17.3030  -19.6040  -27.4100 O.3   402  AGS402     -0.2701
     13  O5'       19.0760  -17.7680  -26.9520 O.3   402  AGS402     -0.3112
     14  C5'       19.6630  -17.4620  -28.1690 C.3   402  AGS402      0.1813
     15  C4'       20.6910  -16.4300  -28.1770 C.3   402  AGS402      0.1821
     16  O4'       21.9230  -17.0100  -27.9210 O.3   402  AGS402     -0.3135
     17  C3'       20.7960  -15.8270  -29.5120 C.3   402  AGS402      0.2184
     18  O3'       20.2840  -14.5430  -29.4670 O.3   402  AGS402     -0.2174
     19  C2'       22.1800  -15.7660  -29.8060 C.3   402  AGS402      0.2570
     20  O2'       22.5470  -14.4390  -30.0500 O.3   402  AGS402     -0.2130
     21  C1'       22.8630  -16.2520  -28.6160 C.3   402  AGS402      0.3186
     22  N9        23.9660  -17.1030  -28.8810 N.pl3 402  AGS402     -0.1439
     23  C8        23.9260  -18.3690  -29.3190 C.3   402  AGS402      0.3377
     24  N7        25.1790  -18.8250  -29.4440 N.2   402  AGS402     -0.2095
     25  C5        26.0260  -17.8410  -29.0830 C.2   402  AGS402      0.2526
     26  C6        27.4180  -17.7250  -29.0070 C.2   402  AGS402      0.4393
     27  N6        28.2560  -18.8130  -29.3610 N.pl3 402  AGS402      0.2180
     28  N1        27.9440  -16.5660  -28.5940 N.2   402  AGS402      0.0021
     29  C2        27.1910  -15.5240  -28.2530 C.3   402  AGS402      0.5254
     30  N3        25.8570  -15.6080  -28.3170 N.2   402  AGS402     -0.0055
     31  C4        25.2570  -16.7430  -28.7240 C.2   402  AGS402      0.3518
@<TRIPOS>BOND
     1    20    19    1
     2    19    17    1
     3    19    21    1
     4    17    18    1
     5    17    15    1
     6    24    23    1
     7    24    25    2
     8    27    26    1
     9    23    22    1
    10    25    26    1
    11    25    31    1
    12    26    28    2
    13    22    31    1
    14    22    21    1
    15    31    30    2
    16    21    16    1
    17    28    29    1
    18     6     5    2
    19    30    29    1
    20    15    14    1
    21    15    16    1
    22    14    13    1
    23    10     9    2
    24    12     5    1
    25    12     9    1
    26     5     7    1
    27     5     8    1
    28    13     9    1
    29     9    11    1
    30     8     1    1
    31     4     1    2
    32     1     3    1
    33     1     2    1
