@<TRIPOS>MOLECULE
4dpu_FM0_A_1.pdb
 19 18 0 0 0
SMALL
GASTEIGER

@<TRIPOS>ATOM
      1  OAA       17.0420  -24.2340  -18.7000 O.co2 401  FM0401     -0.2455
      2  OAB       17.5580  -16.6470  -18.9670 O.3   401  FM0401     -0.1143
      3  OAC       18.0470  -19.1080  -19.6760 O.3   401  FM0401     -0.4271
      4  OAD       16.1790  -24.2440  -16.6830 O.co2 401  FM0401     -0.2455
      5  OAE       15.4250  -24.0090  -20.8040 O.3   401  FM0401     -0.2176
      6  OAF       16.3260  -15.2800  -20.5980 O.3   401  FM0401     -0.1143
      7  OAG       18.3500  -16.4970  -21.3020 O.2   401  FM0401     -0.2221
      8  OAH       17.2160  -19.7850  -21.9050 O.2   401  FM0401     -0.5080
      9  FAI       12.6390  -23.5170  -21.4900 F     401  FM0401     -0.2312
     10  CAJ       13.1720  -24.1890  -20.4720 C.3   401  FM0401      0.2282
     11  CAK       15.6510  -21.4220  -20.2150 C.2   401  FM0401      0.1766
     12  CAL       14.4180  -22.1840  -19.7770 C.2   401  FM0401      0.0471
     13  CAM       14.6390  -24.2970  -18.5220 C.3   401  FM0401      0.1515
     14  OAN       15.7330  -20.0890  -19.8790 O.2   401  FM0401     -0.4368
     15  OAO       16.2620  -17.7600  -20.7820 O.3   401  FM0401     -0.2160
     16  CAP       16.0260  -24.2560  -17.9340 C.2   401  FM0401      0.3678
     17  CAQ       14.4360  -23.6790  -19.8970 C.3   401  FM0401      0.1914
     18  PAR       17.1260  -16.5380  -20.4100 P.3   401  FM0401      0.5380
     19  PAS       16.8280  -19.1840  -20.5650 P.3   401  FM0401      0.2779
@<TRIPOS>BOND
     1     8    19    2
     2     9    10    1
     3     7    18    2
     4     5    17    1
     5    15    19    1
     6    15    18    1
     7     6    18    1
     8    19    14    1
     9    19     3    1
    10    10    17    1
    11    18     2    1
    12    11    14    1
    13    11    12    2
    14    17    12    1
    15    17    13    1
    16     1    16   ar
    17    13    16    1
    18    16     4   ar
