@<TRIPOS>MOLECULE
4dpw_AGS_A_1.pdb
 31 33 0 0 0
SMALL
GASTEIGER

@<TRIPOS>ATOM
      1  PG        11.3690  -21.5650  -17.8230 P.3   401  AGS401      0.4340
      2  S1G        9.7470  -20.3620  -18.1280 S.3   401  AGS401      0.0416
      3  O2G       11.3410  -22.1790  -16.4660 O.3   401  AGS401     -0.1305
      4  O3G       12.6100  -20.7720  -17.7520 O.2   401  AGS401     -0.2423
      5  PB        11.0390  -22.3070  -20.3810 P.3   401  AGS401      0.2262
      6  O1B       10.5340  -23.5330  -21.0710 O.2   401  AGS401     -0.5168
      7  O2B        9.9210  -21.2400  -20.3440 O.3   401  AGS401     -0.4369
      8  O3B       11.4550  -22.6610  -18.9390 O.3   401  AGS401     -0.2405
      9  PA        13.7380  -22.2360  -20.8230 P.3   401  AGS401      0.2189
     10  O1A       14.7990  -21.3600  -21.5640 O.2   401  AGS401     -0.5170
     11  O2A       13.9530  -22.1270  -19.3200 O.3   401  AGS401     -0.4371
     12  O3A       12.3030  -21.7300  -21.1790 O.3   401  AGS401     -0.2701
     13  O5'       13.8920  -23.7770  -21.2770 O.3   401  AGS401     -0.3112
     14  C5'       14.6530  -24.1050  -22.3880 C.3   401  AGS401      0.1813
     15  C4'       15.4780  -25.3020  -22.3060 C.3   401  AGS401      0.1821
     16  O4'       14.7280  -26.3380  -21.7740 O.3   401  AGS401     -0.3135
     17  C3'       15.8750  -25.7380  -23.6510 C.3   401  AGS401      0.2184
     18  O3'       17.2240  -25.4880  -23.8250 O.3   401  AGS401     -0.2174
     19  C2'       15.6520  -27.1360  -23.6910 C.3   401  AGS401      0.2570
     20  O2'       16.8520  -27.7910  -23.9900 O.3   401  AGS401     -0.2130
     21  C1'       15.2110  -27.5090  -22.3540 C.3   401  AGS401      0.3186
     22  N9        14.1510  -28.4500  -22.3300 N.pl3 401  AGS401     -0.1439
     23  C8        12.8550  -28.2180  -22.5770 C.3   401  AGS401      0.3377
     24  N7        12.1770  -29.3670  -22.4520 N.2   401  AGS401     -0.2095
     25  C5        13.0480  -30.3390  -22.1220 C.2   401  AGS401      0.2526
     26  C6        12.9360  -31.7100  -21.8650 C.2   401  AGS401      0.4393
     27  N6        11.6770  -32.3590  -21.9300 N.pl3 401  AGS401      0.2180
     28  N1        14.0420  -32.3990  -21.5560 N.2   401  AGS401      0.0021
     29  C2        15.2400  -31.8250  -21.4850 C.3   401  AGS401      0.5254
     30  N3        15.3750  -30.5160  -21.7260 N.2   401  AGS401     -0.0055
     31  C4        14.3070  -29.7600  -22.0430 C.2   401  AGS401      0.3518
@<TRIPOS>BOND
     1    20    19    1
     2    18    17    1
     3    19    17    1
     4    19    21    1
     5    17    15    1
     6    23    24    1
     7    23    22    1
     8    24    25    2
     9    14    15    1
    10    14    13    1
    11    21    22    1
    12    21    16    1
    13    22    31    1
    14    15    16    1
    15    25    31    1
    16    25    26    1
    17    31    30    2
    18    27    26    1
    19    26    28    2
    20    30    29    1
    21    10     9    2
    22    28    29    1
    23    13     9    1
    24    12     9    1
    25    12     5    1
    26     6     5    2
    27     9    11    1
    28     5     7    1
    29     5     8    1
    30     8     1    1
    31     2     1    1
    32     1     4    2
    33     1     3    1
