@<TRIPOS>MOLECULE
4dpw_DP6_A_1.pdb
 18 17 0 0 0
SMALL
GASTEIGER

@<TRIPOS>ATOM
      1  C3A       11.2500  -17.5660  -12.7120 C.3   402  DP6402      0.0336
      2  O1A       14.3280  -22.2390  -16.4770 O.2   402  DP6402     -0.5169
      3  O2A       14.0710  -21.8700  -14.0530 O.3   402  DP6402     -0.4370
      4  O3A       10.6930  -16.3750  -14.6480 O.3   402  DP6402     -0.2250
      5  O1B       16.7730  -23.0230  -15.7450 O.2   402  DP6402     -0.2221
      6  O2B       17.2150  -21.9720  -13.5600 O.3   402  DP6402     -0.1143
      7  O3B       18.3670  -21.1500  -15.5770 O.3   402  DP6402     -0.1143
      8  PB        17.0770  -21.7220  -15.0420 P.3   402  DP6402      0.5373
      9  O6        15.9180  -20.7120  -15.2910 O.3   402  DP6402     -0.2261
     10  PA        14.4500  -21.2260  -15.3650 P.3   402  DP6402      0.2230
     11  O5        13.4970  -20.0280  -15.6490 O.3   402  DP6402     -0.3137
     12  C5        12.8490  -19.4050  -14.6050 C.3   402  DP6402      0.1517
     13  C4        12.3510  -18.0190  -14.8370 C.3   402  DP6402      0.0635
     14  C3        11.0690  -17.6170  -14.1910 C.3   402  DP6402      0.1399
     15  C2        10.0100  -18.6110  -14.5300 C.3   402  DP6402      0.1444
     16  C1         8.6020  -18.2680  -14.1790 C.2   402  DP6402      0.3674
     17  O1         8.2290  -17.0660  -14.1800 O.co2 402  DP6402     -0.2456
     18  O2         7.7870  -19.1800  -13.8840 O.co2 402  DP6402     -0.2456
@<TRIPOS>BOND
     1     2    10    2
     2     5     8    2
     3    11    10    1
     4    11    12    1
     5     7     8    1
     6    10     9    1
     7    10     3    1
     8     9     8    1
     9     8     6    1
    10    13    12    1
    11    13    14    1
    12     4    14    1
    13    15    14    1
    14    15    16    1
    15    14     1    1
    16    17    16   ar
    17    16    18   ar
