@<TRIPOS>MOLECULE
4dpy_2P0_A_1.pdb
 20 20 0 0 0
SMALL
GASTEIGER

@<TRIPOS>ATOM
      1  C        -15.9740  -27.4680  -18.1890 C.2   401  2P0401      0.3825
      2  N        -14.4210  -28.0620  -20.0300 N.am  401  2P0401     -0.2693
      3  O        -16.3070  -27.3750  -16.9450 O.co2 401  2P0401     -0.2438
      4  CA       -14.5360  -27.8650  -18.5930 C.3   401  2P0401      0.1791
      5  CB       -13.5500  -26.8410  -18.1960 C.3   401  2P0401      0.0332
      6  CD       -13.6730  -26.9580  -20.5800 C.3   401  2P0401      0.0940
      7  CG       -12.8260  -26.4270  -19.4530 C.3   401  2P0401      0.0238
      8  OAB      -14.7860  -29.2100  -22.0180 O.2   401  2P0401     -0.2721
      9  OAC      -17.4520  -34.8890  -18.4740 O.3   401  2P0401     -0.1143
     10  OAD      -18.0110  -32.6750  -22.1720 O.2   401  2P0401     -0.5169
     11  OAF      -15.9250  -35.9850  -20.0520 O.3   401  2P0401     -0.1143
     12  OAG      -18.1860  -35.2930  -20.8280 O.2   401  2P0401     -0.2221
     13  OAH      -18.2510  -31.9100  -19.7870 O.3   401  2P0401     -0.4370
     14  CAK      -15.7160  -30.2730  -20.1640 C.3   401  2P0401      0.2336
     15  OAM      -16.3210  -31.0950  -21.1950 O.3   401  2P0401     -0.3038
     16  OAN      -16.4060  -33.5550  -20.4020 O.3   401  2P0401     -0.2261
     17  CAP      -14.9630  -29.1850  -20.8100 C.2   401  2P0401      0.2566
     18  PAS      -17.0040  -34.9460  -19.9320 P.3   401  2P0401      0.5373
     19  PAT      -17.2790  -32.3280  -20.8740 P.3   401  2P0401      0.2234
     20  OXT      -16.8650  -27.2190  -19.0730 O.co2 401  2P0401     -0.2438
@<TRIPOS>BOND
     1    10    19    2
     2     8    17    2
     3    15    19    1
     4    15    14    1
     5    19    16    1
     6    19    13    1
     7    12    18    2
     8    17    14    1
     9    17     2   am
    10     6     2    1
    11     6     7    1
    12    16    18    1
    13    11    18    1
    14     2     4    1
    15    18     9    1
    16     7     5    1
    17    20     1   ar
    18     4     5    1
    19     4     1    1
    20     1     3   ar
