@<TRIPOS>MOLECULE
4dq1_UMP_A_1.pdb
 20 21 0 0 0
SMALL
GASTEIGER

@<TRIPOS>ATOM
      1  N1        34.9880    2.1220   13.8990 N.am  501  UMP501     -0.1790
      2  C2        34.6080    1.9760   12.5310 C.1   501  UMP501      0.2844
      3  N3        33.4600    2.4840   12.0800 N.2   501  UMP501     -0.2452
      4  C4        32.6280    3.1460   12.9290 C.1   501  UMP501      0.2182
      5  C5        32.9800    3.3330   14.2910 C.2   501  UMP501      0.1242
      6  C6        34.1800    2.7840   14.7610 C.2   501  UMP501      0.0928
      7  O2        35.3190    1.3630   11.7190 O.2   501  UMP501     -0.1918
      8  O4        31.5410    3.6020   12.4770 O.2   501  UMP501     -0.2085
      9  C1'       36.2400    1.5280   14.3760 C.3   501  UMP501      0.2090
     10  C2'       37.4960    2.1150   13.7590 C.3   501  UMP501      0.0874
     11  C3'       38.5070    1.8470   14.8550 C.3   501  UMP501      0.1857
     12  C4'       37.7160    2.0100   16.1270 C.3   501  UMP501      0.1774
     13  O3'       38.9920    0.4990   14.7310 O.3   501  UMP501     -0.2203
     14  O4'       36.3790    1.6870   15.7820 O.3   501  UMP501     -0.3339
     15  C5'       37.7590    3.4650   16.5760 C.3   501  UMP501      0.1858
     16  O5'       38.9170    3.6540   17.3690 O.3   501  UMP501     -0.2675
     17  P         39.9020    4.8540   16.9930 P.3   501  UMP501      0.5327
     18  OP1       39.3290    6.0780   17.6630 O.3   501  UMP501     -0.1145
     19  OP2       41.2250    4.4290   17.5710 O.3   501  UMP501     -0.1145
     20  OP3       39.9120    4.8740   15.4970 O.2   501  UMP501     -0.2224
@<TRIPOS>BOND
     1     7     2    2
     2     3     2    2
     3     3     4    2
     4     8     4    2
     5     2     1   am
     6     4     5    1
     7    10     9    1
     8    10    11    1
     9     1     9    1
    10     1     6    1
    11     5     6    2
    12     9    14    1
    13    13    11    1
    14    11    12    1
    15    20    17    2
    16    14    12    1
    17    12    15    1
    18    15    16    1
    19    17    16    1
    20    17    19    1
    21    17    18    1
