@<TRIPOS>MOLECULE
4dq2_BTX_A_1.pdb
 37 41 0 0 0
SMALL
GASTEIGER

@<TRIPOS>ATOM
      1  P         53.2020   18.0870   17.6130 P.3   500  BTX500      0.2141
      2  O1P       52.9700   18.7140   16.3100 O.2   500  BTX500     -0.5172
      3  O2P       54.2500   17.0150   17.8030 O.3   500  BTX500     -0.4373
      4  O5'       54.0190   19.0330   18.5860 O.3   500  BTX500     -0.3114
      5  C5'       53.7860   20.3090   18.9060 C.3   500  BTX500      0.1813
      6  C4'       54.9740   21.2160   18.8090 C.3   500  BTX500      0.1821
      7  O4'       54.2460   22.4780   19.0250 O.3   500  BTX500     -0.3135
      8  C3'       56.0600   21.2070   19.8240 C.3   500  BTX500      0.2184
      9  O3'       57.3170   20.7970   19.3340 O.3   500  BTX500     -0.2174
     10  C2'       56.2580   22.7010   20.0690 C.3   500  BTX500      0.2570
     11  O2'       56.8320   23.3090   18.9220 O.3   500  BTX500     -0.2130
     12  C1'       54.8930   23.3350   19.9460 C.3   500  BTX500      0.3186
     13  N9        54.0490   23.3010   21.1660 N.pl3 500  BTX500     -0.1439
     14  C8        54.2280   22.5970   22.2970 C.3   500  BTX500      0.3377
     15  N7        53.2130   22.9260   23.1060 N.2   500  BTX500     -0.2095
     16  C5        52.3990   23.7970   22.4950 C.2   500  BTX500      0.2526
     17  C6        51.1930   24.5120   22.8610 C.2   500  BTX500      0.4393
     18  N6        50.5630   24.3720   24.0410 N.pl3 500  BTX500      0.2180
     19  N1        50.6770   25.3630   21.9870 N.2   500  BTX500      0.0021
     20  C2        51.2550   25.6680   20.7070 C.3   500  BTX500      0.5254
     21  N3        52.4630   24.9630   20.4420 N.2   500  BTX500     -0.0055
     22  C4        52.9530   24.0510   21.2730 C.2   500  BTX500      0.3518
     23  CBB       50.4050   17.4520   18.1000 C.3   500  BTX500      0.1491
     24  OBB       51.8590   17.6360   18.3940 O.3   500  BTX500     -0.3141
     25  CAB       49.9500   17.0980   19.2330 C.3   500  BTX500      0.0325
     26  C9B       49.5270   16.6980   20.3720 C.3   500  BTX500      0.0026
     27  C8B       48.3150   16.9360   21.1550 C.3   500  BTX500      0.0010
     28  C7B       48.6560   16.9320   22.6470 C.3   500  BTX500      0.0128
     29  C2B       47.4270   16.4520   23.3900 C.3   500  BTX500      0.0729
     30  S1B       47.2630   17.2930   24.9230 S.3   500  BTX500     -0.1369
     31  C6B       46.1310   15.9910   25.2390 C.3   500  BTX500      0.0848
     32  C5B       46.8140   14.6830   24.8870 C.3   500  BTX500      0.1509
     33  N1B       47.8070   14.2410   25.8400 N.2   500  BTX500     -0.1859
     34  C3B       49.0630   14.2890   25.3630 C.1   500  BTX500      0.2386
     35  O3B       50.1070   13.9320   26.0200 O.2   500  BTX500     -0.2023
     36  N2B       49.0410   14.8460   24.1110 N.2   500  BTX500     -0.1860
     37  C4B       47.6630   14.9790   23.6430 C.3   500  BTX500      0.1500
@<TRIPOS>BOND
     1     2     1    2
     2     1     3    1
     3     1    24    1
     4     1     4    1
     5    23    24    1
     6    23    25    1
     7     4     5    1
     8     6     5    1
     9     6     7    1
    10     6     8    1
    11    11    10    1
    12     7    12    1
    13    25    26    1
    14     9     8    1
    15     8    10    1
    16    12    10    1
    17    12    13    1
    18    26    27    1
    19    21    20    1
    20    21    22    2
    21    20    19    1
    22    27    28    1
    23    13    22    1
    24    13    14    1
    25    22    16    1
    26    19    17    2
    27    14    15    1
    28    16    17    1
    29    16    15    2
    30    28    29    1
    31    17    18    1
    32    29    37    1
    33    29    30    1
    34    37    36    1
    35    37    32    1
    36    36    34    2
    37    32    31    1
    38    32    33    1
    39    30    31    1
    40    34    33    2
    41    34    35    2
