@<TRIPOS>MOLECULE
4dq3_OLA_A_1.pdb
 20 19 0 0 0
SMALL
GASTEIGER

@<TRIPOS>ATOM
      1  C1        -1.9200    0.2400    1.7360 C.2   201  OLA201      0.3649
      2  O1        -2.1910   -0.9460    2.0300 O.co2 201  OLA201     -0.2457
      3  O2        -1.2920    0.9930    2.5090 O.co2 201  OLA201     -0.2457
      4  C2        -2.3720    0.7730    0.3890 C.3   201  OLA201      0.1141
      5  C3        -3.3820    1.9180    0.5140 C.3   201  OLA201      0.0118
      6  C4        -4.4240    1.6870    1.6040 C.3   201  OLA201      0.0006
      7  C5        -5.4630    0.6450    1.1930 C.3   201  OLA201      0.0000
      8  C6        -6.5130    0.4640    2.2820 C.3   201  OLA201      0.0003
      9  C7        -7.8580    0.1100    1.6690 C.3   201  OLA201      0.0047
     10  C8        -8.4950    1.3240    0.9980 C.3   201  OLA201      0.0257
     11  C9        -9.7850    0.8930    0.3420 C.2   201  OLA201     -0.0307
     12  C10      -10.7300    1.7580   -0.0410 C.2   201  OLA201     -0.0307
     13  C11      -10.5920    3.2470    0.1440 C.3   201  OLA201      0.0257
     14  C12      -11.8760    3.7930    0.7350 C.3   201  OLA201      0.0047
     15  C13      -13.0360    3.5620   -0.2090 C.3   201  OLA201      0.0003
     16  C14      -13.8490    4.8350   -0.3670 C.3   201  OLA201      0.0000
     17  C15      -15.2140    4.4280   -0.8820 C.3   201  OLA201      0.0000
     18  C16      -16.1330    5.6220   -0.9560 C.3   201  OLA201      0.0000
     19  C17      -17.5670    5.1530   -1.1520 C.3   201  OLA201      0.0000
     20  C18      -17.9860    5.2130   -2.6000 C.3   201  OLA201      0.0000
@<TRIPOS>BOND
     1    20    19    1
     2    19    18    1
     3    18    17    1
     4    17    16    1
     5    16    15    1
     6    15    14    1
     7    12    13    1
     8    12    11    2
     9    13    14    1
    10    11    10    1
    11     4     5    1
    12     4     1    1
    13     5     6    1
    14    10     9    1
    15     7     6    1
    16     7     8    1
    17     9     8    1
    18     1     2   ar
    19     1     3   ar
