@<TRIPOS>MOLECULE
4dq4_EIC_A_1.pdb
 20 19 0 0 0
SMALL
GASTEIGER

@<TRIPOS>ATOM
      1  C1        -0.7080    1.7070   20.4650 C.2   201  EIC201      0.3649
      2  C2        -0.3930    2.1580   19.0580 C.3   201  EIC201      0.1141
      3  C3        -0.0740    3.6510   19.0400 C.3   201  EIC201      0.0118
      4  C4        -1.3460    4.4970   19.1100 C.3   201  EIC201      0.0006
      5  C5        -1.2720    5.6220   20.1440 C.3   201  EIC201      0.0000
      6  C6        -2.6240    5.8640   20.8160 C.3   201  EIC201      0.0003
      7  C7        -3.6810    6.3870   19.8540 C.3   201  EIC201      0.0047
      8  C8        -3.3550    7.7900   19.3370 C.3   201  EIC201      0.0257
      9  C9        -4.5580    8.6850   19.5310 C.2   201  EIC201     -0.0304
     10  C10       -4.6550    9.9380   19.0720 C.2   201  EIC201     -0.0260
     11  C11       -3.5780   10.6330   18.2810 C.3   201  EIC201      0.0513
     12  C12       -2.7330   11.4660   19.2070 C.2   201  EIC201     -0.0260
     13  C13       -2.6800   12.7990   19.1470 C.2   201  EIC201     -0.0304
     14  C14       -3.4720   13.5840   18.1410 C.3   201  EIC201      0.0257
     15  C15       -3.0460   15.0370   18.1360 C.3   201  EIC201      0.0047
     16  C16       -3.9960   15.8100   17.2490 C.3   201  EIC201      0.0003
     17  C17       -3.6900   17.2850   17.2940 C.3   201  EIC201      0.0000
     18  C18       -4.5350   18.0460   16.3080 C.3   201  EIC201      0.0000
     19  O1         0.2350    1.6260   21.2870 O.co2 201  EIC201     -0.2457
     20  O2        -1.8950    1.4270   20.7590 O.co2 201  EIC201     -0.2457
@<TRIPOS>BOND
     1    18    17    1
     2    16    17    1
     3    16    15    1
     4    15    14    1
     5    14    13    1
     6    11    10    1
     7    11    12    1
     8     3     2    1
     9     3     4    1
    10     2     1    1
    11    10     9    2
    12     4     5    1
    13    13    12    2
    14     8     9    1
    15     8     7    1
    16     7     6    1
    17     5     6    1
    18     1    20   ar
    19     1    19   ar
