@<TRIPOS>MOLECULE
4dq5_AES_A_1.pdb
 13 13 0 0 0
SMALL
GASTEIGER

@<TRIPOS>ATOM
      1  C3         8.8490   43.5520   13.9620 C.ar  301  AES301     -0.0028
      2  C2         8.3760   43.3540   15.2450 C.ar  301  AES301      0.0208
      3  C1         9.1830   43.6860   16.3210 C.ar  301  AES301      0.1382
      4  S          8.6140   43.4520   17.9640 S.O2  301  AES301      0.1484
      5  F          9.8090   43.0080   18.8420 F     301  AES301     -0.0562
      6  O1S        8.0010   44.6590   18.4530 O.2   301  AES301     -0.1378
      7  O2S        7.5290   42.5040   18.0130 O.2   301  AES301     -0.1378
      8  C6        10.4490   44.2090   16.1310 C.ar  301  AES301      0.0208
      9  C5        10.9210   44.4020   14.8480 C.ar  301  AES301     -0.0028
     10  C4        10.1160   44.0790   13.7720 C.ar  301  AES301     -0.0206
     11  C7        10.6210   44.2700   12.3930 C.3   301  AES301      0.0468
     12  C8        10.5190   42.9410   11.7300 C.3   301  AES301      0.1140
     13  N8        11.4600   42.8500   10.6540 N.3   301  AES301     -0.1310
@<TRIPOS>BOND
     1    13    12    1
     2    12    11    1
     3    11    10    1
     4    10     1   ar
     5    10     9   ar
     6     1     2   ar
     7     9     8   ar
     8     2     3   ar
     9     8     3   ar
    10     3     4    1
    11     4     7    2
    12     4     6    2
    13     4     5    1
