@<TRIPOS>MOLECULE
4dq6_PLP_A_1.pdb
 15 15 0 0 0
SMALL
GASTEIGER

@<TRIPOS>ATOM
      1  N1        -2.8600   25.7590   65.5000 N.ar  401  PLP401     -0.2452
      2  C2        -3.9670   25.0910   65.0380 C.ar  401  PLP401      0.0978
      3  C2A       -5.3410   25.2440   65.6170 C.3   401  PLP401      0.0555
      4  C3        -3.8680   24.1820   63.9180 C.ar  401  PLP401      0.2049
      5  O3        -4.9290   23.5170   63.4830 O.3   401  PLP401     -0.2857
      6  C4        -2.5720   23.9890   63.2870 C.ar  401  PLP401      0.0182
      7  C4A       -2.3920   23.0130   62.1530 C.3   401  PLP401      0.0342
      8  C5        -1.4500   24.7400   63.8290 C.ar  401  PLP401      0.0261
      9  C6        -1.6400   25.5990   64.9360 C.ar  401  PLP401      0.0965
     10  C5A       -0.1180   24.5760   63.1670 C.3   401  PLP401      0.1815
     11  O4P        0.8080   24.9100   64.1460 O.3   401  PLP401     -0.2653
     12  P          2.3330   25.0950   63.6330 P.3   401  PLP401      0.5329
     13  O1P        2.3460   26.4390   62.9920 O.3   401  PLP401     -0.1145
     14  O2P        3.0950   24.9480   65.0100 O.3   401  PLP401     -0.1145
     15  O3P        2.4960   23.9560   62.5800 O.2   401  PLP401     -0.2224
@<TRIPOS>BOND
     1     7     6    1
     2    15    12    2
     3    13    12    1
     4    10     8    1
     5    10    11    1
     6     6     8   ar
     7     6     4   ar
     8     5     4    1
     9    12    11    1
    10    12    14    1
    11     8     9   ar
    12     4     2   ar
    13     9     1   ar
    14     2     1   ar
    15     2     3    1
