@<TRIPOS>MOLECULE
4dqb_017_B_1.pdb
 38 41 0 0 0
SMALL
GASTEIGER

@<TRIPOS>ATOM
      1  N1        14.6300   35.1260   18.1870 N.pl3 101  017101     -0.1281
      2  C2        15.5770   34.5670   17.3670 C.ar  101  017101      0.0892
      3  C3        16.6270   35.2950   16.7880 C.ar  101  017101      0.0194
      4  C4        17.5370   34.6370   15.9270 C.ar  101  017101      0.0213
      5  C5        17.3770   33.2700   15.6730 C.ar  101  017101      0.1223
      6  C6        16.3320   32.5850   16.2880 C.ar  101  017101      0.0213
      7  C7        15.4400   33.2330   17.1170 C.ar  101  017101      0.0194
      8  S8        18.4040   32.3690   14.7710 S.O2  101  017101      0.0634
      9  O9        17.6230   31.2790   14.2240 O.2   101  017101     -0.1528
     10  O10       19.0850   33.1860   13.8100 O.2   101  017101     -0.1528
     11  N11       19.4700   31.7610   15.7660 N.3   101  017101     -0.1529
     12  C12       20.3960   32.6890   16.4340 C.3   101  017101      0.0958
     13  C13       21.8920   32.3580   16.4680 C.3   101  017101      0.0178
     14  C14       22.5110   32.4160   15.0790 C.3   101  017101      0.0015
     15  C15       22.5660   33.3870   17.3990 C.3   101  017101      0.0015
     16  C16       19.1890   30.4480   16.3600 C.3   101  017101      0.1304
     17  C17       20.1430   29.3560   15.8870 C.3   101  017101      0.1898
     18  O18       20.0620   28.2310   16.7870 O.3   101  017101     -0.2197
     19  C19       19.7880   28.8880   14.4780 C.3   101  017101      0.1347
     20  N20       20.8470   28.0410   13.9700 N.am  101  017101     -0.1675
     21  C21       21.7020   28.3730   13.0240 C.2   101  017101      0.4211
     22  O22       21.8100   29.4390   12.4680 O.2   101  017101     -0.2246
     23  O23       22.6080   27.3020   12.7250 O.3   101  017101     -0.4345
     24  C24       23.4110   27.4200   11.5510 C.3   101  017101      0.2048
     25  C25       24.7450   26.7990   11.9710 C.3   101  017101      0.1884
     26  O26       24.4930   25.3940   11.8820 O.3   101  017101     -0.3265
     27  C27       23.5210   25.1490   10.8610 C.3   101  017101      0.2388
     28  O28       22.4910   24.3120   11.3990 O.3   101  017101     -0.3304
     29  C29       21.2260   24.9900   11.3900 C.3   101  017101      0.1451
     30  C30       21.3960   26.2040   10.4710 C.3   101  017101      0.0409
     31  C31       22.8990   26.4780   10.4750 C.3   101  017101      0.1016
     32  C32       18.4780   28.0900   14.3790 C.3   101  017101      0.0508
     33  C33       18.1330   26.3730   12.5760 C.ar  101  017101     -0.0042
     34  C34       17.9270   25.9840   11.2420 C.ar  101  017101     -0.0003
     35  C35       17.6790   26.9490   10.2740 C.ar  101  017101     -0.0000
     36  C36       17.7250   28.2960   10.6420 C.ar  101  017101     -0.0003
     37  C37       17.9550   28.6840   11.9660 C.ar  101  017101     -0.0042
     38  C38       18.1710   27.7150   12.9470 C.ar  101  017101     -0.0204
@<TRIPOS>BOND
     1    35    36   ar
     2    35    34   ar
     3    30    31    1
     4    30    29    1
     5    31    27    1
     6    31    24    1
     7    36    37   ar
     8    27    28    1
     9    27    26    1
    10    34    33   ar
    11    29    28    1
    12    24    25    1
    13    24    23    1
    14    26    25    1
    15    37    38   ar
    16    22    21    2
    17    33    38   ar
    18    23    21    1
    19    38    32    1
    20    21    20   am
    21    10     8    2
    22    20    19    1
    23     9     8    2
    24    32    19    1
    25    19    17    1
    26     8     5    1
    27     8    11    1
    28    14    13    1
    29     5     4   ar
    30     5     6   ar
    31    11    16    1
    32    11    12    1
    33    17    16    1
    34    17    18    1
    35     4     3   ar
    36     6     7   ar
    37    12    13    1
    38    13    15    1
    39     3     2   ar
    40     7     2   ar
    41     2     1    1
