@<TRIPOS>MOLECULE
4dqc_017_A_1.pdb
 38 41 0 0 0
SMALL
GASTEIGER

@<TRIPOS>ATOM
      1  N1        14.6490   35.1020   18.3300 N.pl3 101  017101     -0.1281
      2  C2        15.5570   34.4960   17.5350 C.ar  101  017101      0.0892
      3  C3        16.6020   35.2200   16.9560 C.ar  101  017101      0.0194
      4  C4        17.5000   34.5660   16.1270 C.ar  101  017101      0.0213
      5  C5        17.3500   33.2040   15.8820 C.ar  101  017101      0.1223
      6  C6        16.2950   32.5040   16.4630 C.ar  101  017101      0.0213
      7  C7        15.3930   33.1550   17.2740 C.ar  101  017101      0.0194
      8  S8        18.3750   32.3810   14.9500 S.O2  101  017101      0.0634
      9  O9        17.6200   31.3190   14.3310 O.2   101  017101     -0.1528
     10  O10       18.9370   33.2600   13.9820 O.2   101  017101     -0.1528
     11  N11       19.4140   31.8120   15.9520 N.3   101  017101     -0.1529
     12  C12       20.3140   32.7670   16.6130 C.3   101  017101      0.0958
     13  C13       21.8130   32.4330   16.5540 C.3   101  017101      0.0178
     14  C14       22.3690   32.5830   15.1510 C.3   101  017101      0.0015
     15  C15       22.5390   33.3880   17.5070 C.3   101  017101      0.0015
     16  C16       19.1900   30.4640   16.5010 C.3   101  017101      0.1304
     17  C17       20.0740   29.3730   15.8970 C.3   101  017101      0.1898
     18  O18       20.0360   28.2810   16.8330 O.3   101  017101     -0.2197
     19  C19       19.6450   28.9120   14.4970 C.3   101  017101      0.1347
     20  N20       20.6810   28.0810   13.9260 N.am  101  017101     -0.1675
     21  C21       21.5990   28.4700   13.0450 C.2   101  017101      0.4211
     22  O22       21.7160   29.5670   12.5280 O.2   101  017101     -0.2246
     23  O23       22.5640   27.4110   12.7890 O.3   101  017101     -0.4345
     24  C24       23.3160   27.4430   11.5950 C.3   101  017101      0.2048
     25  C25       24.6740   26.8920   11.9840 C.3   101  017101      0.1884
     26  O26       24.4960   25.4660   11.9280 O.3   101  017101     -0.3265
     27  C27       23.4430   25.1110   11.0360 C.3   101  017101      0.2388
     28  O28       22.4360   24.2980   11.6850 O.3   101  017101     -0.3304
     29  C29       21.1340   24.8660   11.4990 C.3   101  017101      0.1451
     30  C30       21.2970   26.1190   10.6440 C.3   101  017101      0.0409
     31  C31       22.7920   26.4190   10.6080 C.3   101  017101      0.1016
     32  C32       18.3420   28.0990   14.4500 C.3   101  017101      0.0508
     33  C33       18.1800   26.4300   12.5570 C.ar  101  017101     -0.0042
     34  C34       17.9370   26.1220   11.2120 C.ar  101  017101     -0.0003
     35  C35       17.5440   27.1200   10.3220 C.ar  101  017101     -0.0000
     36  C36       17.4290   28.4300   10.7740 C.ar  101  017101     -0.0003
     37  C37       17.6750   28.7400   12.1160 C.ar  101  017101     -0.0042
     38  C38       18.0520   27.7420   13.0110 C.ar  101  017101     -0.0204
@<TRIPOS>BOND
     1    35    36   ar
     2    35    34   ar
     3    31    30    1
     4    31    27    1
     5    31    24    1
     6    30    29    1
     7    36    37   ar
     8    27    28    1
     9    27    26    1
    10    34    33   ar
    11    29    28    1
    12    24    25    1
    13    24    23    1
    14    26    25    1
    15    37    38   ar
    16    22    21    2
    17    33    38   ar
    18    23    21    1
    19    38    32    1
    20    21    20   am
    21    20    19    1
    22    10     8    2
    23     9     8    2
    24    32    19    1
    25    19    17    1
    26     8     5    1
    27     8    11    1
    28    14    13    1
    29     5     4   ar
    30     5     6   ar
    31    17    16    1
    32    17    18    1
    33    11    16    1
    34    11    12    1
    35     4     3   ar
    36     6     7   ar
    37    13    12    1
    38    13    15    1
    39     3     2   ar
    40     7     2   ar
    41     2     1    1
