@<TRIPOS>MOLECULE
4dqd_PPY_A_1.pdb
 12 12 0 0 0
SMALL
GASTEIGER

@<TRIPOS>ATOM
      1  C1        18.5780    1.1470   21.6470 C.2   401  PPY401      0.4222
      2  O1        19.0450    2.2120   21.1580 O.co2 401  PPY401     -0.2373
      3  O2        19.1340    0.4910   22.5280 O.co2 401  PPY401     -0.2373
      4  C2        17.3260    0.6220   21.1210 C.2   401  PPY401      0.2564
      5  O3        16.8210   -0.3640   21.6680 O.2   401  PPY401     -0.2839
      6  C3        16.8730    1.3960   19.9400 C.3   401  PPY401      0.1025
      7  C1'       15.4670    1.2210   19.5220 C.ar  401  PPY401     -0.0142
      8  C2'       15.1670    1.0620   18.1950 C.ar  401  PPY401     -0.0038
      9  C3'       13.7550    0.8940   17.7560 C.ar  401  PPY401     -0.0003
     10  C4'       12.7440    0.9180   18.6810 C.ar  401  PPY401     -0.0000
     11  C5'       13.0860    1.1120   20.1180 C.ar  401  PPY401     -0.0003
     12  C6'       14.3750    1.2580   20.5260 C.ar  401  PPY401     -0.0038
@<TRIPOS>BOND
     1     9     8   ar
     2     9    10   ar
     3     8     7   ar
     4    10    11   ar
     5     7     6    1
     6     7    12   ar
     7     6     4    1
     8    11    12   ar
     9     4     1    1
    10     4     5    2
    11     2     1   ar
    12     1     3   ar
