@<TRIPOS>MOLECULE
4dqe_017_B_1.pdb
 38 41 0 0 0
SMALL
GASTEIGER

@<TRIPOS>ATOM
      1  N1       -10.9900   -6.0950  -18.2400 N.pl3 101  017101     -0.1281
      2  C2       -10.0620   -5.5100  -17.4420 C.ar  101  017101      0.0892
      3  C3        -9.0100   -6.2380  -16.8870 C.ar  101  017101      0.0194
      4  C4        -8.0840   -5.5890  -16.0640 C.ar  101  017101      0.0213
      5  C5        -8.2280   -4.2350  -15.7610 C.ar  101  017101      0.1223
      6  C6        -9.2930   -3.5400  -16.3340 C.ar  101  017101      0.0213
      7  C7       -10.2000   -4.1780  -17.1510 C.ar  101  017101      0.0194
      8  S8        -7.1750   -3.3940  -14.8480 S.O2  101  017101      0.0634
      9  O9        -7.9250   -2.3300  -14.2120 O.2   101  017101     -0.1528
     10  O10       -6.4860   -4.2340  -13.9280 O.2   101  017101     -0.1528
     11  N11       -6.0040   -2.7060  -15.7820 N.3   101  017101     -0.1529
     12  C12       -5.2280   -3.6390  -16.6350 C.3   101  017101      0.0958
     13  C13       -3.7250   -3.3520  -16.6110 C.3   101  017101      0.0178
     14  C14       -3.1340   -3.4150  -15.2050 C.3   101  017101      0.0015
     15  C15       -3.0340   -4.3580  -17.5210 C.3   101  017101      0.0015
     16  C16       -6.3560   -1.4280  -16.4480 C.3   101  017101      0.1304
     17  C17       -5.4580   -0.3210  -15.8860 C.3   101  017101      0.1898
     18  O18       -5.5480    0.8010  -16.7840 O.3   101  017101     -0.2197
     19  C19       -5.8300    0.1060  -14.4650 C.3   101  017101      0.1347
     20  N20       -4.7900    0.9810  -13.9590 N.am  101  017101     -0.1675
     21  C21       -3.8940    0.6530  -13.0650 C.2   101  017101      0.4211
     22  O22       -3.6970   -0.4060  -12.5140 O.2   101  017101     -0.2246
     23  O23       -3.0220    1.7400  -12.7570 O.3   101  017101     -0.4345
     24  C24       -2.2160    1.6370  -11.5810 C.3   101  017101      0.2048
     25  C25       -0.8890    2.2730  -11.9720 C.3   101  017101      0.1884
     26  O26       -1.1700    3.6790  -11.8870 O.3   101  017101     -0.3265
     27  C27       -2.1550    3.9200  -10.8820 C.3   101  017101      0.2388
     28  O28       -3.2050    4.7380  -11.4290 O.3   101  017101     -0.3304
     29  C29       -4.4610    4.0370  -11.3830 C.3   101  017101      0.1451
     30  C30       -4.2480    2.8030  -10.4980 C.3   101  017101      0.0409
     31  C31       -2.7420    2.5700  -10.5090 C.3   101  017101      0.1016
     32  C32       -7.1650    0.8520  -14.3520 C.3   101  017101      0.0508
     33  C33       -7.4760    2.5680  -12.5770 C.ar  101  017101     -0.0042
     34  C34       -7.7210    2.9610  -11.2610 C.ar  101  017101     -0.0003
     35  C35       -7.9380    2.0130  -10.2730 C.ar  101  017101     -0.0000
     36  C36       -7.9020    0.6640  -10.6080 C.ar  101  017101     -0.0003
     37  C37       -7.6540    0.2710  -11.9240 C.ar  101  017101     -0.0042
     38  C38       -7.4430    1.2280  -12.9200 C.ar  101  017101     -0.0204
@<TRIPOS>BOND
     1     1     2    1
     2    15    13    1
     3     2     7   ar
     4     2     3   ar
     5     7     6   ar
     6     3     4   ar
     7    18    17    1
     8    12    13    1
     9    12    11    1
    10    13    14    1
    11    16    17    1
    12    16    11    1
    13     6     5   ar
    14     4     5   ar
    15    17    19    1
    16    11     8    1
    17     5     8    1
    18     8     9    2
    19     8    10    2
    20    19    32    1
    21    19    20    1
    22    32    38    1
    23    20    21   am
    24    21    23    1
    25    21    22    2
    26    38    33   ar
    27    38    37   ar
    28    23    24    1
    29    33    34   ar
    30    25    26    1
    31    25    24    1
    32    37    36   ar
    33    26    27    1
    34    24    31    1
    35    28    29    1
    36    28    27    1
    37    29    30    1
    38    34    35   ar
    39    27    31    1
    40    36    35   ar
    41    31    30    1
