@<TRIPOS>MOLECULE
4dqf_017_B_1.pdb
 38 41 0 0 0
SMALL
GASTEIGER

@<TRIPOS>ATOM
      1  N1       -11.0200   -6.1230  -16.9510 N.pl3 101  017101     -0.1281
      2  C2       -10.0660   -5.5220  -16.1960 C.ar  101  017101      0.0892
      3  C3       -10.2230   -4.1760  -15.8080 C.ar  101  017101      0.0194
      4  C4        -9.2680   -3.5610  -15.0140 C.ar  101  017101      0.0213
      5  C5        -8.1170   -4.2570  -14.6060 C.ar  101  017101      0.1223
      6  C6        -7.9800   -5.6190  -14.9760 C.ar  101  017101      0.0213
      7  C7        -8.9490   -6.2530  -15.7690 C.ar  101  017101      0.0194
      8  S8        -7.0070   -3.5050  -13.6800 S.O2  101  017101      0.0634
      9  O9        -7.6440   -2.3850  -13.0530 O.2   101  017101     -0.1528
     10  O10       -6.4210   -4.4670  -12.8060 O.2   101  017101     -0.1528
     11  N11       -5.7810   -2.8870  -14.6020 N.3   101  017101     -0.1529
     12  C12       -5.1050   -3.9010  -15.4410 C.3   101  017101      0.0958
     13  C13       -3.6100   -3.6090  -15.6430 C.3   101  017101      0.0178
     14  C14       -2.8430   -3.4920  -14.3210 C.3   101  017101      0.0015
     15  C15       -2.9850   -4.7020  -16.5180 C.3   101  017101      0.0015
     16  C16       -6.1370   -1.6730  -15.3790 C.3   101  017101      0.1304
     17  C17       -5.2480   -0.5190  -14.8920 C.3   101  017101      0.1898
     18  O18       -5.3580    0.6320  -15.7680 O.3   101  017101     -0.2197
     19  C19       -5.5080   -0.0990  -13.4240 C.3   101  017101      0.1347
     20  N20       -4.4200    0.7420  -12.9770 N.am  101  017101     -0.1675
     21  C21       -3.4860    0.3740  -12.1230 C.2   101  017101      0.4211
     22  O22       -3.3930   -0.7010  -11.5560 O.2   101  017101     -0.2246
     23  O23       -2.4940    1.3960  -11.9470 O.3   101  017101     -0.4345
     24  C24       -1.6070    1.2390  -10.8520 C.3   101  017101      0.2048
     25  C25       -0.2860    1.8080  -11.3140 C.3   101  017101      0.1884
     26  O26       -0.4920    3.2140  -11.1680 O.3   101  017101     -0.3265
     27  C27       -1.3750    3.4670  -10.0740 C.3   101  017101      0.2388
     28  O28       -2.4040    4.3680  -10.4450 O.3   101  017101     -0.3304
     29  C29       -3.6970    3.7970  -10.2810 C.3   101  017101      0.1451
     30  C30       -3.4960    2.4490   -9.5850 C.3   101  017101      0.0409
     31  C31       -2.0270    2.1410   -9.7080 C.3   101  017101      0.1016
     32  C32       -6.7930    0.6980  -13.2290 C.3   101  017101      0.0508
     33  C33       -7.1260    0.1440  -10.7810 C.ar  101  017101     -0.0042
     34  C34       -7.2630    0.5370   -9.4410 C.ar  101  017101     -0.0003
     35  C35       -7.2280    1.8950   -9.1020 C.ar  101  017101     -0.0000
     36  C36       -7.0790    2.8610  -10.0980 C.ar  101  017101     -0.0003
     37  C37       -6.9250    2.4750  -11.4260 C.ar  101  017101     -0.0042
     38  C38       -6.9630    1.1150  -11.7780 C.ar  101  017101     -0.0204
@<TRIPOS>BOND
     1     1     2    1
     2    15    13    1
     3     2     3   ar
     4     2     7   ar
     5     3     4   ar
     6     7     6   ar
     7    18    17    1
     8    13    12    1
     9    13    14    1
    10    12    11    1
    11    16    17    1
    12    16    11    1
    13     4     5   ar
    14     6     5   ar
    15    17    19    1
    16     5     8    1
    17    11     8    1
    18     8     9    2
    19     8    10    2
    20    19    32    1
    21    19    20    1
    22    32    38    1
    23    20    21   am
    24    21    23    1
    25    21    22    2
    26    23    24    1
    27    38    37   ar
    28    38    33   ar
    29    37    36   ar
    30    25    26    1
    31    25    24    1
    32    26    27    1
    33    24    31    1
    34    33    34   ar
    35    28    29    1
    36    28    27    1
    37    29    30    1
    38    36    35   ar
    39    27    31    1
    40    31    30    1
    41    34    35   ar
