@<TRIPOS>MOLECULE
4dqh_017_B_1.pdb
 38 41 0 0 0
SMALL
GASTEIGER

@<TRIPOS>ATOM
      1  N1        14.6040   35.4290   18.4310 N.pl3 101  017101     -0.1281
      2  C2        15.5230   34.8630   17.6190 C.ar  101  017101      0.0892
      3  C3        16.5370   35.5860   16.9620 C.ar  101  017101      0.0194
      4  C4        17.4270   34.8920   16.1310 C.ar  101  017101      0.0213
      5  C5        17.2690   33.5130   15.9650 C.ar  101  017101      0.1223
      6  C6        16.2630   32.8560   16.6470 C.ar  101  017101      0.0213
      7  C7        15.3910   33.5190   17.4580 C.ar  101  017101      0.0194
      8  S8        18.2330   32.5630   15.0620 S.O2  101  017101      0.0634
      9  O9        17.4670   31.5310   14.4710 O.2   101  017101     -0.1528
     10  O10       18.8950   33.3760   14.0580 O.2   101  017101     -0.1528
     11  N11       19.4210   31.8740   15.9610 N.3   101  017101     -0.1529
     12  C12       20.2130   32.8360   16.7690 C.3   101  017101      0.0958
     13  C13       21.7220   32.5390   16.7370 C.3   101  017101      0.0178
     14  C14       22.3270   32.5770   15.3370 C.3   101  017101      0.0015
     15  C15       22.5010   33.5000   17.6600 C.3   101  017101      0.0015
     16  C16       19.0890   30.6010   16.6400 C.3   101  017101      0.1304
     17  C17       19.9730   29.4920   16.0510 C.3   101  017101      0.1898
     18  O18       19.8970   28.3480   16.9020 O.3   101  017101     -0.2197
     19  C19       19.5930   29.0960   14.6160 C.3   101  017101      0.1347
     20  N20       20.6310   28.2410   14.0990 N.am  101  017101     -0.1675
     21  C21       21.5070   28.5910   13.1590 C.2   101  017101      0.4211
     22  O22       21.6430   29.6620   12.6160 O.2   101  017101     -0.2246
     23  O23       22.4030   27.5220   12.8590 O.3   101  017101     -0.4345
     24  C24       23.2050   27.6510   11.7100 C.3   101  017101      0.2048
     25  C25       24.5250   27.0100   12.1310 C.3   101  017101      0.1884
     26  O26       24.2140   25.6120   12.0360 O.3   101  017101     -0.3265
     27  C27       23.2890   25.3660   10.9790 C.3   101  017101      0.2388
     28  O28       22.2310   24.4890   11.4220 O.3   101  017101     -0.3304
     29  C29       20.9980   25.2030   11.5130 C.3   101  017101      0.1451
     30  C30       21.1830   26.4530   10.6480 C.3   101  017101      0.0409
     31  C31       22.6790   26.7150   10.6360 C.3   101  017101      0.1016
     32  C32       18.2620   28.3310   14.4990 C.3   101  017101      0.0508
     33  C33       17.9820   26.5840   12.6810 C.ar  101  017101     -0.0042
     34  C34       17.7560   26.1820   11.3620 C.ar  101  017101     -0.0003
     35  C35       17.4880   27.1410   10.3950 C.ar  101  017101     -0.0000
     36  C36       17.4570   28.4780   10.7660 C.ar  101  017101     -0.0003
     37  C37       17.7030   28.8880   12.0870 C.ar  101  017101     -0.0042
     38  C38       17.9780   27.9250   13.0550 C.ar  101  017101     -0.0204
@<TRIPOS>BOND
     1    35    36   ar
     2    35    34   ar
     3    31    30    1
     4    31    27    1
     5    31    24    1
     6    30    29    1
     7    36    37   ar
     8    27    28    1
     9    27    26    1
    10    34    33   ar
    11    28    29    1
    12    24    25    1
    13    24    23    1
    14    26    25    1
    15    37    38   ar
    16    22    21    2
    17    33    38   ar
    18    23    21    1
    19    38    32    1
    20    21    20   am
    21    10     8    2
    22    20    19    1
    23     9     8    2
    24    32    19    1
    25    19    17    1
    26     8    11    1
    27     8     5    1
    28    14    13    1
    29    11    16    1
    30    11    12    1
    31     5     4   ar
    32     5     6   ar
    33    17    16    1
    34    17    18    1
    35     4     3   ar
    36     6     7   ar
    37    13    12    1
    38    13    15    1
    39     3     2   ar
    40     7     2   ar
    41     2     1    1
