@<TRIPOS>MOLECULE
4dqi_DCP_A_1.pdb
 40 41 0 0 0
SMALL
GASTEIGER

@<TRIPOS>ATOM
      1  N1       126.1050  -25.4890   38.5000 N.am  902  DCP902     -0.1978
      2  C2       125.4180  -24.5550   37.8220 C.1   902  DCP902      0.2745
      3  N3       124.6510  -23.6880   38.4600 N.2   902  DCP902     -0.3067
      4  C4       124.5600  -23.6790   39.8000 C.2   902  DCP902      0.1840
      5  C5       125.2740  -24.6080   40.5320 C.2   902  DCP902      0.0061
      6  C6       126.0560  -25.5140   39.8610 C.2   902  DCP902      0.0157
      7  O2       125.4580  -24.5080   36.5140 O.2   902  DCP902     -0.1926
      8  N4       123.7550  -22.7470   40.4390 N.pl3 902  DCP902     -0.3326
      9  C1'      127.0210  -26.4220   37.8090 C.3   902  DCP902      0.1424
     10  C2'      128.3720  -25.7590   37.6280 C.3   902  DCP902      0.0199
     11  C3'      129.1210  -26.2120   38.7570 C.3   902  DCP902      0.0875
     12  C4'      128.7000  -27.6250   38.8030 C.3   902  DCP902      0.1105
     13  O4'      127.3100  -27.5910   38.5140 O.3   902  DCP902     -0.3495
     14  O3'      130.5670  -26.1000   38.6100 O.3   902  DCP902     -0.3890
     15  C5'      128.9220  -28.2340   40.1780 C.3   902  DCP902      0.0835
     16  O5'      128.1420  -27.7520   41.2420 O.3   902  DCP902     -0.3246
     17  PA       128.8880  -27.3460   42.6080 P.3   902  DCP902      0.2182
     18  O1A      127.8780  -26.9240   43.5690 O.3   902  DCP902     -0.4371
     19  O2A      129.7030  -28.5480   43.1060 O.2   902  DCP902     -0.5170
     20  O3A      129.8000  -26.0320   42.3280 O.3   902  DCP902     -0.2700
     21  PB       131.3650  -25.9960   42.0660 P.3   902  DCP902      0.2277
     22  O1B      131.4240  -24.9800   40.9470 O.2   902  DCP902     -0.5168
     23  O2B      131.9100  -27.2330   41.6780 O.3   902  DCP902     -0.4368
     24  O3B      131.9770  -25.3790   43.3180 O.3   902  DCP902     -0.2258
     25  PG       132.4270  -26.1230   44.6480 P.3   902  DCP902      0.5373
     26  O1G      131.5480  -25.5730   45.7290 O.3   902  DCP902     -0.1143
     27  O2G      132.3850  -27.6820   44.4670 O.2   902  DCP902     -0.2221
     28  O3G      133.8470  -25.6230   44.8340 O.3   902  DCP902     -0.1143
     29  H5       125.2180  -24.6220   41.5500 H     902  DCP902      0.0676
     30  H6       126.5560  -26.1310   40.3310 H     902  DCP902      0.0794
     31 HN41      123.2990  -22.1100   39.9410 H     902  DCP902      0.1447
     32 HN42      123.6700  -22.7610   41.3720 H     902  DCP902      0.1447
     33  H1'      126.6140  -26.6500   36.9460 H     902  DCP902      0.0820
     34 H2'1      128.2760  -24.7680   37.6430 H     902  DCP902      0.0333
     35 H2'2      128.7760  -26.0510   36.7860 H     902  DCP902      0.0333
     36  H3'      128.8670  -25.7080   39.6310 H     902  DCP902      0.0621
     37  H4'      129.1620  -28.1650   38.0570 H     902  DCP902      0.0646
     38 HO3'      130.7710  -25.3600   38.0640 H     902  DCP902      0.2099
     39 H5'1      128.7740  -29.1970   40.1100 H     902  DCP902      0.0591
     40 H5'2      129.7810  -28.1030   40.3930 H     902  DCP902      0.0591
@<TRIPOS>BOND
     1     7     2    2
     2    35    10    1
     3    33     9    1
     4    10    34    1
     5    10     9    1
     6    10    11    1
     7     9     1    1
     8     9    13    1
     9     2     3    2
    10     2     1   am
    11    37    12    1
    12    38    14    1
    13     3     4    2
    14     1     6    1
    15    13    12    1
    16    14    11    1
    17    11    12    1
    18    11    36    1
    19    12    15    1
    20     4     8    1
    21     4     5    1
    22     6    30    1
    23     6     5    2
    24    31     8    1
    25    39    15    1
    26    15    40    1
    27    15    16    1
    28     8    32    1
    29     5    29    1
    30    22    21    2
    31    16    17    1
    32    23    21    1
    33    21    20    1
    34    21    24    1
    35    20    17    1
    36    17    19    2
    37    17    18    1
    38    24    25    1
    39    27    25    2
    40    25    28    1
    41    25    26    1
