@<TRIPOS>MOLECULE
4dqj_AES_A_1.pdb
 12 12 0 0 0
SMALL
GASTEIGER

@<TRIPOS>ATOM
      1  C3       -35.7190   10.7270  -12.0040 C.ar  305  AES305     -0.0029
      2  C2       -34.6320   10.2760  -11.2470 C.ar  305  AES305      0.0178
      3  C1       -34.3370    8.9510  -11.0990 C.ar  305  AES305      0.1034
      4  S        -33.0400    8.4160  -10.2480 S.3   305  AES305      0.0045
      5  O1S      -32.7100    9.4240   -9.4890 O.3   305  AES305     -0.0734
      6  O2S      -33.3820    7.2570   -9.5610 O.3   305  AES305     -0.0734
      7  C6       -35.2230    8.0760  -11.7170 C.ar  305  AES305      0.0178
      8  C5       -36.3280    8.4990  -12.4540 C.ar  305  AES305     -0.0029
      9  C4       -36.5690    9.8410  -12.6230 C.ar  305  AES305     -0.0206
     10  C7       -37.7710   10.3200  -13.4350 C.3   305  AES305      0.0468
     11  C8       -37.2760   10.7470  -14.8150 C.3   305  AES305      0.1140
     12  N8       -38.3500   11.2270  -15.6480 N.3   305  AES305     -0.1310
@<TRIPOS>BOND
     1    12    11    1
     2    11    10    1
     3    10     9    1
     4     9     8   ar
     5     9     1   ar
     6     8     7   ar
     7     1     2   ar
     8     7     3   ar
     9     2     3   ar
    10     3     4    1
    11     4     6    1
    12     4     5    1
