@<TRIPOS>MOLECULE
4dql_NAP_A_1.pdb
 37 39 0 0 0
SMALL
GASTEIGER

@<TRIPOS>ATOM
      1  PA        -0.1800   85.7800   38.3040 P.3   1102  NAP1102     0.2189
      2  O1A       -0.0700   84.9150   39.4380 O.3   1102  NAP1102    -0.4371
      3  O2A       -1.3000   86.6630   38.1290 O.2   1102  NAP1102    -0.5170
      4  O5B        1.2190   86.6100   38.1760 O.3   1102  NAP1102    -0.3112
      5  C5B        2.4340   85.8490   38.2080 C.3   1102  NAP1102     0.1813
      6  C4B        3.4850   86.8270   38.6460 C.3   1102  NAP1102     0.1820
      7  O4B        3.5700   87.7170   37.5300 O.3   1102  NAP1102    -0.3136
      8  C3B        3.0670   87.6500   39.8950 C.3   1102  NAP1102     0.2157
      9  O3B        4.1820   88.0270   40.6770 O.3   1102  NAP1102    -0.2175
     10  C2B        2.4790   88.8810   39.3040 C.3   1102  NAP1102     0.2314
     11  O2B        2.6700   90.0180   40.0930 O.3   1102  NAP1102    -0.2630
     12  C1B        3.3970   88.9960   37.9960 C.3   1102  NAP1102     0.3158
     13  N9A        2.9570   90.0060   37.0240 N.pl3 1102  NAP1102    -0.1439
     14  C8A        1.7250   90.7270   36.9810 C.3   1102  NAP1102     0.3377
     15  N7A        1.8110   91.6380   35.9540 N.2   1102  NAP1102    -0.2095
     16  C5A        3.0040   91.4840   35.3350 C.2   1102  NAP1102     0.2526
     17  C6A        3.5860   92.1090   34.2410 C.2   1102  NAP1102     0.4393
     18  N6A        2.9660   93.1390   33.5990 N.pl3 1102  NAP1102     0.2180
     19  N1A        4.9050   91.8290   33.9600 N.2   1102  NAP1102     0.0021
     20  C2A        5.5260   90.8220   34.6010 C.3   1102  NAP1102     0.5254
     21  N3A        4.9280   90.1460   35.5990 N.2   1102  NAP1102    -0.0055
     22  C4A        3.7280   90.5050   36.0060 C.2   1102  NAP1102     0.3518
     23  O3        -0.1620   84.5420   37.3260 O.3   1102  NAP1102    -0.2703
     24  PN        -1.0050   83.1900   37.5050 P.3   1102  NAP1102     0.2189
     25  O1N       -0.3980   82.1120   36.7500 O.2   1102  NAP1102    -0.5170
     26  O2N       -1.3370   82.8790   38.9090 O.3   1102  NAP1102    -0.4371
     27  O5D       -2.4470   83.5830   36.7660 O.3   1102  NAP1102    -0.3111
     28  C5D       -3.6230   84.0440   37.4510 C.3   1102  NAP1102     0.1845
     29  C4D       -4.6600   84.8350   36.5800 C.3   1102  NAP1102     0.2119
     30  O4D       -4.0780   85.7250   35.6330 O.3   1102  NAP1102    -0.2177
     31  C3D       -5.7140   83.9830   35.7880 C.3   1102  NAP1102     0.1848
     32  O3D       -5.8470   82.6970   36.3670 O.3   1102  NAP1102    -0.2203
     33  C2D       -7.1330   84.6360   35.7990 C.3   1102  NAP1102     0.0383
     34  P2B        1.4430   91.0200   40.7000 P.3   1102  NAP1102     0.5328
     35  O1X        1.8740   91.1870   42.1270 O.3   1102  NAP1102    -0.1145
     36  O2X        0.2520   90.1260   40.6680 O.3   1102  NAP1102    -0.1145
     37  O3X        1.6030   92.4100   40.2100 O.2   1102  NAP1102    -0.2224
@<TRIPOS>BOND
     1    18    17    1
     2    19    17    2
     3    19    20    1
     4    17    16    1
     5    20    21    1
     6    16    15    2
     7    16    22    1
     8    21    22    2
     9    30    29    1
    10    31    33    1
    11    31    32    1
    12    31    29    1
    13    15    14    1
    14    22    13    1
    15    29    28    1
    16    25    24    2
    17    27    28    1
    18    27    24    1
    19    14    13    1
    20    13    12    1
    21    23    24    1
    22    23     1    1
    23    24    26    1
    24     7    12    1
    25     7     6    1
    26    12    10    1
    27     3     1    2
    28     4     5    1
    29     4     1    1
    30     5     6    1
    31     1     2    1
    32     6     8    1
    33    10     8    1
    34    10    11    1
    35     8     9    1
    36    11    34    1
    37    37    34    2
    38    36    34    1
    39    34    35    1
