@<TRIPOS>MOLECULE
4dqm_LUF_A_1.pdb
 28 29 0 0 0
SMALL
GASTEIGER

@<TRIPOS>ATOM
      1  C4        -2.1750  -20.2500   20.6300 C.3   501  LUF501      0.0000
      2  C5        -3.3430  -20.2940   21.5820 C.3   501  LUF501      0.0000
      3  C6        -4.1130  -21.4480   21.0520 C.3   501  LUF501      0.0000
      4  C7        -4.9490  -21.1620   18.7340 C.3   501  LUF501      0.0043
      5  C8        -2.4260  -21.8720   17.9310 C.3   501  LUF501      0.0000
      6  C10       -5.3540  -22.2440   17.7430 C.3   501  LUF501      0.0217
      7  C13       -7.0840  -22.4530   16.0310 C.2   501  LUF501     -0.0343
      8  C15       -7.9380  -21.9420   14.9260 C.3   501  LUF501      0.0297
      9  C17       -8.2500  -21.8580   12.4800 C.2   501  LUF501     -0.0478
     10  C20      -10.0700  -20.6620   10.9240 C.3   501  LUF501      0.0116
     11  C21       -7.8190  -20.8770   11.4470 C.3   501  LUF501      0.0260
     12  C22       -9.2580  -20.7110    9.6700 C.3   501  LUF501      0.0843
     13  C24       -9.1490  -21.7710    8.8850 C.3   501  LUF501      0.1160
     14  O3        -7.8620  -22.0370    6.9180 O.2   501  LUF501     -0.2500
     15  C25       -8.1770  -21.3670    7.8980 C.2   501  LUF501      0.3190
     16  O1        -7.6410  -20.0540    8.2370 O.3   501  LUF501     -0.4218
     17  C23       -8.4930  -19.5130    9.2350 C.3   501  LUF501      0.3201
     18  O2        -7.7980  -18.8840   10.3020 O.3   501  LUF501     -0.1744
     19  C18      -10.4290  -22.0380   11.3630 C.3   501  LUF501      0.0256
     20  C19       -9.4560  -22.3820   12.4380 C.2   501  LUF501     -0.0346
     21  C16       -7.3330  -22.2700   13.5850 C.3   501  LUF501      0.0263
     22  C12       -6.2000  -21.6780   16.6380 C.2   501  LUF501     -0.0482
     23  C14       -6.0310  -20.2630   16.2390 C.3   501  LUF501      0.0260
     24  C3        -3.9490  -21.6570   19.7610 C.3   501  LUF501      0.0003
     25  C1        -2.6770  -22.2850   19.3520 C.3   501  LUF501      0.0000
     26  C9        -2.7180  -23.7880   19.4950 C.3   501  LUF501      0.0000
     27  C11       -4.9710  -22.2940   21.9300 C.3   501  LUF501      0.0000
     28  C2        -1.7060  -21.6650   20.3110 C.3   501  LUF501      0.0000
@<TRIPOS>BOND
     1    14    15    2
     2    15    16    1
     3    15    13    1
     4    16    17    1
     5    13    12    1
     6    17    12    1
     7    17    18    1
     8    12    10    1
     9    10    19    1
    10    19    20    1
    11    11     9    1
    12    20     9    2
    13     9    21    1
    14    21     8    1
    15     8     7    1
    16     7    22    2
    17    23    22    1
    18    22     6    1
    19     6     4    1
    20     5    25    1
    21     4    24    1
    22    25    26    1
    23    25    24    1
    24    25    28    1
    25    24     3    1
    26    28     1    1
    27     1     2    1
    28     3     2    1
    29     3    27    1
