@<TRIPOS>MOLECULE
4dqo_MAN_C_1.pdb
 21 21 0 0 0
SMALL
GASTEIGER

@<TRIPOS>ATOM
      1  C1        18.8640  -80.5920    7.6280 C.3   307  MAN307      0.1664
      2  C2        20.0810  -80.7690    6.7290 C.3   307  MAN307      0.1182
      3  C3        20.7230  -79.4100    6.4910 C.3   307  MAN307      0.1122
      4  C4        19.6710  -78.5020    5.8730 C.3   307  MAN307      0.1117
      5  C5        18.4700  -78.4290    6.8030 C.3   307  MAN307      0.1110
      6  C6        17.3950  -77.5240    6.2190 C.3   307  MAN307      0.0729
      7  O2        19.6810  -81.3280    5.4990 O.3   307  MAN307     -0.3861
      8  O3        21.8340  -79.5070    5.6290 O.3   307  MAN307     -0.3865
      9  O4        20.2000  -77.2110    5.6720 O.3   307  MAN307     -0.3865
     10  O5        17.9470  -79.7270    6.9920 O.3   307  MAN307     -0.3564
     11  O6        16.4000  -77.2770    7.1880 O.3   307  MAN307     -0.3924
     12  H2        20.7790  -81.4450    7.2240 H     307  MAN307      0.0651
     13  H3        21.0430  -79.0090    7.4530 H     307  MAN307      0.0647
     14  H4        19.3740  -78.9260    4.9140 H     307  MAN307      0.0647
     15  H5        18.7970  -78.0050    7.7520 H     307  MAN307      0.0646
     16  H61       16.9640  -77.9950    5.3360 H     307  MAN307      0.0584
     17  H62       17.8440  -76.5800    5.9100 H     307  MAN307      0.0584
     18  HO2       18.7120  -81.4730    5.5060 H     307  MAN307      0.2100
     19  HO3       21.9590  -80.4410    5.3620 H     307  MAN307      0.2100
     20  HO4       21.1310  -77.1890    5.9770 H     307  MAN307      0.2100
     21  HO6       16.6290  -77.7460    8.0170 H     307  MAN307      0.2095
@<TRIPOS>BOND
     1    14     4    1
     2    16     6    1
     3    19     8    1
     4     7    18    1
     5     7     2    1
     6     8     3    1
     7     9     4    1
     8     9    20    1
     9     4     3    1
    10     4     5    1
    11    17     6    1
    12     6     5    1
    13     6    11    1
    14     3     2    1
    15     3    13    1
    16     2    12    1
    17     2     1    1
    18     5    10    1
    19     5    15    1
    20    10     1    1
    21    11    21    1
