@<TRIPOS>MOLECULE
4dqo_SIA_C_1.pdb
 37 37 0 0 0
SMALL
GASTEIGER

@<TRIPOS>ATOM
      1  C1        14.7690  -69.3560   -6.2340 C.2   317  SIA317      0.3908
      2  C2        13.7340  -70.3670   -6.6750 C.3   317  SIA317      0.2117
      3  C3        14.2780  -71.2660   -7.7860 C.3   317  SIA317      0.0182
      4  C4        15.1850  -72.3620   -7.2530 C.3   317  SIA317      0.0793
      5  C5        14.4910  -73.1080   -6.1320 C.3   317  SIA317      0.0777
      6  C6        14.0570  -72.1510   -5.0320 C.3   317  SIA317      0.1092
      7  C7        13.2630  -72.8870   -3.9630 C.3   317  SIA317      0.1111
      8  C8        12.8100  -71.9290   -2.8690 C.3   317  SIA317      0.1065
      9  C9        12.4760  -72.7160   -1.6090 C.3   317  SIA317      0.0727
     10  C10       14.9570  -75.2660   -5.1070 C.2   317  SIA317      0.2103
     11  C11       16.0280  -76.1840   -4.5970 C.3   317  SIA317      0.0122
     12  N5        15.3920  -74.1110   -5.6000 N.am  317  SIA317     -0.3076
     13  O1A       14.8120  -69.0310   -5.0250 O.co2 317  SIA317     -0.2430
     14  O1B       15.5410  -68.8750   -7.0910 O.co2 317  SIA317     -0.2430
     15  O4        15.5100  -73.2840   -8.2990 O.3   317  SIA317     -0.3898
     16  O6        13.2570  -71.0710   -5.5210 O.3   317  SIA317     -0.3509
     17  O7        12.1230  -73.5190   -4.5550 O.3   317  SIA317     -0.3865
     18  O8        13.8430  -70.9720   -2.6140 O.3   317  SIA317     -0.3869
     19  O9        12.4470  -71.8700   -0.4600 O.3   317  SIA317     -0.3924
     20  O10       13.7740  -75.5590   -5.0720 O.2   317  SIA317     -0.2761
     21  H31       14.8350  -70.6560   -8.5010 H     317  SIA317      0.0325
     22  H32       13.4420  -71.7220   -8.3210 H     317  SIA317      0.0325
     23  H4        16.1020  -71.9020   -6.8590 H     317  SIA317      0.0614
     24  H5        13.6010  -73.6070   -6.5390 H     317  SIA317      0.0550
     25  H6        14.9620  -71.7430   -4.5610 H     317  SIA317      0.0643
     26  H7        13.9130  -73.6480   -3.5100 H     317  SIA317      0.0646
     27  H8        11.9020  -71.4120   -3.2100 H     317  SIA317      0.0643
     28  H91       13.2210  -73.5010   -1.4620 H     317  SIA317      0.0584
     29  H92       11.5030  -73.1980   -1.7290 H     317  SIA317      0.0584
     30 H111       16.9790  -75.7670   -4.8040 H     317  SIA317      0.0322
     31 H112       15.9440  -77.1250   -5.0760 H     317  SIA317      0.0322
     32 H113       15.9180  -76.3090   -3.5510 H     317  SIA317      0.0322
     33  HN5       16.3820  -73.9120   -5.6070 H     317  SIA317      0.1491
     34  HO4       15.8820  -72.8010   -9.0500 H     317  SIA317      0.2099
     35  HO7       11.6660  -74.0490   -3.8880 H     317  SIA317      0.2100
     36  HO8       13.5250  -70.3170   -1.9760 H     317  SIA317      0.2100
     37  HO9       12.1560  -72.3790    0.3090 H     317  SIA317      0.2095
@<TRIPOS>BOND
     1    34    15    1
     2    21     3    1
     3    22     3    1
     4    15     4    1
     5     3     4    1
     6     3     2    1
     7     4    23    1
     8     4     5    1
     9    14     1   ar
    10     2     1    1
    11     2    16    1
    12    24     5    1
    13     1    13   ar
    14     5    12    1
    15     5     6    1
    16    33    12    1
    17    12    10   am
    18    16     6    1
    19    10    20    2
    20    10    11    1
    21    31    11    1
    22     6    25    1
    23     6     7    1
    24    30    11    1
    25    11    32    1
    26    17     7    1
    27    17    35    1
    28     7    26    1
    29     7     8    1
    30    27     8    1
    31     8    18    1
    32     8     9    1
    33    18    36    1
    34    29     9    1
    35     9    28    1
    36     9    19    1
    37    19    37    1
