@<TRIPOS>MOLECULE
4dqp_DCT_A_1.pdb
 35 36 0 0 0
SMALL
GASTEIGER

@<TRIPOS>ATOM
      1  N1       126.3330  -25.2320   38.7170 N.am  901  DCT901     -0.2162
      2  C2       125.7200  -24.2600   37.9500 C.1   901  DCT901      0.2704
      3  N3       124.8920  -23.3310   38.5720 N.2   901  DCT901     -0.3112
      4  C4       124.7160  -23.3610   39.9450 C.2   901  DCT901      0.1649
      5  C5       125.3580  -24.3280   40.7210 C.3   901  DCT901      0.0605
      6  C6       126.1810  -25.2530   40.0820 C.3   901  DCT901      0.0690
      7  O2       125.8880  -24.2510   36.7130 O.2   901  DCT901     -0.1929
      8  N4       123.9350  -22.4610   40.5150 N.pl3 901  DCT901     -0.3358
      9  C1'      127.2400  -26.1930   38.0540 C.3   901  DCT901      0.1430
     10  C2'      128.5340  -25.3610   37.9680 C.3   901  DCT901      0.0374
     11  C3'      129.5170  -26.0790   38.8810 C.3   901  DCT901     -0.0126
     12  C4'      128.9380  -27.4800   39.0790 C.3   901  DCT901      0.0969
     13  O4'      127.5350  -27.3580   38.8100 O.3   901  DCT901     -0.3511
     14  C5'      129.2270  -27.9800   40.5040 C.3   901  DCT901      0.1715
     15  O5'      128.4660  -27.1960   41.4110 O.3   901  DCT901     -0.3117
     16  PA       129.1270  -26.7270   42.7950 P.3   901  DCT901      0.2189
     17  O1A      128.0890  -26.2100   43.7810 O.3   901  DCT901     -0.4371
     18  O2A      129.9240  -27.8700   43.3900 O.2   901  DCT901     -0.5170
     19  O3A      130.0630  -25.4770   42.4190 O.3   901  DCT901     -0.2700
     20  PB       131.6120  -25.3590   42.8660 P.3   901  DCT901      0.2277
     21  O1B      132.2240  -24.3400   41.9250 O.2   901  DCT901     -0.5168
     22  O2B      132.3280  -26.6870   42.8250 O.3   901  DCT901     -0.4368
     23  O3B      131.6020  -24.6500   44.3050 O.3   901  DCT901     -0.2258
     24  PG       131.8720  -25.4710   45.6660 P.3   901  DCT901      0.5373
     25  O1G      130.9920  -24.8160   46.7100 O.3   901  DCT901     -0.1143
     26  O2G      131.4940  -26.9290   45.4900 O.2   901  DCT901     -0.2221
     27  O3G      133.3410  -25.3420   46.0270 O.3   901  DCT901     -0.1143
     28  H5       125.0420  -24.4990   41.7500 H     901  DCT901      0.0415
     29  H6       126.7110  -26.0000   40.6720 H     901  DCT901      0.0535
     30 HN41      123.4720  -21.7590   39.9470 H     901  DCT901      0.1444
     31 HN42      123.7960  -22.4720   41.5210 H     901  DCT901      0.1444
     32  H1'      126.8910  -26.4430   37.0530 H     901  DCT901      0.0822
     33 H3'1      129.6020  -25.5600   39.8360 H     901  DCT901      0.0298
     34 H3'2      130.5020  -26.1330   38.4160 H     901  DCT901      0.0298
     35  H4'      129.4000  -28.1600   38.3630 H     901  DCT901      0.0628
@<TRIPOS>BOND
     1     7     2    2
     2    32     9    1
     3     2     3    2
     4     2     1   am
     5    10     9    1
     6    10    11    1
     7     9     1    1
     8     9    13    1
     9    35    12    1
    10    34    11    1
    11     3     4    2
    12     1     6    1
    13    13    12    1
    14    11    12    1
    15    11    33    1
    16    12    14    1
    17     4     8    1
    18     4     5    1
    19    30     8    1
    20     6    29    1
    21     6     5    1
    22    14    15    1
    23     8    31    1
    24     5    28    1
    25    15    16    1
    26    21    20    2
    27    19    16    1
    28    19    20    1
    29    16    18    2
    30    16    17    1
    31    22    20    1
    32    20    23    1
    33    23    24    1
    34    26    24    2
    35    24    27    1
    36    24    25    1
