@<TRIPOS>MOLECULE
4dqq_CTP_A_1.pdb
 33 34 0 0 0
SMALL
GASTEIGER

@<TRIPOS>ATOM
      1  N1       136.6580  -37.9270   19.9030 N.am  901  CTP901     -0.1952
      2  C2       135.7870  -38.9640   19.5720 C.1   901  CTP901      0.2745
      3  N3       135.9430  -39.8060   18.4350 N.2   901  CTP901     -0.3066
      4  C4       137.0130  -39.5490   17.6290 C.2   901  CTP901      0.1840
      5  C5       137.9080  -38.4890   17.9350 C.2   901  CTP901      0.0061
      6  C6       137.7370  -37.6750   19.0470 C.2   901  CTP901      0.0158
      7  O2       134.7660  -39.1900   20.3740 O.2   901  CTP901     -0.1926
      8  N4       137.1920  -40.3620   16.4840 N.pl3 901  CTP901     -0.3326
      9  C1'      136.3910  -37.1400   21.1030 C.3   901  CTP901      0.1680
     10  C2'      136.8460  -37.9130   22.2830 C.3   901  CTP901      0.1272
     11  O2'      135.9600  -37.7690   23.3360 O.3   901  CTP901     -0.3848
     12  C3'      138.1820  -37.3220   22.5050 C.3   901  CTP901      0.1134
     13  C4'      137.9580  -35.8890   22.2040 C.3   901  CTP901      0.1132
     14  O4'      137.0150  -35.8870   21.1600 O.3   901  CTP901     -0.3468
     15  O3'      138.6230  -37.5330   23.7910 O.3   901  CTP901     -0.3864
     16  C5'      139.2090  -35.1270   21.8300 C.3   901  CTP901      0.0880
     17  O5'      139.4390  -35.2040   20.4490 O.3   901  CTP901     -0.2809
     18  PA       140.8840  -34.9420   19.8700 P.3   901  CTP901      0.5320
     19  O1A      141.7900  -36.0890   20.1800 O.3   901  CTP901     -0.1145
     20  O2A      140.8640  -34.9290   18.3800 O.2   901  CTP901     -0.2224
     21  O3A      141.4530  -33.6000   20.4550 O.3   901  CTP901     -0.1145
     22  H5       138.6630  -38.3240   17.3420 H     901  CTP901      0.0676
     23  H6       138.3710  -36.9620   19.2430 H     901  CTP901      0.0794
     24 HN41      136.6050  -41.0340   16.3070 H     901  CTP901      0.1447
     25 HN42      137.8930  -40.2110   15.9250 H     901  CTP901      0.1447
     26  H1'      135.4290  -37.0040   21.1800 H     901  CTP901      0.0847
     27  H2'      136.9340  -38.8520   22.0560 H     901  CTP901      0.0663
     28 HO2'      136.3680  -37.3610   24.0130 H     901  CTP901      0.2101
     29  H3'      138.8150  -37.7110   21.8740 H     901  CTP901      0.0647
     30  H4'      137.5670  -35.4720   22.9840 H     901  CTP901      0.0647
     31 HO3'      138.7170  -36.7530   24.2040 H     901  CTP901      0.2100
     32 H5'1      139.9690  -35.5040   22.3000 H     901  CTP901      0.0592
     33 H5'2      139.1060  -34.1970   22.0860 H     901  CTP901      0.0592
@<TRIPOS>BOND
     1    25     8    1
     2    24     8    1
     3     8     4    1
     4    22     5    1
     5     4     5    1
     6     4     3    2
     7     5     6    2
     8    20    18    2
     9     3     2    2
    10     6    23    1
    11     6     1    1
    12     2     1   am
    13     2     7    2
    14    18    19    1
    15    18    17    1
    16    18    21    1
    17     1     9    1
    18    17    16    1
    19     9    14    1
    20     9    26    1
    21     9    10    1
    22    14    13    1
    23    16    33    1
    24    16    13    1
    25    16    32    1
    26    29    12    1
    27    27    10    1
    28    13    12    1
    29    13    30    1
    30    10    12    1
    31    10    11    1
    32    12    15    1
    33    11    28    1
    34    15    31    1
