@<TRIPOS>MOLECULE
4dqr_CTP_A_1.pdb
 41 42 0 0 0
SMALL
GASTEIGER

@<TRIPOS>ATOM
      1  N1       125.7600  -25.0510   38.6170 N.am  901  CTP901     -0.1952
      2  C2       125.0720  -24.1020   37.8720 C.1   901  CTP901      0.2745
      3  N3       124.2100  -23.1750   38.5070 N.2   901  CTP901     -0.3066
      4  C4       124.0820  -23.2220   39.8820 C.2   901  CTP901      0.1840
      5  C5       124.7910  -24.1940   40.6610 C.2   901  CTP901      0.0061
      6  C6       125.6380  -25.0920   40.0210 C.2   901  CTP901      0.0158
      7  O2       125.2290  -24.0730   36.5210 O.2   901  CTP901     -0.1926
      8  N4       123.2020  -22.2820   40.4870 N.pl3 901  CTP901     -0.3326
      9  C1'      126.6560  -25.9420   37.9090 C.3   901  CTP901      0.1680
     10  C2'      127.9260  -25.1970   37.5610 C.3   901  CTP901      0.1272
     11  O2'      128.4330  -25.6200   36.3470 O.3   901  CTP901     -0.3848
     12  C3'      128.8030  -25.5450   38.7120 C.3   901  CTP901      0.1134
     13  C4'      128.4490  -26.9870   38.9120 C.3   901  CTP901      0.1131
     14  O4'      127.0610  -27.0690   38.6310 O.3   901  CTP901     -0.3468
     15  O3'      130.1650  -25.3870   38.4670 O.3   901  CTP901     -0.3864
     16  C5'      128.7970  -27.5470   40.2730 C.3   901  CTP901      0.0836
     17  O5'      127.9480  -26.9900   41.2430 O.3   901  CTP901     -0.3246
     18  PA       128.6040  -26.4250   42.5680 P.3   901  CTP901      0.2182
     19  O1A      127.6160  -25.7580   43.4860 O.3   901  CTP901     -0.4371
     20  O2A      129.2290  -27.4900   43.3750 O.2   901  CTP901     -0.5170
     21  O3A      129.6340  -25.3570   42.0390 O.3   901  CTP901     -0.2700
     22  PB       131.0520  -25.0860   42.6900 P.3   901  CTP901      0.2277
     23  O1B      131.7070  -24.0200   41.8480 O.2   901  CTP901     -0.5168
     24  O2B      131.9750  -26.2510   42.4900 O.3   901  CTP901     -0.4368
     25  O3B      130.8660  -24.5230   44.1430 O.3   901  CTP901     -0.2258
     26  PG       131.3860  -25.1690   45.4890 P.3   901  CTP901      0.5373
     27  O1G      131.0320  -24.3030   46.6510 O.3   901  CTP901     -0.1143
     28  O2G      130.7820  -26.5010   45.8430 O.3   901  CTP901     -0.1143
     29  O3G      132.8690  -25.3540   45.5460 O.2   901  CTP901     -0.2221
     30  H5       124.6890  -24.2180   41.6300 H     901  CTP901      0.0676
     31  H6       126.1320  -25.7540   40.5370 H     901  CTP901      0.0794
     32 HN41      122.7580  -21.6780   39.9720 H     901  CTP901      0.1447
     33 HN42      123.0820  -22.2860   41.3880 H     901  CTP901      0.1447
     34  H1'      126.2310  -26.2370   37.0840 H     901  CTP901      0.0847
     35  H2'      127.7650  -24.2400   37.5390 H     901  CTP901      0.0663
     36 HO2'      128.5360  -24.9190   35.8080 H     901  CTP901      0.2101
     37  H3'      128.5440  -25.0160   39.4880 H     901  CTP901      0.0647
     38  H4'      128.9280  -27.5030   38.2490 H     901  CTP901      0.0647
     39 HO3'      130.3550  -24.5220   38.3980 H     901  CTP901      0.2100
     40 H5'1      128.6990  -28.5120   40.2730 H     901  CTP901      0.0591
     41 H5'2      129.7160  -27.3170   40.4840 H     901  CTP901      0.0591
@<TRIPOS>BOND
     1    36    11    1
     2    11    10    1
     3     7     2    2
     4    34     9    1
     5    35    10    1
     6    10     9    1
     7    10    12    1
     8     2     3    2
     9     2     1   am
    10     9     1    1
    11     9    14    1
    12    38    13    1
    13    39    15    1
    14    15    12    1
    15     3     4    2
    16     1     6    1
    17    14    13    1
    18    12    13    1
    19    12    37    1
    20    13    16    1
    21     4     8    1
    22     4     5    1
    23    32     8    1
    24     6    31    1
    25     6     5    2
    26    16    40    1
    27    16    41    1
    28    16    17    1
    29     8    33    1
    30     5    30    1
    31    17    18    1
    32    23    22    2
    33    21    18    1
    34    21    22    1
    35    24    22    1
    36    18    20    2
    37    18    19    1
    38    22    25    1
    39    25    26    1
    40    26    29    2
    41    26    28    1
    42    26    27    1
