@<TRIPOS>MOLECULE
4dqs_CTP_A_1.pdb
 41 42 0 0 0
SMALL
GASTEIGER

@<TRIPOS>ATOM
      1  N1        -7.8620   35.3470   23.4580 N.am  901  CTP901     -0.1952
      2  C2        -7.3250   34.6130   22.4100 C.1   901  CTP901      0.2745
      3  N3        -8.1200   33.8110   21.5650 N.2   901  CTP901     -0.3066
      4  C4        -9.4740   33.7610   21.7970 C.2   901  CTP901      0.1840
      5  C5       -10.0380   34.5170   22.8690 C.2   901  CTP901      0.0061
      6  C6        -9.2390   35.3050   23.6920 C.2   901  CTP901      0.0158
      7  O2        -6.0090   34.6650   22.2290 O.2   901  CTP901     -0.1926
      8  N4       -10.2810   32.9370   20.9520 N.pl3 901  CTP901     -0.3326
      9  C1'       -6.9530   36.1500   24.2550 C.3   901  CTP901      0.1680
     10  C2'       -6.6520   37.4270   23.5400 C.3   901  CTP901      0.1272
     11  O2'       -5.3300   37.7910   23.7230 O.3   901  CTP901     -0.3848
     12  C3'       -7.6310   38.3370   24.1740 C.3   901  CTP901      0.1134
     13  C4'       -7.6040   37.8770   25.5810 C.3   901  CTP901      0.1131
     14  O4'       -7.4690   36.4730   25.5130 O.3   901  CTP901     -0.3468
     15  O3'       -7.2860   39.6670   24.0280 O.3   901  CTP901     -0.3864
     16  C5'       -8.8370   38.2390   26.3780 C.3   901  CTP901      0.0836
     17  O5'       -9.9200   37.5630   25.8160 O.3   901  CTP901     -0.3246
     18  PA       -11.3970   38.0710   25.9680 P.3   901  CTP901      0.2182
     19  O1A      -12.3280   37.1560   25.2290 O.3   901  CTP901     -0.4371
     20  O2A      -11.6020   39.3560   25.2210 O.2   901  CTP901     -0.5170
     21  O3A      -11.7690   38.2300   27.4800 O.3   901  CTP901     -0.2700
     22  PB       -12.4820   37.0890   28.2920 P.3   901  CTP901      0.2277
     23  O1B      -13.9760   37.2660   28.2610 O.2   901  CTP901     -0.5168
     24  O2B      -12.1970   37.2180   29.7570 O.3   901  CTP901     -0.4368
     25  O3B      -12.0400   35.6800   27.7730 O.3   901  CTP901     -0.2258
     26  PG       -13.0830   34.6180   27.2690 P.3   901  CTP901      0.5373
     27  O1G      -14.5160   35.0450   27.3660 O.3   901  CTP901     -0.1143
     28  O2G      -13.0430   33.3200   28.0240 O.3   901  CTP901     -0.1143
     29  O3G      -12.9050   34.2460   25.8280 O.2   901  CTP901     -0.2221
     30  H5       -10.9990   34.4820   23.0250 H     901  CTP901      0.0676
     31  H6        -9.6350   35.8230   24.4160 H     901  CTP901      0.0794
     32 HN41       -9.8960   32.4640   20.2770 H     901  CTP901      0.1447
     33 HN42      -11.1780   32.8850   21.0910 H     901  CTP901      0.1447
     34  H1'       -6.1200   35.6610   24.3780 H     901  CTP901      0.0847
     35  H2'       -6.8430   37.3380   22.5930 H     901  CTP901      0.0663
     36 HO2'       -4.9830   38.0500   22.9450 H     901  CTP901      0.2101
     37  H3'       -8.5110   38.1850   23.7830 H     901  CTP901      0.0647
     38  H4'       -6.8280   38.2550   26.0170 H     901  CTP901      0.0647
     39 HO3'       -7.8220   40.0490   23.4330 H     901  CTP901      0.2100
     40 H5'1       -8.9920   39.1950   26.3340 H     901  CTP901      0.0591
     41 H5'2       -8.7240   37.9680   27.3030 H     901  CTP901      0.0591
@<TRIPOS>BOND
     1    32     8    1
     2     8    33    1
     3     8     4    1
     4     3     4    2
     5     3     2    2
     6     4     5    1
     7     7     2    2
     8     2     1   am
     9    35    10    1
    10     5    30    1
    11     5     6    2
    12    36    11    1
    13    39    15    1
    14     1     6    1
    15     1     9    1
    16    10    11    1
    17    10    12    1
    18    10     9    1
    19     6    31    1
    20    37    12    1
    21    15    12    1
    22    12    13    1
    23     9    34    1
    24     9    14    1
    25    20    18    2
    26    19    18    1
    27    14    13    1
    28    13    38    1
    29    13    16    1
    30    17    18    1
    31    17    16    1
    32    29    26    2
    33    18    21    1
    34    40    16    1
    35    16    41    1
    36    26    27    1
    37    26    25    1
    38    26    28    1
    39    21    22    1
    40    25    22    1
    41    23    22    2
    42    22    24    1
