@<TRIPOS>MOLECULE
4dqu_NAD_A_1.pdb
 44 48 0 0 0
SMALL
GASTEIGER

@<TRIPOS>ATOM
      1  PA         0.7350   33.7990  -11.0480 P.3   500  NAD500      0.2189
      2  O1A        0.9090   32.4370  -10.4720 O.3   500  NAD500     -0.4371
      3  O2A       -0.3360   34.7440  -10.6050 O.2   500  NAD500     -0.5170
      4  O5B        0.5570   33.6170  -12.7210 O.3   500  NAD500     -0.3112
      5  C5B        0.9120   32.3630  -13.3040 C.3   500  NAD500      0.1813
      6  C4B       -0.1050   32.0830  -14.4020 C.3   500  NAD500      0.1821
      7  O4B        0.4000   30.9420  -15.2100 O.3   500  NAD500     -0.3135
      8  C3B       -1.2980   31.5380  -13.6170 C.3   500  NAD500      0.2184
      9  O3B       -2.4620   32.2430  -13.9830 O.3   500  NAD500     -0.2174
     10  C2B       -1.3460   30.1070  -14.0750 C.3   500  NAD500      0.2570
     11  O2B       -2.6940   29.6790  -14.2060 O.3   500  NAD500     -0.2130
     12  C1B       -0.7200   30.1920  -15.4540 C.3   500  NAD500      0.3186
     13  N9A       -0.3980   28.8290  -15.9180 N.pl3 500  NAD500     -0.1439
     14  C8A        0.3650   27.8800  -15.3610 C.3   500  NAD500      0.3377
     15  N7A        0.3370   26.7820  -16.1450 N.2   500  NAD500     -0.2095
     16  C5A       -0.4520   27.0440  -17.2090 C.2   500  NAD500      0.2526
     17  C6A       -0.8820   26.3600  -18.3550 C.2   500  NAD500      0.4393
     18  N6A       -0.5350   25.0940  -18.6590 N.pl3 500  NAD500      0.2180
     19  N1A       -1.6850   27.0130  -19.2130 N.2   500  NAD500      0.0021
     20  C2A       -2.0740   28.2520  -19.0150 C.3   500  NAD500      0.5254
     21  N3A       -1.6890   28.9070  -17.9530 N.2   500  NAD500     -0.0055
     22  C4A       -0.8970   28.3430  -17.0520 C.2   500  NAD500      0.3518
     23  O3         2.1980   34.4730  -10.9080 O.3   500  NAD500     -0.2703
     24  PN         2.6730   35.7950  -11.6370 P.3   500  NAD500      0.2189
     25  O1N        3.8690   36.3110  -11.0120 O.3   500  NAD500     -0.4371
     26  O2N        1.5330   36.7370  -11.8770 O.2   500  NAD500     -0.5170
     27  O5D        3.1800   35.0250  -13.0340 O.3   500  NAD500     -0.3112
     28  C5D        2.8880   35.6830  -14.2650 C.3   500  NAD500      0.1813
     29  C4D        4.1480   35.8810  -15.1090 C.3   500  NAD500      0.1799
     30  O4D        4.9820   36.9860  -14.6020 O.3   500  NAD500     -0.3327
     31  C3D        5.0370   34.6210  -15.1310 C.3   500  NAD500      0.2158
     32  O3D        5.6190   34.6100  -16.4280 O.3   500  NAD500     -0.2175
     33  C2D        6.1300   34.9610  -14.1270 C.3   500  NAD500      0.2309
     34  O2D        7.3080   34.1600  -14.3590 O.3   500  NAD500     -0.2158
     35  C1D        6.3610   36.3750  -14.5890 C.3   500  NAD500      0.2263
     36  N1N        7.1720   37.1550  -13.6620 N.pl3 500  NAD500     -0.2787
     37  C2N        6.8910   37.0450  -12.2720 C.3   500  NAD500      0.1244
     38  C3N        7.6420   37.7570  -11.3580 C.2   500  NAD500      0.0544
     39  C7N        7.3430   37.6570   -9.8400 C.2   500  NAD500      0.2818
     40  O7N        8.2730   38.0890   -8.9570 O.2   500  NAD500     -0.2670
     41  N7N        6.0780   37.3640   -9.4880 N.am  500  NAD500     -0.0839
     42  C4N        8.6380   38.6130  -11.8140 C.2   500  NAD500      0.0033
     43  C5N        8.8720   38.7280  -13.1860 C.2   500  NAD500      0.0157
     44  C6N        8.1430   38.0110  -14.1470 C.2   500  NAD500      0.0633
@<TRIPOS>BOND
     1    19    20    1
     2    19    17    2
     3    20    21    1
     4    18    17    1
     5    17    16    1
     6    21    22    2
     7    16    22    1
     8    16    15    2
     9    22    13    1
    10    32    31    1
    11    15    14    1
    12    13    12    1
    13    13    14    1
    14    12     7    1
    15    12    10    1
    16     7     6    1
    17    31    29    1
    18    31    33    1
    19    29    30    1
    20    29    28    1
    21    30    35    1
    22    35    33    1
    23    35    36    1
    24     6     8    1
    25     6     5    1
    26    34    33    1
    27    28    27    1
    28    11    10    1
    29    44    36    1
    30    44    43    2
    31    10     8    1
    32     9     8    1
    33    36    37    1
    34     5     4    1
    35    43    42    1
    36    27    24    1
    37     4     1    1
    38    37    38    1
    39    26    24    2
    40    42    38    2
    41    24    25    1
    42    24    23    1
    43    38    39    1
    44     1    23    1
    45     1     3    2
    46     1     2    1
    47    39    41   am
    48    39    40    2
