@<TRIPOS>MOLECULE
4dqw_ATP_A_1.pdb
 31 33 0 0 0
SMALL
GASTEIGER

@<TRIPOS>ATOM
      1  PG        -9.4240  -29.2880   35.0670 P.3   501  ATP501      0.5373
      2  O1G       -9.5130  -29.9990   33.7190 O.2   501  ATP501     -0.2221
      3  O2G      -10.6820  -28.6320   35.5630 O.3   501  ATP501     -0.1143
      4  O3G       -8.7660  -30.1200   36.1470 O.3   501  ATP501     -0.1143
      5  PB        -8.8090  -26.8000   33.7650 P.3   501  ATP501      0.2277
      6  O1B       -9.9310  -27.2510   32.8520 O.2   501  ATP501     -0.5168
      7  O2B       -8.8180  -25.4300   34.4210 O.3   501  ATP501     -0.4368
      8  O3B       -8.4960  -27.9920   34.8200 O.3   501  ATP501     -0.2258
      9  PA        -6.9280  -25.7810   31.9140 P.3   501  ATP501      0.2189
     10  O1A       -8.0880  -25.0180   31.3230 O.3   501  ATP501     -0.4371
     11  O2A       -6.0080  -26.5700   31.0070 O.2   501  ATP501     -0.5170
     12  O3A       -7.4120  -26.8470   32.9950 O.3   501  ATP501     -0.2700
     13  O5'       -6.1130  -24.6810   32.7390 O.3   501  ATP501     -0.3112
     14  C5'       -5.0680  -24.9770   33.6530 C.3   501  ATP501      0.1813
     15  C4'       -4.2520  -23.7100   33.8790 C.3   501  ATP501      0.1821
     16  O4'       -3.7070  -23.3230   32.6220 O.3   501  ATP501     -0.3135
     17  C3'       -5.0780  -22.5200   34.3880 C.3   501  ATP501      0.2184
     18  O3'       -4.3670  -21.7170   35.3420 O.3   501  ATP501     -0.2174
     19  C2'       -5.3540  -21.6780   33.1670 C.3   501  ATP501      0.2570
     20  O2'       -5.5190  -20.2950   33.5240 O.3   501  ATP501     -0.2130
     21  C1'       -4.1180  -21.9880   32.3200 C.3   501  ATP501      0.3186
     22  N9        -4.3350  -21.9720   30.8560 N.pl3 501  ATP501     -0.1439
     23  C8        -5.3640  -22.5170   30.1570 C.3   501  ATP501      0.3377
     24  N7        -5.1910  -22.3130   28.8230 N.2   501  ATP501     -0.2095
     25  C5        -4.0320  -21.6490   28.6720 C.2   501  ATP501      0.2526
     26  C6        -3.2460  -21.1090   27.5580 C.2   501  ATP501      0.4393
     27  N6        -3.6580  -21.2420   26.2930 N.pl3 501  ATP501      0.2180
     28  N1        -2.1010  -20.4810   27.8380 N.2   501  ATP501      0.0021
     29  C2        -1.6580  -20.3300   29.0890 C.3   501  ATP501      0.5254
     30  N3        -2.3170  -20.7920   30.1500 N.2   501  ATP501     -0.0055
     31  C4        -3.4780  -21.4390   30.0080 C.2   501  ATP501      0.3518
@<TRIPOS>BOND
     1    27    26    1
     2    26    28    2
     3    26    25    1
     4    28    29    1
     5    25    24    2
     6    25    31    1
     7    24    23    1
     8    29    30    1
     9    31    30    2
    10    31    22    1
    11    23    22    1
    12    22    21    1
    13    11     9    2
    14    10     9    1
    15     9    13    1
    16     9    12    1
    17    21    16    1
    18    21    19    1
    19    16    15    1
    20    13    14    1
    21     6     5    2
    22    12     5    1
    23    19    20    1
    24    19    17    1
    25    14    15    1
    26     2     1    2
    27     5     7    1
    28     5     8    1
    29    15    17    1
    30    17    18    1
    31     8     1    1
    32     1     3    1
    33     1     4    1
