@<TRIPOS>MOLECULE
4dr9_BB2_A_1.pdb
 27 27 0 0 0
SMALL
GASTEIGER

@<TRIPOS>ATOM
      1  C5        36.2650   51.8780    4.4090 C.3   203  BB2203      0.0603
      2  C3        35.4980   53.1490    4.6880 C.2   203  BB2203      0.0873
      3  O4        34.5060   53.2580    5.3860 O.2   203  BB2203     -0.5395
      4  N1        35.8890   54.1890    4.0480 N.am  203  BB2203     -0.2030
      5  O2        35.1970   55.3280    4.3480 O.3   203  BB2203     -0.4026
      6  C6        35.5840   51.1860    3.2220 C.3   203  BB2203      0.0845
      7  C12       35.9210   49.7340    3.2970 C.2   203  BB2203      0.2417
      8  O13       37.0670   49.3540    3.2870 O.2   203  BB2203     -0.2733
      9  C7        36.0260   51.7780    1.8890 C.3   203  BB2203      0.0095
     10  C8        35.5440   51.0470    0.6130 C.3   203  BB2203      0.0005
     11  C9        34.0370   51.0680    0.4650 C.3   203  BB2203      0.0000
     12  C10       33.6260   50.7650   -0.9840 C.3   203  BB2203      0.0000
     13  C11       33.4270   49.2690   -1.1700 C.3   203  BB2203      0.0000
     14  N14       34.8850   48.8980    3.3610 N.am  203  BB2203     -0.1978
     15  C15       34.9840   47.4520    3.3090 C.3   203  BB2203      0.1711
     16  C16       34.5580   46.8490    4.6600 C.3   203  BB2203      0.0289
     17  C18       35.0510   45.4250    4.8090 C.3   203  BB2203      0.0023
     18  C17       35.1120   47.6630    5.8280 C.3   203  BB2203      0.0023
     19  C19       34.1090   46.9480    2.1830 C.2   203  BB2203      0.2455
     20  O20       32.9120   47.1520    2.2360 O.2   203  BB2203     -0.2730
     21  N21       34.5880   46.3080    1.1450 N.am  203  BB2203     -0.2772
     22  C22       33.6580   45.7500    0.1650 C.3   203  BB2203      0.1083
     23  C23       35.9920   46.1150    0.8230 C.3   203  BB2203      0.0935
     24  C24       35.9370   45.6390   -0.6180 C.3   203  BB2203      0.0233
     25  C25       34.5490   45.1230   -0.9010 C.3   203  BB2203      0.0243
     26  C26       32.7100   44.7040    0.7590 C.3   203  BB2203      0.2017
     27  O27       33.4340   43.5300    1.1420 O.3   203  BB2203     -0.2186
@<TRIPOS>BOND
     1    13    12    1
     2    12    11    1
     3    25    24    1
     4    25    22    1
     5    24    23    1
     6    22    26    1
     7    22    21    1
     8    11    10    1
     9    10     9    1
    10    26    27    1
    11    23    21    1
    12    21    19   am
    13     9     6    1
    14    19    20    2
    15    19    15    1
    16     6     7    1
    17     6     1    1
    18     8     7    2
    19     7    14   am
    20    15    14    1
    21    15    16    1
    22     4     5    1
    23     4     2   am
    24     1     2    1
    25    16    17    1
    26    16    18    1
    27     2     3    2
