@<TRIPOS>MOLECULE
4dre_NAD_A_1.pdb
 44 48 0 0 0
SMALL
GASTEIGER

@<TRIPOS>ATOM
      1  PA       -29.2050   16.2300  -12.1460 P.3   500  NAD500      0.2189
      2  O1A      -28.1170   15.4220  -12.7090 O.2   500  NAD500     -0.5170
      3  O2A      -29.5080   17.6380  -12.5930 O.3   500  NAD500     -0.4371
      4  O5B      -28.9760   16.2670  -10.4780 O.3   500  NAD500     -0.3112
      5  C5B      -28.1800   15.3020   -9.8330 C.3   500  NAD500      0.1813
      6  C4B      -27.2980   16.0750   -8.8200 C.3   500  NAD500      0.1821
      7  O4B      -26.5750   15.1020   -7.9630 O.3   500  NAD500     -0.3135
      8  C3B      -26.1970   16.8420   -9.5960 C.3   500  NAD500      0.2184
      9  O3B      -26.2500   18.2200   -9.2850 O.3   500  NAD500     -0.2174
     10  C2B      -24.9390   16.2080   -9.0720 C.3   500  NAD500      0.2570
     11  O2B      -23.8680   17.1680   -9.0170 O.3   500  NAD500     -0.2130
     12  C1B      -25.3810   15.7550   -7.6770 C.3   500  NAD500      0.3186
     13  N9A      -24.3790   14.8160   -7.1720 N.pl3 500  NAD500     -0.1439
     14  C8A      -23.9500   13.6620   -7.7290 C.3   500  NAD500      0.3377
     15  N7A      -22.9980   13.1450   -6.9350 N.2   500  NAD500     -0.2095
     16  C5A      -22.8140   13.9640   -5.8980 C.2   500  NAD500      0.2526
     17  C6A      -21.9760   13.9620   -4.7810 C.2   500  NAD500      0.4393
     18  N6A      -21.0680   13.0050   -4.5020 N.pl3 500  NAD500      0.2180
     19  N1A      -22.1120   14.9760   -3.9310 N.2   500  NAD500      0.0021
     20  C2A      -22.9790   15.9710   -4.1240 C.3   500  NAD500      0.5254
     21  N3A      -23.7860   15.9960   -5.1560 N.2   500  NAD500     -0.0055
     22  C4A      -23.7180   14.9990   -6.0430 C.2   500  NAD500      0.3518
     23  O3       -30.5240   15.3170  -12.3010 O.3   500  NAD500     -0.2703
     24  PN       -31.9410   15.5090  -11.5450 P.3   500  NAD500      0.2189
     25  O1N      -32.9660   14.7350  -12.2960 O.2   500  NAD500     -0.5170
     26  O2N      -32.1470   16.9690  -11.3870 O.3   500  NAD500     -0.4371
     27  O5D      -31.5590   14.6890  -10.1730 O.3   500  NAD500     -0.3112
     28  C5D      -31.9910   15.3010   -8.8960 C.3   500  NAD500      0.1813
     29  C4D      -32.8040   14.3400   -8.0580 C.3   500  NAD500      0.1799
     30  O4D      -34.0900   14.0860   -8.7260 O.3   500  NAD500     -0.3327
     31  C3D      -32.1010   13.0020   -8.0610 C.3   500  NAD500      0.2158
     32  O3D      -32.2640   12.4470   -6.7750 O.3   500  NAD500     -0.2175
     33  C2D      -32.9430   12.1590   -9.0490 C.3   500  NAD500      0.2309
     34  O2D      -32.8360   10.7480   -8.7560 O.3   500  NAD500     -0.2158
     35  C1D      -34.2940   12.6370   -8.6730 C.3   500  NAD500      0.2263
     36  N1N      -35.3830   12.3400   -9.6340 N.pl3 500  NAD500     -0.2787
     37  C2N      -35.1650   12.5080  -11.0280 C.3   500  NAD500      0.1244
     38  C3N      -36.2000   12.2470  -11.9340 C.2   500  NAD500      0.0544
     39  C7N      -35.9650   12.4310  -13.4440 C.2   500  NAD500      0.2818
     40  O7N      -36.7900   11.9020  -14.3780 O.2   500  NAD500     -0.2670
     41  N7N      -34.9690   13.2370  -13.7950 N.am  500  NAD500     -0.0839
     42  C4N      -37.4440   11.8370  -11.4560 C.2   500  NAD500      0.0033
     43  C5N      -37.6500   11.6770  -10.0770 C.2   500  NAD500      0.0157
     44  C6N      -36.6390   11.9400   -9.1600 C.2   500  NAD500      0.0633
@<TRIPOS>BOND
     1    40    39    2
     2    41    39   am
     3    39    38    1
     4     2     1    2
     5     3     1    1
     6    23     1    1
     7    23    24    1
     8    25    24    2
     9     1     4    1
    10    38    42    2
    11    38    37    1
    12    24    26    1
    13    24    27    1
    14    42    43    1
    15    37    36    1
    16     4     5    1
    17    27    28    1
    18    43    44    2
    19     5     6    1
    20    36    44    1
    21    36    35    1
    22     8     9    1
    23     8    10    1
    24     8     6    1
    25    10    11    1
    26    10    12    1
    27    33    34    1
    28    33    35    1
    29    33    31    1
    30    28    29    1
    31     6     7    1
    32    30    35    1
    33    30    29    1
    34    31    29    1
    35    31    32    1
    36     7    12    1
    37    14    13    1
    38    14    15    1
    39    12    13    1
    40    13    22    1
    41    15    16    2
    42    22    16    1
    43    22    21    2
    44    16    17    1
    45    21    20    1
    46    17    18    1
    47    17    19    2
    48    20    19    1
