@<TRIPOS>MOLECULE
4drk_I63_A_1.pdb
 42 44 0 0 0
SMALL
GASTEIGER

@<TRIPOS>ATOM
      1  O42       13.1750  -15.5400   29.8980 O.co2 201  I63201     -0.2415
      2  C40       13.3870  -15.8000   28.6980 C.2   201  I63201      0.4084
      3  O41       12.5270  -15.7170   27.7910 O.co2 201  I63201     -0.2415
      4  C39       14.7510  -16.2980   28.2770 C.3   201  I63201      0.3186
      5  O38       15.7300  -16.0680   29.2940 O.3   201  I63201     -0.4637
      6  C26       16.3280  -14.8520   29.4810 C.ar  201  I63201      0.1392
      7  C25       17.3680  -14.8270   30.4010 C.ar  201  I63201      0.0361
      8  C27       15.9450  -13.6840   28.8130 C.ar  201  I63201      0.0369
      9  C28       16.6120  -12.4740   29.0720 C.ar  201  I63201      0.0029
     10  C29       17.6600  -12.4320   29.9890 C.ar  201  I63201     -0.0006
     11  C24       18.0310  -13.6070   30.6640 C.ar  201  I63201      0.0203
     12  C15       19.2030  -13.5170   31.5950 C.3   201  I63201      0.1916
     13  C16       18.9360  -14.0850   32.9900 C.3   201  I63201      0.0530
     14  C17       18.1850  -13.0880   33.8540 C.3   201  I63201      0.0305
     15  C18       19.0630  -11.9900   34.4320 C.ar  201  I63201     -0.0188
     16  C23       18.9910  -10.6710   33.9580 C.ar  201  I63201     -0.0009
     17  C22       19.7790   -9.6430   34.4940 C.ar  201  I63201      0.0397
     18  C21       20.6900   -9.9300   35.5250 C.ar  201  I63201      0.1724
     19  O34       21.5250   -9.0290   36.1510 O.3   201  I63201     -0.4684
     20  C35       21.3070   -7.6310   35.8790 C.3   201  I63201      0.2526
     21  C20       20.7460  -11.2490   35.9910 C.ar  201  I63201      0.1721
     22  O36       21.6430  -11.4740   36.9990 O.3   201  I63201     -0.4684
     23  C37       21.6390  -12.6820   37.8000 C.3   201  I63201      0.2526
     24  C19       19.9730  -12.2800   35.4640 C.ar  201  I63201      0.0358
     25  O1        20.1400  -14.4060   30.9500 O.3   201  I63201     -0.4465
     26  C1        21.4900  -14.0060   30.8510 C.2   201  I63201      0.3354
     27  O2        21.8440  -12.9750   31.3410 O.2   201  I63201     -0.2483
     28  C2        22.4420  -15.0000   30.2300 C.3   201  I63201      0.1749
     29  N7        21.7860  -16.1830   29.6390 N.am  201  I63201     -0.2656
     30  C6        20.9790  -15.9470   28.3900 C.3   201  I63201      0.0943
     31  C5        21.7980  -15.1420   27.3380 C.3   201  I63201      0.0216
     32  C4        22.4240  -13.8820   27.9400 C.3   201  I63201      0.0040
     33  C3        23.2710  -14.2870   29.1560 C.3   201  I63201      0.0314
     34  C8        21.9280  -17.3840   30.2460 C.2   201  I63201      0.2842
     35  O3        22.6300  -17.5450   31.2660 O.2   201  I63201     -0.2668
     36  C9        21.2740  -18.6190   29.6960 C.2   201  I63201      0.2252
     37  O4        21.8130  -19.2080   28.7600 O.2   201  I63201     -0.2865
     38  C10       20.0580  -19.2200   30.3990 C.3   201  I63201      0.0601
     39  C13       19.2290  -20.0610   29.4280 C.3   201  I63201      0.0079
     40  C14       19.2620  -18.1170   31.1320 C.3   201  I63201      0.0079
     41  C11       20.5690  -20.1790   31.4870 C.3   201  I63201      0.0074
     42  C12       19.5130  -20.7000   32.4280 C.3   201  I63201      0.0004
@<TRIPOS>BOND
     1    31    32    1
     2    31    30    1
     3     3     2   ar
     4    32    33    1
     5     4     2    1
     6     4     5    1
     7    30    29    1
     8     2     1   ar
     9    37    36    2
    10     8     9   ar
    11     8     6   ar
    12     9    10   ar
    13    33    28    1
    14     5     6    1
    15    39    38    1
    16     6     7   ar
    17    29    28    1
    18    29    34   am
    19    36    34    1
    20    36    38    1
    21    10    11   ar
    22    28    26    1
    23    34    35    2
    24    38    40    1
    25    38    41    1
    26     7    11   ar
    27    11    12    1
    28    26    25    1
    29    26    27    2
    30    25    12    1
    31    41    42    1
    32    12    13    1
    33    13    14    1
    34    14    15    1
    35    16    15   ar
    36    16    17   ar
    37    15    24   ar
    38    17    18   ar
    39    24    21   ar
    40    18    21   ar
    41    18    19    1
    42    20    19    1
    43    21    22    1
    44    22    23    1
