@<TRIPOS>MOLECULE
4drm_0MC_A_1.pdb
 46 49 0 0 0
SMALL
GASTEIGER

@<TRIPOS>ATOM
      1  CAA       26.5360   16.0350  -22.4370 C.3   201  0MC201      0.0001
      2  CAQ       27.7260   15.7860  -21.4930 C.3   201  0MC201      0.0029
      3  CBQ       28.4180   14.4040  -21.6720 C.3   201  0MC201      0.0354
      4  CAX       28.6010   13.9760  -23.1480 C.3   201  0MC201      0.0029
      5  CAS       29.4660   12.6940  -23.2320 C.3   201  0MC201      0.0002
      6  CAU       28.8480   11.5260  -22.4280 C.3   201  0MC201      0.0030
      7  CBB       28.5710   11.9180  -20.9600 C.3   201  0MC201      0.0382
      8  CBT       27.7810   13.2500  -20.8290 C.3   201  0MC201      0.1855
      9  OAI       26.4500   13.0000  -21.2620 O.3   201  0MC201     -0.2176
     10  CBJ       27.7830   13.6320  -19.3380 C.2   201  0MC201      0.2532
     11  OAG       26.7620   13.6290  -18.6570 O.2   201  0MC201     -0.2839
     12  CBI       29.0490   14.1080  -18.6270 C.2   201  0MC201      0.2867
     13  OAF       29.3210   15.3190  -18.7340 O.2   201  0MC201     -0.2667
     14  N         29.7800   13.2670  -17.8810 N.am  201  0MC201     -0.2655
     15  CBA       29.4110   11.7890  -17.7400 C.3   201  0MC201      0.0943
     16  CAT       29.4020   11.3940  -16.2520 C.3   201  0MC201      0.0216
     17  CAR       30.7330   11.8090  -15.5660 C.3   201  0MC201      0.0040
     18  CB        30.9690   13.3270  -15.7400 C.3   201  0MC201      0.0314
     19  CA        30.9930   13.7590  -17.2200 C.3   201  0MC201      0.1749
     20  C         32.2510   13.2290  -17.9100 C.2   201  0MC201      0.3354
     21  O         33.3590   13.3900  -17.4090 O.2   201  0MC201     -0.2483
     22  OBF       32.1020   12.6040  -19.0770 O.3   201  0MC201     -0.4465
     23  CBP       33.2870   12.1460  -19.7830 C.3   201  0MC201      0.1916
     24  CAZ       33.5020   13.0620  -20.9810 C.3   201  0MC201      0.0530
     25  CAV       34.9240   12.8360  -21.5870 C.3   201  0MC201      0.0305
     26  CBK       36.1080   13.4320  -20.7540 C.ar  201  0MC201     -0.0188
     27  CAO       36.3280   14.8170  -20.7830 C.ar  201  0MC201      0.0358
     28  CAM       36.9390   12.6300  -19.9900 C.ar  201  0MC201     -0.0009
     29  CAN       37.9940   13.1740  -19.2410 C.ar  201  0MC201      0.0397
     30  CBN       38.2100   14.5640  -19.2820 C.ar  201  0MC201      0.1724
     31  OBC       39.2250   15.2090  -18.5920 O.3   201  0MC201     -0.4684
     32  CAB       40.2000   14.3580  -17.9450 C.3   201  0MC201      0.2526
     33  CBO       37.3740   15.3770  -20.0380 C.ar  201  0MC201      0.1721
     34  OBD       37.6550   16.7170  -20.0090 O.3   201  0MC201     -0.4684
     35  CAC       36.9080   17.6200  -20.8600 C.3   201  0MC201      0.2526
     36  CBM       33.0090   10.6510  -20.0300 C.ar  201  0MC201      0.0203
     37  CAP       33.7240    9.7330  -19.2740 C.ar  201  0MC201      0.0361
     38  CAL       32.0650   10.2190  -20.9830 C.ar  201  0MC201     -0.0006
     39  CAJ       31.8710    8.8430  -21.1410 C.ar  201  0MC201      0.0029
     40  CAK       32.5850    7.9230  -20.3680 C.ar  201  0MC201      0.0369
     41  CBL       33.5220    8.3650  -19.4120 C.ar  201  0MC201      0.1392
     42  OBE       34.2820    7.5430  -18.5720 O.3   201  0MC201     -0.4637
     43  CAW       33.9340    6.1270  -18.4460 C.3   201  0MC201      0.3186
     44  CBG       34.4220    5.4240  -19.7240 C.2   201  0MC201      0.4084
     45  OAH       35.3470    5.9640  -20.3840 O.co2 201  0MC201     -0.2415
     46  OAD       33.8520    4.3570  -20.0500 O.co2 201  0MC201     -0.2415
@<TRIPOS>BOND
     1     5     4    1
     2     5     6    1
     3     4     3    1
     4     1     2    1
     5     6     7    1
     6     3     2    1
     7     3     8    1
     8    25    24    1
     9    25    26    1
    10     9     8    1
    11    39    38   ar
    12    39    40   ar
    13    38    36   ar
    14    24    23    1
    15     7     8    1
    16    35    34    1
    17     8    10    1
    18    27    26   ar
    19    27    33   ar
    20    26    28   ar
    21    45    44   ar
    22    40    41   ar
    23    46    44   ar
    24    33    34    1
    25    33    30   ar
    26    36    23    1
    27    36    37   ar
    28    28    29   ar
    29    23    22    1
    30    44    43    1
    31    41    37   ar
    32    41    42    1
    33    10    11    2
    34    10    12    1
    35    30    29   ar
    36    30    31    1
    37    22    20    1
    38    13    12    2
    39    12    14   am
    40    31    32    1
    41    42    43    1
    42    20    21    2
    43    20    19    1
    44    14    15    1
    45    14    19    1
    46    15    16    1
    47    19    18    1
    48    16    17    1
    49    18    17    1
