@<TRIPOS>MOLECULE
4drn_0MC_A_1.pdb
 46 49 0 0 0
SMALL
GASTEIGER

@<TRIPOS>ATOM
      1  CAA        5.9180    3.3580   -8.5660 C.3   201  0MC201      0.0001
      2  CAQ        5.3800    1.9420   -8.4980 C.3   201  0MC201      0.0029
      3  CBQ        6.0830    1.0530   -9.4980 C.3   201  0MC201      0.0354
      4  CAX        5.8530    1.6830  -10.8990 C.3   201  0MC201      0.0029
      5  CAS        6.4490    0.7800  -12.0010 C.3   201  0MC201      0.0002
      6  CAU        5.8110   -0.6050  -11.9460 C.3   201  0MC201      0.0030
      7  CBB        6.0220   -1.2270  -10.5690 C.3   201  0MC201      0.0382
      8  CBT        5.4670   -0.3380   -9.4450 C.3   201  0MC201      0.1855
      9  OAI        4.0360   -0.2250   -9.5680 O.3   201  0MC201     -0.2176
     10  CBJ        5.7960   -1.0600   -8.1270 C.2   201  0MC201      0.2532
     11  OAG        4.9270   -1.5760   -7.4130 O.2   201  0MC201     -0.2839
     12  CBI        7.2130   -1.1940   -7.6250 C.2   201  0MC201      0.2867
     13  OAF        7.6730   -0.2400   -6.9960 O.2   201  0MC201     -0.2667
     14  N          7.8930   -2.3270   -7.8090 N.am  201  0MC201     -0.2655
     15  CBA        7.3630   -3.4770   -8.5690 C.3   201  0MC201      0.0943
     16  CAT        7.5210   -4.7840   -7.7920 C.3   201  0MC201      0.0216
     17  CAR        8.9670   -4.9340   -7.3480 C.3   201  0MC201      0.0040
     18  CB         9.3640   -3.7870   -6.4610 C.3   201  0MC201      0.0314
     19  CA         9.2400   -2.4430   -7.2180 C.3   201  0MC201      0.1749
     20  C         10.3430   -2.3530   -8.2480 C.2   201  0MC201      0.3354
     21  O         11.4840   -2.6490   -7.9810 O.2   201  0MC201     -0.2483
     22  OBF        9.9570   -1.8950   -9.4410 O.3   201  0MC201     -0.4465
     23  CBP       10.9870   -1.8150  -10.4700 C.3   201  0MC201      0.1916
     24  CAZ       11.1690   -0.3600  -10.8540 C.3   201  0MC201      0.0530
     25  CAV       12.4220   -0.1540  -11.6970 C.3   201  0MC201      0.0305
     26  CBK       13.7150   -0.3270  -10.9020 C.ar  201  0MC201     -0.0188
     27  CAO       14.1230    0.6500  -10.0000 C.ar  201  0MC201      0.0358
     28  CAM       14.5590   -1.4280  -11.1040 C.ar  201  0MC201     -0.0009
     29  CAN       15.7580   -1.5840  -10.3890 C.ar  201  0MC201      0.0397
     30  CBN       16.1390   -0.5900   -9.4880 C.ar  201  0MC201      0.1724
     31  OBC       17.2860   -0.6150   -8.7650 O.3   201  0MC201     -0.4684
     32  CAB       18.2760   -1.6540   -9.0200 C.3   201  0MC201      0.2526
     33  CBO       15.3220    0.5250   -9.2830 C.ar  201  0MC201      0.1721
     34  OBD       15.7840    1.4300   -8.3790 O.3   201  0MC201     -0.4684
     35  CAC       15.0400    2.6390   -8.1960 C.3   201  0MC201      0.2526
     36  CBM       10.5620   -2.7220  -11.5950 C.ar  201  0MC201      0.0203
     37  CAP        9.4700   -2.4610  -12.3710 C.ar  201  0MC201      0.0361
     38  CAL       11.2840   -3.8880  -11.7660 C.ar  201  0MC201     -0.0006
     39  CAJ       10.9970   -4.8130  -12.7370 C.ar  201  0MC201      0.0029
     40  CAK        9.9200   -4.5250  -13.5370 C.ar  201  0MC201      0.0369
     41  CBL        9.1610   -3.3830  -13.3640 C.ar  201  0MC201      0.1392
     42  OBE        8.1570   -3.0810  -14.1830 O.3   201  0MC201     -0.4637
     43  CAW        7.9210   -3.9680  -15.2570 C.3   201  0MC201      0.3186
     44  CBG        8.9430   -4.0250  -16.4020 C.2   201  0MC201      0.4084
     45  OAH        8.7710   -4.9890  -17.1860 O.co2 201  0MC201     -0.2415
     46  OAD        9.8760   -3.1730  -16.5290 O.co2 201  0MC201     -0.2415
@<TRIPOS>BOND
     1    45    44   ar
     2    46    44   ar
     3    44    43    1
     4    43    42    1
     5    42    41    1
     6    40    41   ar
     7    40    39   ar
     8    41    37   ar
     9    39    38   ar
    10    37    36   ar
    11     5     6    1
    12     5     4    1
    13     6     7    1
    14    38    36   ar
    15    25    26    1
    16    25    24    1
    17    36    23    1
    18    28    26   ar
    19    28    29   ar
    20    26    27   ar
    21     4     3    1
    22    24    23    1
    23     7     8    1
    24    23    22    1
    25    29    30   ar
    26    27    33   ar
    27     9     8    1
    28     3     8    1
    29     3     2    1
    30    30    33   ar
    31    30    31    1
    32     8    10    1
    33    22    20    1
    34    33    34    1
    35    32    31    1
    36    15    14    1
    37    15    16    1
    38     1     2    1
    39    34    35    1
    40    20    21    2
    41    20    19    1
    42    10    12    1
    43    10    11    2
    44    14    12   am
    45    14    19    1
    46    16    17    1
    47    12    13    2
    48    17    18    1
    49    19    18    1
