@<TRIPOS>MOLECULE
4dro_0MD_A_1.pdb
 41 44 0 0 0
SMALL
GASTEIGER

@<TRIPOS>ATOM
      1  CAA       26.3140   15.9000  -22.6000 C.3   201  0MD201      0.0001
      2  CAQ       27.3960   15.1500  -21.8090 C.3   201  0MD201      0.0029
      3  CBQ       27.1120   13.6370  -21.8030 C.3   201  0MD201      0.0354
      4  CAX       27.2430   13.0080  -23.2020 C.3   201  0MD201      0.0029
      5  CAS       26.8060   11.5470  -23.1380 C.3   201  0MD201      0.0002
      6  CAU       27.7130   10.7510  -22.1750 C.3   201  0MD201      0.0030
      7  CBB       27.7590   11.3930  -20.7800 C.3   201  0MD201      0.0382
      8  CBT       28.0580   12.9190  -20.8130 C.3   201  0MD201      0.1855
      9  OAI       29.4600   13.0420  -21.1970 O.3   201  0MD201     -0.2176
     10  CBJ       27.8790   13.5230  -19.3750 C.2   201  0MD201      0.2532
     11  OAG       26.8110   13.5340  -18.7790 O.2   201  0MD201     -0.2839
     12  CBI       29.0860   14.0900  -18.6340 C.2   201  0MD201      0.2867
     13  OAF       29.3010   15.2920  -18.7890 O.2   201  0MD201     -0.2667
     14  N         29.8190   13.2880  -17.8540 N.am  201  0MD201     -0.2655
     15  CBA       29.4750   11.8370  -17.6730 C.3   201  0MD201      0.0943
     16  CAT       29.4830   11.4810  -16.1910 C.3   201  0MD201      0.0216
     17  CAR       30.7930   11.9140  -15.5360 C.3   201  0MD201      0.0040
     18  CB        31.0140   13.4050  -15.6880 C.3   201  0MD201      0.0314
     19  CA        31.0070   13.8190  -17.1570 C.3   201  0MD201      0.1749
     20  C         32.2910   13.3600  -17.7990 C.2   201  0MD201      0.3354
     21  O         33.3680   13.5940  -17.2980 O.2   201  0MD201     -0.2483
     22  OBF       32.1590   12.6910  -18.9450 O.3   201  0MD201     -0.4466
     23  CBP       33.3540   12.2380  -19.6040 C.3   201  0MD201      0.1915
     24  CAZ       33.6660   13.1700  -20.7760 C.3   201  0MD201      0.0530
     25  CAV       35.0620   12.9040  -21.3490 C.3   201  0MD201      0.0305
     26  CBK       36.1960   13.5400  -20.5460 C.ar  201  0MD201     -0.0188
     27  CAO       36.3960   14.9240  -20.5470 C.ar  201  0MD201      0.0358
     28  CAM       37.0330   12.7480  -19.7720 C.ar  201  0MD201     -0.0009
     29  CAN       38.0850   13.3090  -19.0310 C.ar  201  0MD201      0.0397
     30  CBN       38.2940   14.6780  -19.0500 C.ar  201  0MD201      0.1724
     31  OBC       39.2910   15.3170  -18.3720 O.3   201  0MD201     -0.4684
     32  CAB       40.2610   14.4640  -17.7570 C.3   201  0MD201      0.2526
     33  CBO       37.4290   15.4940  -19.8080 C.ar  201  0MD201      0.1721
     34  OBD       37.7170   16.8300  -19.7650 O.3   201  0MD201     -0.4684
     35  CAC       36.9920   17.6960  -20.6870 C.3   201  0MD201      0.2526
     36  CBM       33.0640   10.7900  -19.9910 C.ar  201  0MD201      0.0173
     37  CAP       31.9550   10.4950  -20.7810 C.ar  201  0MD201     -0.0008
     38  CAL       33.8890    9.7630  -19.5520 C.ar  201  0MD201     -0.0008
     39  CAJ       33.5860    8.4660  -19.9190 C.ar  201  0MD201     -0.0002
     40  CAK       32.4980    8.1640  -20.7080 C.ar  201  0MD201     -0.0000
     41  CBL       31.6720    9.1860  -21.1480 C.ar  201  0MD201     -0.0002
@<TRIPOS>BOND
     1     4     5    1
     2     4     3    1
     3     5     6    1
     4     1     2    1
     5     6     7    1
     6     2     3    1
     7     3     8    1
     8    25    24    1
     9    25    26    1
    10     9     8    1
    11    41    37   ar
    12    41    40   ar
    13     8     7    1
    14     8    10    1
    15    37    36   ar
    16    24    23    1
    17    40    39   ar
    18    35    34    1
    19    27    26   ar
    20    27    33   ar
    21    26    28   ar
    22    36    23    1
    23    36    38   ar
    24    39    38   ar
    25    33    34    1
    26    33    30   ar
    27    28    29   ar
    28    23    22    1
    29    10    11    2
    30    10    12    1
    31    30    29   ar
    32    30    31    1
    33    22    20    1
    34    13    12    2
    35    12    14   am
    36    31    32    1
    37    14    15    1
    38    14    19    1
    39    20    21    2
    40    20    19    1
    41    15    16    1
    42    19    18    1
    43    16    17    1
    44    18    17    1
