@<TRIPOS>MOLECULE
4drp_0MD_A_1.pdb
 46 49 0 0 0
SMALL
GASTEIGER

@<TRIPOS>ATOM
      1  CAA        6.3080    4.3020   15.4620 C.3   201  0MD201      0.0001
      2  CAQ        5.3530    4.1490   14.2620 C.3   201  0MD201      0.0029
      3  CBQ        5.9440    3.2750   13.1380 C.3   201  0MD201      0.0354
      4  CAX        6.1540    1.8100   13.6210 C.3   201  0MD201      0.0029
      5  CAS        6.6890    0.9120   12.4910 C.3   201  0MD201      0.0002
      6  CAU        5.7800    0.9530   11.2550 C.3   201  0MD201      0.0030
      7  CBB        5.5870    2.3990   10.7570 C.3   201  0MD201      0.0382
      8  CBT        5.0600    3.3290   11.8740 C.3   201  0MD201      0.1855
      9  OAI        3.7330    2.8820   12.1960 O.3   201  0MD201     -0.2176
     10  CBJ        5.0320    4.8060   11.3710 C.2   201  0MD201      0.2532
     11  OAG        6.0720    5.4170   11.1010 O.2   201  0MD201     -0.2839
     12  CBI        3.6820    5.5450   11.3210 C.2   201  0MD201      0.2867
     13  OAF        3.3220    6.1830   12.3170 O.2   201  0MD201     -0.2667
     14  N          2.9060    5.4950   10.2220 N.am  201  0MD201     -0.2655
     15  CBA        3.3910    4.7100    9.0390 C.3   201  0MD201      0.0943
     16  CAT        3.2580    5.5740    7.7900 C.3   201  0MD201      0.0216
     17  CAR        1.8190    6.1090    7.6720 C.3   201  0MD201      0.0040
     18  CB         1.4280    6.9690    8.8860 C.3   201  0MD201      0.0314
     19  CA         1.5690    6.1600   10.1880 C.3   201  0MD201      0.1749
     20  C          0.4370    5.1090   10.2630 C.2   201  0MD201      0.3354
     21  O         -0.7510    5.4370   10.1040 O.2   201  0MD201     -0.2483
     22  OBF        0.7870    3.8100   10.5320 O.3   201  0MD201     -0.4465
     23  CBP       -0.2630    2.7900   10.5760 C.3   201  0MD201      0.1916
     24  CAZ       -0.4830    2.5070   12.0410 C.3   201  0MD201      0.0530
     25  CAV       -1.7880    1.7490   12.2510 C.3   201  0MD201      0.0305
     26  CBK       -3.0640    2.6270   12.2000 C.ar  201  0MD201     -0.0188
     27  CAO       -3.3830    3.5220   13.2340 C.ar  201  0MD201      0.0358
     28  CAM       -3.9250    2.4910   11.1140 C.ar  201  0MD201     -0.0009
     29  CAN       -5.1070    3.2530   11.0490 C.ar  201  0MD201      0.0397
     30  CBN       -5.4050    4.1600   12.0930 C.ar  201  0MD201      0.1724
     31  OBC       -6.5350    4.9260   12.0650 O.3   201  0MD201     -0.4684
     32  CAB       -7.6430    4.4320   11.2500 C.3   201  0MD201      0.2526
     33  CBO       -4.5460    4.3050   13.1950 C.ar  201  0MD201      0.1721
     34  OBD       -4.9100    5.2160   14.1820 O.3   201  0MD201     -0.4684
     35  CAC       -4.1870    5.2120   15.4400 C.3   201  0MD201      0.2526
     36  CBM        0.2790    1.5810    9.7950 C.ar  201  0MD201      0.0203
     37  CAP        1.4600    0.9720   10.2170 C.ar  201  0MD201      0.0361
     38  CAL       -0.4060    1.0900    8.6810 C.ar  201  0MD201     -0.0006
     39  CAJ        0.1190    0.0050    7.9790 C.ar  201  0MD201      0.0029
     40  CAK        1.3080   -0.5920    8.4000 C.ar  201  0MD201      0.0369
     41  CBL        1.9840   -0.1160    9.5260 C.ar  201  0MD201      0.1392
     42  OBE        3.1440   -0.6580   10.0010 O.3   201  0MD201     -0.4637
     43  CAW        3.6990   -1.7450    9.2130 C.3   201  0MD201      0.3186
     44  CBG        3.0620   -3.1170    9.4090 C.2   201  0MD201      0.4084
     45  OAH        3.4590   -4.0270    8.6540 O.co2 201  0MD201     -0.2415
     46  OAD        2.1650   -3.2610   10.2780 O.co2 201  0MD201     -0.2415
@<TRIPOS>BOND
     1    17    16    1
     2    17    18    1
     3    16    15    1
     4    39    40   ar
     5    39    38   ar
     6    40    41   ar
     7    45    44   ar
     8    38    36   ar
     9    18    19    1
    10    15    14    1
    11    43    44    1
    12    43    42    1
    13    44    46   ar
    14    41    42    1
    15    41    37   ar
    16    36    37   ar
    17    36    23    1
    18    21    20    2
    19    19    14    1
    20    19    20    1
    21    14    12   am
    22    20    22    1
    23    22    23    1
    24    23    24    1
    25     7     6    1
    26     7     8    1
    27    29    28   ar
    28    29    30   ar
    29    11    10    2
    30    28    26   ar
    31    32    31    1
    32     6     5    1
    33    12    10    1
    34    12    13    2
    35    10     8    1
    36     8     9    1
    37     8     3    1
    38    24    25    1
    39    31    30    1
    40    30    33   ar
    41    26    25    1
    42    26    27   ar
    43     5     4    1
    44     3     4    1
    45     3     2    1
    46    33    27   ar
    47    33    34    1
    48    34    35    1
    49     2     1    1
