@<TRIPOS>MOLECULE
4drq_0OS_A_1.pdb
 35 38 0 0 0
SMALL
GASTEIGER

@<TRIPOS>ATOM
      1  CBM       11.7950  -21.9740  -19.7570 C.ar  201  0OS201     -0.0003
      2  CAQ       11.6810  -20.6820  -20.2740 C.ar  201  0OS201     -0.0043
      3  CBL       12.7090  -22.2510  -18.7360 C.ar  201  0OS201     -0.0000
      4  CAN       13.5150  -21.2310  -18.2370 C.ar  201  0OS201     -0.0003
      5  CAM       13.3960  -19.9460  -18.7540 C.ar  201  0OS201     -0.0043
      6  CBI       12.4870  -19.6610  -19.7730 C.ar  201  0OS201     -0.0221
      7  CAV       12.3870  -18.2300  -20.3230 C.3   201  0OS201      0.0304
      8  CAY       11.5120  -17.3320  -19.4370 C.3   201  0OS201      0.0530
      9  CBO       11.3970  -15.9050  -19.9870 C.3   201  0OS201      0.1915
     10  CBK       10.5910  -15.8930  -21.3180 C.ar  201  0OS201      0.0173
     11  CAP        9.3030  -16.4360  -21.4040 C.ar  201  0OS201     -0.0008
     12  CAL       11.1420  -15.3140  -22.4550 C.ar  201  0OS201     -0.0008
     13  CAJ       10.4340  -15.2890  -23.6590 C.ar  201  0OS201     -0.0002
     14  CAK        9.1540  -15.8340  -23.7410 C.ar  201  0OS201     -0.0000
     15  CBJ        8.5880  -16.4140  -22.6060 C.ar  201  0OS201     -0.0002
     16  OBD       10.6270  -15.1080  -19.1120 O.3   201  0OS201     -0.4467
     17  C         11.0220  -14.5090  -17.9680 C.2   201  0OS201      0.3334
     18  O         12.1920  -14.4660  -17.6110 O.2   201  0OS201     -0.2485
     19  CA         9.9100  -13.8870  -17.1510 C.3   201  0OS201      0.1778
     20  CB         9.9750  -14.3760  -15.7340 C.3   201  0OS201      0.0292
     21  CAT        9.5940  -15.8580  -15.6550 C.3   201  0OS201      0.0035
     22  CAU        8.2030  -16.1270  -16.1850 C.3   201  0OS201      0.0192
     23  CAZ        7.9990  -15.5620  -17.5730 C.3   201  0OS201      0.0964
     24  N          8.6330  -14.2490  -17.8520 N.3   201  0OS201     -0.1461
     25  S1         7.6160  -13.0560  -18.1720 S.O2  201  0OS201      0.0638
     26  OAE        8.2790  -11.8090  -18.0360 O.2   201  0OS201     -0.1528
     27  OAF        6.3340  -13.3060  -17.6150 O.2   201  0OS201     -0.1528
     28  CBN        7.3380  -13.1700  -19.8950 C.ar  201  0OS201      0.1239
     29  CAR        8.2970  -12.7180  -20.7820 C.ar  201  0OS201      0.0314
     30  CBG        8.0720  -12.7640  -22.1520 C.ar  201  0OS201      0.0598
     31 CL2         9.3080  -12.1980  -23.2120 Cl    201  0OS201     -0.0822
     32  CAO        6.8620  -13.2510  -22.6390 C.ar  201  0OS201      0.0229
     33  CBH        5.8910  -13.6690  -21.7350 C.ar  201  0OS201      0.0598
     34 CL1         4.3840  -14.2640  -22.3140 Cl    201  0OS201     -0.0822
     35  CAS        6.1220  -13.6150  -20.3640 C.ar  201  0OS201      0.0314
@<TRIPOS>BOND
     1    14    13   ar
     2    14    15   ar
     3    13    12   ar
     4    31    30    1
     5    32    30   ar
     6    32    33   ar
     7    15    11   ar
     8    12    10   ar
     9    34    33    1
    10    30    29   ar
    11    33    35   ar
    12    11    10   ar
    13    10     9    1
    14    29    28   ar
    15    35    28   ar
    16     7     6    1
    17     7     8    1
    18     2     6   ar
    19     2     1   ar
    20     9     8    1
    21     9    16    1
    22    28    25    1
    23     6     5   ar
    24     1     3   ar
    25    16    17    1
    26     5     4   ar
    27     3     4   ar
    28    25    26    2
    29    25    24    1
    30    25    27    2
    31    17    18    2
    32    17    19    1
    33    24    23    1
    34    24    19    1
    35    23    22    1
    36    19    20    1
    37    22    21    1
    38    20    21    1
