@<TRIPOS>MOLECULE
4dru_0LN_A_1.pdb
 42 47 0 0 0
SMALL
GASTEIGER

@<TRIPOS>ATOM
      1  O36       75.7040  -13.1060  -33.2770 O.2   601  0LN601     -0.2702
      2  C34       76.7090  -13.6060  -32.8130 C.2   601  0LN601      0.2469
      3  N35       77.6450  -14.1250  -33.7190 N.am  601  0LN601     -0.2745
      4  C38       77.3150  -14.0600  -35.1670 C.3   601  0LN601      0.1151
      5  C37       78.9330  -14.7780  -33.3580 C.3   601  0LN601      0.0938
      6  C39       80.0160  -15.0020  -34.4400 C.3   601  0LN601      0.0230
      7  C40       79.8710  -16.3910  -35.0930 C.3   601  0LN601      0.0210
      8  C41       81.0820  -17.3130  -34.8420 C.3   601  0LN601      0.0975
      9  N31       80.6580  -18.7450  -34.8510 N.3   601  0LN601     -0.1374
     10  C42       81.3640  -19.5690  -35.8630 C.3   601  0LN601      0.1166
     11  S30       80.7850  -19.4550  -33.3560 S.O2  601  0LN601      0.1495
     12  O32       79.7200  -20.4090  -33.1900 O.2   601  0LN601     -0.1335
     13  O33       82.0540  -20.1160  -33.2170 O.2   601  0LN601     -0.1335
     14  N29       80.5960  -18.3200  -32.2050 N.2   601  0LN601     -0.0418
     15  C27       81.6270  -17.7600  -31.4830 C.1   601  0LN601      0.1733
     16  O28       82.7840  -18.0480  -31.6740 O.2   601  0LN601     -0.2206
     17  C1        81.2610  -16.7070  -30.5490 C.ar  601  0LN601      0.0859
     18  C19       76.8290  -13.5680  -31.3290 C.2   601  0LN601      0.0540
     19  C20       77.1860  -14.8220  -30.5130 C.3   601  0LN601      0.1372
     20  N9        78.3900  -14.5830  -29.7250 N.ar  601  0LN601     -0.3230
     21  C5        79.5740  -15.1870  -29.8240 C.ar  601  0LN601      0.0605
     22  C6        79.9640  -16.2170  -30.6450 C.ar  601  0LN601      0.0288
     23  C18       76.6490  -12.3220  -30.8100 C.2   601  0LN601      0.0023
     24  C17       76.5800  -12.0780  -29.3600 C.ar  601  0LN601      0.0043
     25  C24       75.5480  -11.2460  -28.9520 C.ar  601  0LN601      0.0369
     26  C23       75.2900  -11.0380  -27.6040 C.ar  601  0LN601      0.1387
     27  O25       74.2880  -10.1920  -27.2110 O.3   601  0LN601     -0.4714
     28  C26       73.0470  -10.7040  -26.7200 C.3   601  0LN601      0.2525
     29  C22       76.0570  -11.6890  -26.6510 C.ar  601  0LN601      0.0369
     30  C21       77.0680  -12.5440  -27.0550 C.ar  601  0LN601      0.0045
     31  C16       77.3440  -12.7540  -28.4040 C.ar  601  0LN601      0.0157
     32  C8        78.4620  -13.6560  -28.7760 C.ar  601  0LN601      0.0561
     33  C7        79.7620  -13.6610  -28.2550 C.ar  601  0LN601     -0.0053
     34  C4        80.4460  -14.6430  -28.9320 C.ar  601  0LN601      0.0133
     35  C3        81.7530  -15.1010  -28.8270 C.ar  601  0LN601      0.0019
     36  C2        82.1670  -16.1400  -29.6530 C.ar  601  0LN601      0.0118
     37  C10       80.3400  -12.7490  -27.1740 C.3   601  0LN601      0.0238
     38  C15       81.0140  -13.4900  -26.0090 C.3   601  0LN601      0.0044
     39  C14       81.5200  -12.4360  -25.0060 C.3   601  0LN601      0.0003
     40  C13       82.5460  -11.5200  -25.6900 C.3   601  0LN601      0.0000
     41  C12       81.8600  -10.7740  -26.8440 C.3   601  0LN601      0.0003
     42  C11       81.3410  -11.7980  -27.8570 C.3   601  0LN601      0.0044
@<TRIPOS>BOND
     1    10     9    1
     2     4     3    1
     3     7     8    1
     4     7     6    1
     5     9     8    1
     6     9    11    1
     7     6     5    1
     8     3     5    1
     9     3     2   am
    10    11    13    2
    11    11    12    2
    12    11    14    1
    13     1     2    2
    14     2    18    1
    15    14    15    2
    16    16    15    2
    17    15    17    1
    18    18    23    2
    19    18    19    1
    20    23    24    1
    21    22    17   ar
    22    22    21   ar
    23    17    36   ar
    24    19    20    1
    25    21    20   ar
    26    21    34   ar
    27    20    32   ar
    28    36    35   ar
    29    24    25   ar
    30    24    31   ar
    31    25    26   ar
    32    34    35   ar
    33    34    33   ar
    34    32    31    1
    35    32    33   ar
    36    31    30   ar
    37    33    37    1
    38    42    37    1
    39    42    41    1
    40    26    27    1
    41    26    29   ar
    42    27    28    1
    43    37    38    1
    44    30    29   ar
    45    41    40    1
    46    38    39    1
    47    40    39    1
