@<TRIPOS>MOLECULE
4drv_GLA_A_1.pdb
 12 12 0 0 0
SMALL
GASTEIGER

@<TRIPOS>ATOM
      1  C1        28.8330  -28.1680   31.1940 C.3   302  GLA302      0.3024
      2  C2        29.7160  -27.6110   30.1290 C.3   302  GLA302      0.2434
      3  C3        30.7030  -26.6330   30.6200 C.3   302  GLA302      0.2199
      4  C4        30.0970  -25.6160   31.4710 C.3   302  GLA302      0.2144
      5  C5        29.2440  -26.2670   32.5610 C.3   302  GLA302      0.1836
      6  C6        28.5930  -25.2530   33.4430 C.3   302  GLA302      0.2142
      7  O1        29.5360  -29.0170   32.0100 O.3   302  GLA302     -0.1869
      8  O2        30.4190  -28.6950   29.4770 O.3   302  GLA302     -0.2148
      9  O3        31.3440  -26.0750   29.4290 O.3   302  GLA302     -0.2174
     10  O4        29.2900  -24.7190   30.7390 O.3   302  GLA302     -0.2176
     11  O5        28.2360  -27.0830   32.0110 O.3   302  GLA302     -0.3236
     12  O6        27.7430  -25.7660   34.4150 O.3   302  GLA302     -0.2176
@<TRIPOS>BOND
     1     9     3    1
     2     8     2    1
     3     2     3    1
     4     2     1    1
     5     3     4    1
     6    10     4    1
     7     1     7    1
     8     1    11    1
     9     4     5    1
    10    11     5    1
    11     5     6    1
    12     6    12    1
