@<TRIPOS>MOLECULE
4drx_GTP_A_1.pdb
 44 46 0 0 0
SMALL
GASTEIGER

@<TRIPOS>ATOM
      1  PG        46.9200   10.2040  -33.2740 P.3   600  GTP600      0.5373
      2  O1G       46.3210   11.0770  -32.2040 O.3   600  GTP600     -0.1143
      3  O2G       46.1620    8.8990  -33.3530 O.2   600  GTP600     -0.2221
      4  O3G       48.3800    9.9570  -32.9820 O.3   600  GTP600     -0.1143
      5  O3B       46.8080   11.0050  -34.6640 O.3   600  GTP600     -0.2258
      6  PB        46.1170   10.3520  -35.9560 P.3   600  GTP600      0.2277
      7  O1B       46.5670   11.1400  -37.1610 O.2   600  GTP600     -0.5168
      8  O2B       46.4880    8.8970  -36.1130 O.3   600  GTP600     -0.4368
      9  O3A       44.5320   10.5750  -35.7000 O.3   600  GTP600     -0.2700
     10  PA        43.4190   10.1160  -36.7710 P.3   600  GTP600      0.2182
     11  O1A       43.7690   10.6560  -38.1370 O.2   600  GTP600     -0.5170
     12  O2A       43.3180    8.6170  -36.7900 O.3   600  GTP600     -0.4371
     13  O5'       41.9800   10.6580  -36.2750 O.3   600  GTP600     -0.3246
     14  C5'       41.6020   12.0130  -36.3670 C.3   600  GTP600      0.0836
     15  C4'       40.3280   12.1760  -37.1880 C.3   600  GTP600      0.1131
     16  O4'       40.4850   11.4670  -38.3970 O.3   600  GTP600     -0.3474
     17  C3'       39.0800   11.6400  -36.5090 C.3   600  GTP600      0.1133
     18  O3'       38.1400   12.6860  -36.4400 O.3   600  GTP600     -0.3864
     19  C2'       38.5550   10.5530  -37.4260 C.3   600  GTP600      0.1266
     20  O2'       37.1720   10.6940  -37.6390 O.3   600  GTP600     -0.3849
     21  C1'       39.2960   10.7830  -38.7280 C.3   600  GTP600      0.1617
     22  N9        39.6810    9.5430  -39.4130 N.pl3 600  GTP600     -0.2241
     23  C8        40.5080    8.5510  -38.9530 C.2   600  GTP600      0.1451
     24  N7        40.6130    7.6100  -39.9220 N.2   600  GTP600     -0.3865
     25  C5        39.8780    7.9990  -40.9920 C.2   600  GTP600      0.2296
     26  C6        39.6370    7.4300  -42.2380 C.2   600  GTP600      0.2859
     27  O6        40.1440    6.3510  -42.5400 O.2   600  GTP600     -0.2668
     28  N1        38.8220    8.0830  -43.1390 N.am  600  GTP600     -0.2418
     29  C2        38.2540    9.2930  -42.8040 C.2   600  GTP600      0.2395
     30  N2        37.4680    9.9270  -43.6660 N.pl3 600  GTP600     -0.3206
     31  N3        38.4980    9.8500  -41.5700 N.2   600  GTP600     -0.3551
     32  C4        39.2940    9.2150  -40.6820 C.2   600  GTP600      0.2272
     33  H5'       42.4070   12.5830  -36.8300 H     600  GTP600      0.0591
     34 H5''       41.4420   12.4130  -35.3660 H     600  GTP600      0.0591
     35  H4'       40.1820   13.2350  -37.3990 H     600  GTP600      0.0647
     36  H3'       39.3170   11.2360  -35.5250 H     600  GTP600      0.0647
     37 HO3'       37.3660   12.4670  -37.0000 H     600  GTP600      0.2100
     38  H2'       38.7990    9.5700  -37.0230 H     600  GTP600      0.0663
     39 HO2'       37.0070   10.9090  -38.5810 H     600  GTP600      0.2101
     40  H1'       38.6800   11.3990  -39.3830 H     600  GTP600      0.0841
     41  H8        40.9960    8.5240  -37.9780 H     600  GTP600      0.1149
     42  HN1       38.6360    7.6620  -44.0720 H     600  GTP600      0.1589
     43 HN21       37.0510   10.8170  -43.4130 H     600  GTP600      0.1459
     44 HN22       37.2850    9.5220  -44.5790 H     600  GTP600      0.1459
@<TRIPOS>BOND
     1    44    30    1
     2    42    28    1
     3    30    43    1
     4    30    29    1
     5    28    29    1
     6    28    26   am
     7    29    31    2
     8    27    26    2
     9    26    25    1
    10    31    32    2
    11    25    32    1
    12    25    24    2
    13    32    22    1
    14    24    23    2
    15    22    23    1
    16    22    21    1
    17    40    21    1
    18    23    41    1
    19    21    16    1
    20    21    19    1
    21    39    20    1
    22    16    15    1
    23    11    10    2
    24    20    19    1
    25    19    38    1
    26    19    17    1
    27    35    15    1
    28    15    17    1
    29    15    14    1
    30     7     6    2
    31    37    18    1
    32    33    14    1
    33    12    10    1
    34    10    13    1
    35    10     9    1
    36    17    18    1
    37    17    36    1
    38    14    13    1
    39    14    34    1
    40     8     6    1
    41     6     9    1
    42     6     5    1
    43     5     1    1
    44     3     1    2
    45     1     4    1
    46     1     2    1
