@<TRIPOS>MOLECULE
4drz_GDP_A_1.pdb
 28 30 0 0 0
SMALL
GASTEIGER

@<TRIPOS>ATOM
      1  PB         7.1510    9.4120    2.0290 P.3   201  GDP201      0.5373
      2  O1B        8.6120    9.6010    2.3180 O.3   201  GDP201     -0.1143
      3  O2B        6.7350    8.0350    2.4060 O.3   201  GDP201     -0.1143
      4  O3B        6.7160    9.9100    0.6690 O.2   201  GDP201     -0.2221
      5  O3A        6.2680   10.2840    3.0610 O.3   201  GDP201     -0.2261
      6  PA         6.7720   11.5840    3.8960 P.3   201  GDP201      0.2231
      7  O1A        7.6270   11.1450    5.0580 O.3   201  GDP201     -0.4370
      8  O2A        7.3250   12.5990    2.9150 O.2   201  GDP201     -0.5169
      9  O5'        5.3820   12.1370    4.4910 O.3   201  GDP201     -0.3111
     10  C5'        4.3710   12.7010    3.6420 C.3   201  GDP201      0.1813
     11  C4'        3.4020   13.5040    4.4780 C.3   201  GDP201      0.1799
     12  O4'        2.9310   12.6600    5.5390 O.3   201  GDP201     -0.3326
     13  C3'        4.0690   14.7070    5.1140 C.3   201  GDP201      0.2158
     14  O3'        3.1800   15.8400    5.1070 O.3   201  GDP201     -0.2175
     15  C2'        4.3610   14.2300    6.5190 C.3   201  GDP201      0.2310
     16  O2'        4.4150   15.2710    7.4780 O.3   201  GDP201     -0.2158
     17  C1'        3.2000   13.2970    6.7890 C.3   201  GDP201      0.2293
     18  N9         3.5080   12.2700    7.8000 N.pl3 201  GDP201     -0.2354
     19  C8         4.5380   11.4240    7.7830 C.3   201  GDP201      0.2246
     20  N7         4.4860   10.6190    8.8700 N.2   201  GDP201     -0.2322
     21  C5         3.4040   10.9620    9.6000 C.2   201  GDP201      0.2182
     22  C6         2.7630   10.5210   10.8580 C.1   201  GDP201      0.2372
     23  O6         3.2150    9.5860   11.5430 O.2   201  GDP201     -0.2069
     24  N1         1.6500   11.1460   11.2570 N.2   201  GDP201     -0.2485
     25  C2         1.1010   12.1500   10.5420 C.1   201  GDP201      0.2531
     26  N2        -0.0080   12.7490   10.9780 N.pl3 201  GDP201     -0.0226
     27  N3         1.6460   12.5990    9.3860 N.2   201  GDP201     -0.3074
     28  C4         2.7760   12.0430    8.8800 C.2   201  GDP201      0.2300
@<TRIPOS>BOND
     1     4     1    2
     2     1     2    1
     3     1     3    1
     4     1     5    1
     5     8     6    2
     6     5     6    1
     7    10    11    1
     8    10     9    1
     9     6     9    1
    10     6     7    1
    11    11    13    1
    12    11    12    1
    13    14    13    1
    14    13    15    1
    15    12    17    1
    16    15    17    1
    17    15    16    1
    18    17    18    1
    19    19    18    1
    20    19    20    1
    21    18    28    1
    22    20    21    2
    23    28    27    2
    24    28    21    1
    25    27    25    2
    26    21    22    1
    27    25    26    1
    28    25    24    2
    29    22    24    2
    30    22    23    2
