@<TRIPOS>MOLECULE
4ds0_GAL_A_1.pdb
 12 12 0 0 0
SMALL
GASTEIGER

@<TRIPOS>ATOM
      1  C1        10.9930  -10.5170   12.0590 C.3   302  GAL302      0.3024
      2  C2        10.0690  -10.1440   13.2270 C.3   302  GAL302      0.2434
      3  C3         9.0920   -9.2030   12.9060 C.3   302  GAL302      0.2199
      4  C4         9.5940   -8.0680   12.1200 C.3   302  GAL302      0.2144
      5  C5        10.4000   -8.5640   10.9510 C.3   302  GAL302      0.1836
      6  C6        10.9880   -7.4260   10.1380 C.3   302  GAL302      0.2142
      7  O1        12.0680  -11.2820   12.5260 O.3   302  GAL302     -0.1869
      8  O2         9.4240  -11.3610   13.7490 O.3   302  GAL302     -0.2148
      9  O3         8.4320   -8.7650   14.1810 O.3   302  GAL302     -0.2174
     10  O4        10.3900   -7.1990   12.9200 O.3   302  GAL302     -0.2176
     11  O5        11.4680   -9.3720   11.3850 O.3   302  GAL302     -0.3236
     12  O6        11.5040   -7.7640    8.8820 O.3   302  GAL302     -0.2176
@<TRIPOS>BOND
     1    12     6    1
     2     6     5    1
     3     5    11    1
     4     5     4    1
     5    11     1    1
     6     1     7    1
     7     1     2    1
     8     4     3    1
     9     4    10    1
    10     3     2    1
    11     3     9    1
    12     2     8    1
