@<TRIPOS>MOLECULE
4dsa_D1C_A_1.pdb
 29 30 0 0 0
SMALL
GASTEIGER

@<TRIPOS>ATOM
      1  FAS       11.5420   -3.2090  -16.9100 F     800  D1C800     -0.2044
      2  CAQ       10.9650   -2.0120  -17.3750 C.ar  800  D1C800      0.1386
      3  CAR       10.6410   -0.9930  -16.4910 C.ar  800  D1C800      0.0612
      4  CAM       10.0910    0.1840  -17.0030 C.ar  800  D1C800      0.1696
      5  FAT        9.7310    1.2260  -16.2410 F     800  D1C800     -0.2017
      6  CAN        9.8640    0.3310  -18.3430 C.ar  800  D1C800      0.1672
      7  FAU        9.3540    1.4500  -18.7030 F     800  D1C800     -0.2018
      8  CAO       10.1770   -0.6780  -19.2360 C.ar  800  D1C800      0.0300
      9  CAP       10.7330   -1.8380  -18.7330 C.ar  800  D1C800      0.0091
     10  CAV       11.0820   -2.8410  -19.6040 C.3   800  D1C800      0.0492
     11  CAW       12.5880   -2.7630  -19.9590 C.3   800  D1C800      0.1155
     12  NAY       13.4730   -2.9970  -18.8080 N.3   800  D1C800     -0.1310
     13  CAX       12.8130   -3.8580  -20.9460 C.3   800  D1C800      0.1359
     14  NAZ       12.2070   -5.0330  -20.3310 N.3   800  D1C800     -0.0638
     15  SBA       12.4900   -6.1550  -21.1170 S.O2  800  D1C800      0.1299
     16  OBB       11.4380   -7.2150  -20.7760 O.2   800  D1C800     -0.1384
     17  OBC       13.8530   -6.7160  -20.6770 O.2   800  D1C800     -0.1384
     18  NAL       12.5090   -5.6850  -22.8320 N.3   800  D1C800     -0.0606
     19  CAA       11.1930   -5.8640  -23.4670 C.3   800  D1C800      0.1430
     20  CAB       11.1150   -7.0230  -24.2620 C.ar  800  D1C800     -0.0028
     21  CAC        9.8590   -7.6050  -24.5100 C.ar  800  D1C800     -0.0014
     22  CAD        9.7620   -8.7490  -25.2990 C.ar  800  D1C800      0.0197
     23  CAE       10.9310   -9.2960  -25.8320 C.ar  800  D1C800      0.1250
     24  SAH       10.8370  -10.6860  -26.7990 S.O2  800  D1C800      0.0935
     25  OAJ       10.1620  -11.8050  -25.9930 O.2   800  D1C800     -0.1503
     26  OAK       12.2580  -11.0850  -27.2140 O.2   800  D1C800     -0.1503
     27  NAI        9.9680  -10.3640  -28.1250 N.3   800  D1C800      0.0392
     28  CAF       12.1830   -8.7300  -25.5940 C.ar  800  D1C800      0.0197
     29  CAG       12.2750   -7.5900  -24.8090 C.ar  800  D1C800     -0.0014
@<TRIPOS>BOND
     1    27    24    1
     2    26    24    2
     3    24    25    2
     4    24    23    1
     5    23    28   ar
     6    23    22   ar
     7    28    29   ar
     8    22    21   ar
     9    29    20   ar
    10    21    20   ar
    11    20    19    1
    12    19    18    1
    13    18    15    1
    14    15    16    2
    15    15    17    2
    16    15    14    1
    17    13    14    1
    18    13    11    1
    19    11    10    1
    20    11    12    1
    21    10     9    1
    22     8     9   ar
    23     8     6   ar
    24     9     2   ar
    25     7     6    1
    26     6     4   ar
    27     2     1    1
    28     2     3   ar
    29     4     3   ar
    30     4     5    1
