@<TRIPOS>MOLECULE
4dse_CTP_D_1.pdb
 41 42 0 0 0
SMALL
GASTEIGER

@<TRIPOS>ATOM
      1  N1       121.0980  -14.8400  -13.3760 N.am  901  CTP901     -0.1952
      2  C2       122.1570  -13.9410  -13.3330 C.1   901  CTP901      0.2745
      3  N3       122.0330  -12.7020  -14.0120 N.2   901  CTP901     -0.3066
      4  C4       120.8850  -12.3930  -14.6740 C.2   901  CTP901      0.1840
      5  C5       119.7940  -13.3070  -14.6930 C.2   901  CTP901      0.0061
      6  C6       119.9450  -14.5370  -14.0560 C.2   901  CTP901      0.0158
      7  O2       123.3030  -14.2140  -12.7050 O.2   901  CTP901     -0.1926
      8  N4       120.7790  -11.1140  -15.3060 N.pl3 901  CTP901     -0.3326
      9  C1'      121.2560  -16.1330  -12.7570 C.3   901  CTP901      0.1680
     10  C2'      121.4610  -16.1200  -11.2780 C.3   901  CTP901      0.1272
     11  O2'      122.2860  -17.2000  -10.9330 O.3   901  CTP901     -0.3848
     12  C3'      120.0770  -16.3060  -10.8060 C.3   901  CTP901      0.1134
     13  C4'      119.5690  -17.2940  -11.7990 C.3   901  CTP901      0.1131
     14  O4'      120.1430  -16.9480  -13.0530 O.3   901  CTP901     -0.3468
     15  O3'      120.0220  -16.7880   -9.5030 O.3   901  CTP901     -0.3864
     16  C5'      118.0610  -17.3510  -11.8760 C.3   901  CTP901      0.0836
     17  O5'      117.6120  -16.1930  -12.5030 O.3   901  CTP901     -0.3246
     18  PA       116.2040  -16.2590  -13.2160 P.3   901  CTP901      0.2182
     19  O1A      115.9830  -15.0920  -14.0920 O.3   901  CTP901     -0.4371
     20  O2A      116.0410  -17.4240  -14.1240 O.2   901  CTP901     -0.5170
     21  O3A      115.1380  -16.5310  -12.1060 O.3   901  CTP901     -0.2700
     22  PB       114.4780  -15.5470  -11.0650 P.3   901  CTP901      0.2277
     23  O1B      115.4110  -14.4910  -10.5210 O.2   901  CTP901     -0.5168
     24  O2B      113.9640  -16.4760  -10.0050 O.3   901  CTP901     -0.4368
     25  O3B      113.4020  -14.7460  -11.8690 O.3   901  CTP901     -0.2258
     26  PG       111.9040  -15.1380  -12.1680 P.3   901  CTP901      0.5373
     27  O1G      111.5520  -14.4810  -13.4770 O.2   901  CTP901     -0.2221
     28  O2G      111.7210  -16.6270  -12.3260 O.3   901  CTP901     -0.1143
     29  O3G      111.0100  -14.7170  -11.0580 O.3   901  CTP901     -0.1143
     30  H5       118.9740  -13.0930  -15.1750 H     901  CTP901      0.0676
     31  H6       119.2170  -15.1830  -14.0800 H     901  CTP901      0.0794
     32 HN41      121.4760  -10.5310  -15.2730 H     901  CTP901      0.1447
     33 HN42      120.0140  -10.8850  -15.7410 H     901  CTP901      0.1447
     34  H1'      122.0380  -16.5580  -13.1520 H     901  CTP901      0.0847
     35  H2'      121.8320  -15.2770  -10.9720 H     901  CTP901      0.0663
     36 HO2'      121.8250  -17.7790  -10.4390 H     901  CTP901      0.2101
     37  H3'      119.5910  -15.4630  -10.8720 H     901  CTP901      0.0647
     38  H4'      119.8890  -18.1690  -11.5410 H     901  CTP901      0.0647
     39 HO3'      119.6770  -17.6060   -9.5040 H     901  CTP901      0.2100
     40 H5'1      117.7880  -18.1250  -12.3920 H     901  CTP901      0.0591
     41 H5'2      117.6870  -17.4060  -10.9820 H     901  CTP901      0.0591
@<TRIPOS>BOND
     1    33     8    1
     2     8    32    1
     3     8     4    1
     4    30     5    1
     5     5     4    1
     6     5     6    2
     7     4     3    2
     8    20    18    2
     9    19    18    1
    10    31     6    1
    11     6     1    1
    12     3     2    2
    13    27    26    2
    14     1     2   am
    15     1     9    1
    16     2     7    2
    17    18    17    1
    18    18    21    1
    19    34     9    1
    20    14     9    1
    21    14    13    1
    22     9    10    1
    23    17    16    1
    24    40    16    1
    25    28    26    1
    26    26    25    1
    27    26    29    1
    28    21    22    1
    29    16    13    1
    30    16    41    1
    31    25    22    1
    32    13    38    1
    33    13    12    1
    34    10    35    1
    35    10    11    1
    36    10    12    1
    37    22    23    2
    38    22    24    1
    39    11    36    1
    40    37    12    1
    41    12    15    1
    42    39    15    1
