@<TRIPOS>MOLECULE
4dsf_CTP_D_1.pdb
 41 42 0 0 0
SMALL
GASTEIGER

@<TRIPOS>ATOM
      1  N1       120.7620  -14.7260  -13.3390 N.am  901  CTP901     -0.1952
      2  C2       121.8210  -13.8350  -13.3320 C.1   901  CTP901      0.2745
      3  N3       121.7280  -12.5980  -14.0280 N.2   901  CTP901     -0.3066
      4  C4       120.6120  -12.2950  -14.7380 C.2   901  CTP901      0.1840
      5  C5       119.5250  -13.2210  -14.7640 C.2   901  CTP901      0.0061
      6  C6       119.6360  -14.4430  -14.0920 C.2   901  CTP901      0.0158
      7  O2       122.9270  -14.1520  -12.6380 O.2   901  CTP901     -0.1926
      8  N4       120.5510  -11.0240  -15.3950 N.pl3 901  CTP901     -0.3326
      9  C1'      120.9450  -16.0100  -12.6890 C.3   901  CTP901      0.1680
     10  C2'      121.1730  -16.0440  -11.2260 C.3   901  CTP901      0.1272
     11  O2'      122.0200  -17.1250  -10.9750 O.3   901  CTP901     -0.3848
     12  C3'      119.7870  -16.2470  -10.7330 C.3   901  CTP901      0.1134
     13  C4'      119.2720  -17.2190  -11.7370 C.3   901  CTP901      0.1131
     14  O4'      119.8650  -16.8600  -12.9660 O.3   901  CTP901     -0.3468
     15  O3'      119.7380  -16.7420   -9.4380 O.3   901  CTP901     -0.3864
     16  C5'      117.7650  -17.2610  -11.8570 C.3   901  CTP901      0.0836
     17  O5'      117.3280  -16.0250  -12.3530 O.3   901  CTP901     -0.3246
     18  PA       115.9300  -16.0810  -13.1420 P.3   901  CTP901      0.2182
     19  O1A      115.6460  -14.8610  -13.9560 O.3   901  CTP901     -0.4371
     20  O2A      115.8690  -17.2000  -14.1200 O.2   901  CTP901     -0.5170
     21  O3A      114.9310  -16.4540  -12.0150 O.3   901  CTP901     -0.2700
     22  PB       114.2000  -15.4490  -11.0500 P.3   901  CTP901      0.2277
     23  O1B      115.0640  -14.3890  -10.4160 O.2   901  CTP901     -0.5168
     24  O2B      113.6320  -16.3700  -10.0680 O.3   901  CTP901     -0.4368
     25  O3B      113.1850  -14.6990  -11.9750 O.3   901  CTP901     -0.2258
     26  PG       111.7200  -15.1860  -12.2320 P.3   901  CTP901      0.5373
     27  O1G      111.2350  -14.5920  -13.5340 O.2   901  CTP901     -0.2221
     28  O2G      111.6350  -16.6890  -12.3820 O.3   901  CTP901     -0.1143
     29  O3G      110.7540  -14.8160  -11.1540 O.3   901  CTP901     -0.1143
     30  H5       118.7170  -13.0130  -15.2680 H     901  CTP901      0.0676
     31  H6       118.8990  -15.0790  -14.1200 H     901  CTP901      0.0794
     32 HN41      121.2550  -10.4510  -15.3420 H     901  CTP901      0.1447
     33 HN42      119.8080  -10.7900  -15.8640 H     901  CTP901      0.1447
     34  H1'      121.7290  -16.4210  -13.0960 H     901  CTP901      0.0847
     35  H2'      121.5510  -15.2120  -10.9010 H     901  CTP901      0.0663
     36 HO2'      121.5920  -17.7300  -10.4820 H     901  CTP901      0.2101
     37  H3'      119.2980  -15.4060  -10.7850 H     901  CTP901      0.0647
     38  H4'      119.5790  -18.1010  -11.4870 H     901  CTP901      0.0647
     39 HO3'      119.3450  -17.5380   -9.4400 H     901  CTP901      0.2100
     40 H5'1      117.5040  -17.9650  -12.4710 H     901  CTP901      0.0591
     41 H5'2      117.3690  -17.4240  -10.9870 H     901  CTP901      0.0591
@<TRIPOS>BOND
     1    33     8    1
     2     8    32    1
     3     8     4    1
     4    30     5    1
     5     5     4    1
     6     5     6    2
     7     4     3    2
     8    20    18    2
     9    31     6    1
    10     6     1    1
    11     3     2    2
    12    19    18    1
    13    27    26    2
    14     1     2   am
    15     1     9    1
    16     2     7    2
    17    18    17    1
    18    18    21    1
    19    34     9    1
    20    14     9    1
    21    14    13    1
    22     9    10    1
    23    40    16    1
    24    28    26    1
    25    17    16    1
    26    26    25    1
    27    26    29    1
    28    21    22    1
    29    25    22    1
    30    16    13    1
    31    16    41    1
    32    13    38    1
    33    13    12    1
    34    10    11    1
    35    10    35    1
    36    10    12    1
    37    22    23    2
    38    22    24    1
    39    11    36    1
    40    37    12    1
    41    12    15    1
    42    39    15    1
