@<TRIPOS>MOLECULE
4dsg_UDP_A_1.pdb
 25 26 0 0 0
SMALL
GASTEIGER

@<TRIPOS>ATOM
      1  N1        60.7220   -7.5780  -46.1930 N.am  502  UDP502     -0.1766
      2  C2        59.7360   -6.9960  -47.0680 C.1   502  UDP502      0.2845
      3  N3        59.9460   -5.6820  -47.5990 N.2   502  UDP502     -0.2452
      4  C4        61.1110   -4.9710  -47.2520 C.1   502  UDP502      0.2182
      5  C5        62.1190   -5.5750  -46.3400 C.2   502  UDP502      0.1242
      6  C6        61.9030   -6.8460  -45.8300 C.2   502  UDP502      0.0929
      7  O2        58.7120   -7.6240  -47.3130 O.2   502  UDP502     -0.1918
      8  O4        61.3080   -3.8500  -47.7040 O.2   502  UDP502     -0.2085
      9  C1'       60.5110   -8.9060  -45.6640 C.3   502  UDP502      0.2401
     10  C2'       61.5940   -9.8740  -46.0840 C.3   502  UDP502      0.2319
     11  O2'       61.0180  -10.9530  -46.7160 O.3   502  UDP502     -0.2157
     12  C3'       62.2500  -10.2730  -44.8370 C.3   502  UDP502      0.2158
     13  C4'       61.2070   -9.9940  -43.7930 C.3   502  UDP502      0.1799
     14  O4'       60.4660   -8.8800  -44.2550 O.3   502  UDP502     -0.3320
     15  O3'       62.6330  -11.6100  -44.8360 O.3   502  UDP502     -0.2175
     16  C5'       61.7500   -9.6630  -42.3880 C.3   502  UDP502      0.1813
     17  O5'       62.8050   -8.7730  -42.5560 O.3   502  UDP502     -0.3111
     18  PA        63.3750   -7.9280  -41.3630 P.3   502  UDP502      0.2231
     19  O1A       64.6340   -7.0070  -41.6610 O.2   502  UDP502     -0.5169
     20  O2A       62.0160   -7.2640  -40.9090 O.3   502  UDP502     -0.4370
     21  O3A       63.4780   -9.0080  -40.1930 O.3   502  UDP502     -0.2261
     22  PB        64.8290   -9.6790  -39.7910 P.3   502  UDP502      0.5373
     23  O1B       65.6580  -10.1830  -40.9430 O.2   502  UDP502     -0.2221
     24  O2B       65.6330   -8.6440  -39.0450 O.3   502  UDP502     -0.1143
     25  O3B       64.4750  -10.7960  -38.8570 O.3   502  UDP502     -0.1143
@<TRIPOS>BOND
     1     8     4    2
     2     3     4    2
     3     3     2    2
     4     7     2    2
     5     4     5    1
     6     2     1   am
     7    11    10    1
     8     5     6    2
     9     1     6    1
    10     1     9    1
    11    10     9    1
    12    10    12    1
    13     9    14    1
    14    12    15    1
    15    12    13    1
    16    14    13    1
    17    13    16    1
    18    17    16    1
    19    17    18    1
    20    19    18    2
    21    18    20    1
    22    18    21    1
    23    23    22    2
    24    21    22    1
    25    22    24    1
    26    22    25    1
