@<TRIPOS>MOLECULE
4dsh_UDP_A_1.pdb
 25 26 0 0 0
SMALL
GASTEIGER

@<TRIPOS>ATOM
      1  N1        60.9130   -7.8700  -46.7290 N.am  501  UDP501     -0.1766
      2  C2        59.9300   -7.2830  -47.5970 C.1   501  UDP501      0.2845
      3  N3        60.1540   -5.9790  -48.1350 N.2   501  UDP501     -0.2452
      4  C4        61.3210   -5.2700  -47.8060 C.1   501  UDP501      0.2182
      5  C5        62.3310   -5.8720  -46.8840 C.2   501  UDP501      0.1242
      6  C6        62.1120   -7.1450  -46.3730 C.2   501  UDP501      0.0929
      7  O2        58.9180   -7.9070  -47.8650 O.2   501  UDP501     -0.1918
      8  O4        61.5000   -4.1550  -48.2840 O.2   501  UDP501     -0.2085
      9  C1'       60.6560   -9.1760  -46.1750 C.3   501  UDP501      0.2401
     10  C2'       61.7370  -10.1470  -46.5220 C.3   501  UDP501      0.2319
     11  O2'       61.1640  -11.1750  -47.2300 O.3   501  UDP501     -0.2157
     12  C3'       62.3040  -10.5690  -45.2410 C.3   501  UDP501      0.2158
     13  C4'       61.2330  -10.2480  -44.2500 C.3   501  UDP501      0.1799
     14  O4'       60.5680   -9.1230  -44.7730 O.3   501  UDP501     -0.3320
     15  O3'       62.6280  -11.9190  -45.2270 O.3   501  UDP501     -0.2175
     16  C5'       61.7030   -9.9020  -42.8150 C.3   501  UDP501      0.1813
     17  O5'       62.8980   -9.1900  -42.9000 O.3   501  UDP501     -0.3111
     18  PA        63.3700   -8.2670  -41.7230 P.3   501  UDP501      0.2231
     19  O1A       64.6340   -7.3300  -41.9550 O.2   501  UDP501     -0.5169
     20  O2A       61.9800   -7.6390  -41.2980 O.3   501  UDP501     -0.4370
     21  O3A       63.4060   -9.3130  -40.5260 O.3   501  UDP501     -0.2261
     22  PB        64.7090  -10.0710  -40.1060 P.3   501  UDP501      0.5373
     23  O1B       65.6560  -10.4220  -41.2020 O.2   501  UDP501     -0.2221
     24  O2B       65.4400   -9.1830  -39.1280 O.3   501  UDP501     -0.1143
     25  O3B       64.2940  -11.3100  -39.3780 O.3   501  UDP501     -0.1143
@<TRIPOS>BOND
     1     8     4    2
     2     3     4    2
     3     3     2    2
     4     7     2    2
     5     4     5    1
     6     2     1   am
     7    11    10    1
     8     5     6    2
     9     1     6    1
    10     1     9    1
    11    10     9    1
    12    10    12    1
    13     9    14    1
    14    12    15    1
    15    12    13    1
    16    14    13    1
    17    13    16    1
    18    17    16    1
    19    17    18    1
    20    19    18    2
    21    18    20    1
    22    18    21    1
    23    23    22    2
    24    21    22    1
    25    22    25    1
    26    22    24    1
