@<TRIPOS>MOLECULE
4dso_GSP_A_1.pdb
 32 34 0 0 0
SMALL
GASTEIGER

@<TRIPOS>ATOM
      1  PG        14.7120    0.6590    8.6350 P.3   201  GSP201      0.4340
      2  O3B       14.7740   -0.1780    7.1900 O.3   201  GSP201     -0.2405
      3  S1G       13.5280   -0.1930    9.5540 S.3   201  GSP201      0.0416
      4  O2G       14.1960    2.0940    8.4130 O.2   201  GSP201     -0.2423
      5  O3G       16.0670    0.7160    9.3160 O.3   201  GSP201     -0.1305
      6  PB        15.8970    0.0490    6.0500 P.3   201  GSP201      0.2262
      7  O1B       15.3990    0.8990    4.9520 O.2   201  GSP201     -0.5168
      8  O2B       17.1990    0.4700    6.5760 O.3   201  GSP201     -0.4369
      9  PA        17.2800   -2.4580    5.4290 P.3   201  GSP201      0.2189
     10  O1A       18.5290   -1.9320    4.8340 O.2   201  GSP201     -0.5170
     11  O2A       17.4640   -2.9380    6.8070 O.3   201  GSP201     -0.4371
     12  O3A       16.0670   -1.3900    5.3250 O.3   201  GSP201     -0.2701
     13  O5'       16.7810   -3.6530    4.4490 O.3   201  GSP201     -0.3112
     14  C5'       15.5590   -4.3520    4.7130 C.3   201  GSP201      0.1813
     15  C4'       15.5440   -5.7490    4.0980 C.3   201  GSP201      0.1799
     16  O4'       15.6530   -5.5700    2.6950 O.3   201  GSP201     -0.3326
     17  C3'       16.7200   -6.6040    4.5310 C.3   201  GSP201      0.2158
     18  O3'       16.3580   -7.9720    4.5050 O.3   201  GSP201     -0.2175
     19  C2'       17.7600   -6.3120    3.4660 C.3   201  GSP201      0.2310
     20  O2'       18.6950   -7.3410    3.2940 O.3   201  GSP201     -0.2158
     21  C1'       16.8670   -6.1820    2.2590 C.3   201  GSP201      0.2293
     22  N9        17.4440   -5.3510    1.1870 N.pl3 201  GSP201     -0.2354
     23  C8        17.9680   -4.0980    1.2920 C.3   201  GSP201      0.2246
     24  N7        18.3380   -3.6940    0.0570 N.2   201  GSP201     -0.2322
     25  C5        18.0790   -4.6990   -0.8360 C.2   201  GSP201      0.2182
     26  C6        18.2680   -4.8260   -2.2060 C.1   201  GSP201      0.2372
     27  O6        18.7950   -3.9090   -2.8950 O.2   201  GSP201     -0.2069
     28  N1        17.8550   -5.9880   -2.8210 N.2   201  GSP201     -0.2485
     29  C2        17.2670   -7.0230   -2.0880 C.1   201  GSP201      0.2531
     30  N2        16.8910   -8.1420   -2.6680 N.pl3 201  GSP201     -0.0226
     31  N3        17.0930   -6.9100   -0.7210 N.2   201  GSP201     -0.3074
     32  C4        17.4900   -5.7450   -0.1190 C.2   201  GSP201      0.2300
@<TRIPOS>BOND
     1    27    26    2
     2    28    26    2
     3    28    29    2
     4    30    29    1
     5    26    25    1
     6    29    31    2
     7    25    32    1
     8    25    24    2
     9    31    32    2
    10    32    22    1
    11    24    23    1
    12    22    23    1
    13    22    21    1
    14    21    16    1
    15    21    19    1
    16    16    15    1
    17    20    19    1
    18    19    17    1
    19    15    17    1
    20    15    14    1
    21    13    14    1
    22    13     9    1
    23    18    17    1
    24    10     9    2
    25     7     6    2
    26    12     9    1
    27    12     6    1
    28     9    11    1
    29     6     8    1
    30     6     2    1
    31     2     1    1
    32     4     1    2
    33     1     5    1
    34     1     3    1
