@<TRIPOS>MOLECULE
4dst_9LI_A_1.pdb
 15 16 0 0 0
SMALL
GASTEIGER

@<TRIPOS>ATOM
      1  C1        24.2620   14.2370   15.3680 C.3   201  9LI201      0.0661
      2 CL1        26.6120   12.6620   10.1390 Cl    201  9LI201     -0.0821
      3  C2        24.3200   14.3760   13.8710 C.2   201  9LI201      0.1055
      4 CL2        23.1610   16.2420    8.0770 Cl    201  9LI201     -0.0821
      5  C3        25.1460   13.7020   13.0460 C.2   201  9LI201      0.0080
      6  C4        24.8570   14.1540   11.6710 C.ar  201  9LI201      0.0384
      7  C5        23.8280   15.1150   11.8120 C.ar  201  9LI201      0.1324
      8  N6        23.5300   15.2240   13.1510 N.2   201  9LI201     -0.4065
      9  C8        23.3190   15.7460   10.6890 C.ar  201  9LI201      0.0435
     10  C9        23.8190   15.4300    9.4500 C.ar  201  9LI201      0.0611
     11  C10       24.8250   14.4890    9.2870 C.ar  201  9LI201      0.0229
     12  C11       25.3550   13.8450   10.3870 C.ar  201  9LI201      0.0607
     13  C14       26.1720   12.6870   13.4790 C.3   201  9LI201      0.0492
     14  C15       27.4340   13.3990   13.9800 C.3   201  9LI201      0.1140
     15  N16       28.4340   12.4020   14.3870 N.3   201  9LI201     -0.1310
@<TRIPOS>BOND
     1     4    10    1
     2    11    10   ar
     3    11    12   ar
     4    10     9   ar
     5     2    12    1
     6    12     6   ar
     7     9     7   ar
     8     6     7   ar
     9     6     5    2
    10     7     8    2
    11     5    13    1
    12     5     3    1
    13     8     3    2
    14    13    14    1
    15     3     1    1
    16    14    15    1
