@<TRIPOS>MOLECULE
4dsu_GDP_A_1.pdb
 28 30 0 0 0
SMALL
GASTEIGER

@<TRIPOS>ATOM
      1  PB        15.5010   -0.1570    5.9230 P.3   201  GDP201      0.5373
      2  O1B       14.4260   -0.4100    6.9520 O.3   201  GDP201     -0.1143
      3  O2B       15.0600    0.8820    4.9170 O.2   201  GDP201     -0.2221
      4  O3B       16.7840    0.3060    6.5560 O.3   201  GDP201     -0.1143
      5  O3A       15.7600   -1.5130    5.1020 O.3   201  GDP201     -0.2261
      6  PA        16.9100   -2.5940    5.4100 P.3   201  GDP201      0.2231
      7  O1A       16.9180   -3.1070    6.8260 O.3   201  GDP201     -0.4370
      8  O2A       18.2680   -2.0870    5.0010 O.2   201  GDP201     -0.5169
      9  O5'       16.4500   -3.7530    4.3990 O.3   201  GDP201     -0.3111
     10  C5'       15.2130   -4.4300    4.6340 C.3   201  GDP201      0.1813
     11  C4'       15.2790   -5.8160    4.0070 C.3   201  GDP201      0.1799
     12  O4'       15.4400   -5.6400    2.6030 O.3   201  GDP201     -0.3326
     13  C3'       16.4920   -6.6020    4.4950 C.3   201  GDP201      0.2158
     14  O3'       16.1530   -7.9940    4.5550 O.3   201  GDP201     -0.2175
     15  C2'       17.5130   -6.3850    3.4000 C.3   201  GDP201      0.2310
     16  O2'       18.4560   -7.4540    3.2820 O.3   201  GDP201     -0.2158
     17  C1'       16.6320   -6.2860    2.1670 C.3   201  GDP201      0.2293
     18  N9        17.2480   -5.4420    1.1260 N.pl3 201  GDP201     -0.2354
     19  C8        17.7510   -4.1990    1.2810 C.3   201  GDP201      0.2246
     20  N7        18.2090   -3.7270    0.0920 N.2   201  GDP201     -0.2322
     21  C5        17.9780   -4.6880   -0.8330 C.2   201  GDP201      0.2182
     22  C6        18.1980   -4.8460   -2.2790 C.1   201  GDP201      0.2372
     23  O6        18.7370   -3.9250   -2.9300 O.2   201  GDP201     -0.2069
     24  N1        17.7960   -5.9880   -2.8610 N.2   201  GDP201     -0.2485
     25  C2        17.2110   -6.9910   -2.1690 C.1   201  GDP201      0.2531
     26  N2        16.8360   -8.1180   -2.8190 N.pl3 201  GDP201     -0.0226
     27  N3        16.9680   -6.9120   -0.8400 N.2   201  GDP201     -0.3074
     28  C4        17.3360   -5.8060   -0.1450 C.2   201  GDP201      0.2300
@<TRIPOS>BOND
     1    23    22    2
     2    24    22    2
     3    24    25    2
     4    26    25    1
     5    22    21    1
     6    25    27    2
     7    27    28    2
     8    21    28    1
     9    21    20    2
    10    28    18    1
    11    20    19    1
    12    18    19    1
    13    18    17    1
    14    17    12    1
    15    17    15    1
    16    12    11    1
    17    16    15    1
    18    15    13    1
    19    11    13    1
    20    11    10    1
    21     9    10    1
    22     9     6    1
    23    13    14    1
    24     3     1    2
    25     8     6    2
    26     5     6    1
    27     5     1    1
    28     6     7    1
    29     1     4    1
    30     1     2    1
