@<TRIPOS>MOLECULE
4dsy_0LO_A_1.pdb
 15 16 0 0 0
SMALL
GASTEIGER

@<TRIPOS>ATOM
      1  CAF      -73.9090   35.1500  -44.9110 C.ar  503  0LO503      0.0000
      2  CAD      -74.1900   35.2750  -46.2700 C.ar  503  0LO503      0.0000
      3  CAC      -73.3550   34.6880  -47.2200 C.ar  503  0LO503      0.0000
      4  CAE      -72.2340   33.9740  -46.8170 C.ar  503  0LO503      0.0000
      5  CAG      -71.9540   33.8540  -45.4580 C.ar  503  0LO503      0.0000
      6  CAN      -72.7850   34.4360  -44.4990 C.ar  503  0LO503      0.0015
      7  CAO      -72.4940   34.3020  -43.0300 C.ar  503  0LO503      0.0194
      8  CAJ      -71.4950   33.4550  -42.5410 C.ar  503  0LO503      0.0097
      9  CAI      -73.2470   35.0350  -42.1230 C.ar  503  0LO503      0.0988
     10  NAK      -73.0070   34.9320  -40.8090 N.ar  503  0LO503     -0.2421
     11  CAH      -72.0580   34.1310  -40.3200 C.ar  503  0LO503      0.1054
     12  CAM      -71.2890   33.3590  -41.1660 C.ar  503  0LO503      0.0989
     13  CAL      -70.2300   32.4850  -40.6080 C.2   503  0LO503      0.3893
     14  OAB      -70.4640   31.5630  -39.7580 O.co2 503  0LO503     -0.2405
     15  OAA      -69.0660   32.7180  -41.0170 O.co2 503  0LO503     -0.2405
@<TRIPOS>BOND
     1     3     4   ar
     2     3     2   ar
     3     4     5   ar
     4     2     1   ar
     5     5     6   ar
     6     1     6   ar
     7     6     7    1
     8     7     8   ar
     9     7     9   ar
    10     8    12   ar
    11     9    10   ar
    12    12    13    1
    13    12    11   ar
    14    15    13   ar
    15    10    11   ar
    16    13    14   ar
