@<TRIPOS>MOLECULE
4dsz_DC3_A_1.pdb
 26 28 0 0 0
SMALL
GASTEIGER

@<TRIPOS>ATOM
      1  FAG        3.9670   15.0580  -16.7880 F     800  DC3800     -0.2044
      2  CAE        3.1820   14.2000  -17.3370 C.ar  800  DC3800      0.1386
      3  CAF        2.2670   13.5230  -16.5480 C.ar  800  DC3800      0.0612
      4  CAA        1.4070   12.5850  -17.1120 C.ar  800  DC3800      0.1696
      5  FAH        0.5330   11.9400  -16.3330 F     800  DC3800     -0.2017
      6  CAB        1.4710   12.3260  -18.4810 C.ar  800  DC3800      0.1672
      7  FAI        0.6580   11.4270  -19.0860 F     800  DC3800     -0.2018
      8  CAC        2.3850   13.0030  -19.2690 C.ar  800  DC3800      0.0300
      9  CAD        3.2290   13.9400  -18.7030 C.ar  800  DC3800      0.0091
     10  CAJ        4.1060   14.6080  -19.5450 C.3   800  DC3800      0.0477
     11  CAK        3.3900   15.7570  -20.3070 C.3   800  DC3800      0.0977
     12  NAM        2.5570   16.5560  -19.4130 N.3   800  DC3800     -0.1325
     13  CAL        4.4190   16.6710  -20.9480 C.3   800  DC3800      0.0386
     14  CAN        5.4680   15.9010  -21.7740 C.3   800  DC3800      0.0974
     15  NAO        5.9080   16.7770  -22.8820 N.3   800  DC3800     -0.1630
     16  CAP        7.1290   16.8360  -23.4010 C.3   800  DC3800      0.1425
     17  NAS        5.1690   17.6370  -23.5090 N.pl3 800  DC3800     -0.0628
     18  NAR        5.8230   18.2390  -24.3880 N.2   800  DC3800     -0.1496
     19  CAQ        7.0620   17.7650  -24.3610 C.2   800  DC3800      0.0972
     20  CAT        8.0850   18.1320  -25.1570 C.ar  800  DC3800      0.0163
     21  CAY        9.1680   17.2460  -25.2940 C.ar  800  DC3800     -0.0030
     22  CAX       10.2660   17.5530  -26.0880 C.ar  800  DC3800     -0.0218
     23  CAZ       11.3200   16.6320  -26.1780 C.3   800  DC3800      0.0310
     24  CAW       10.2680   18.7800  -26.7670 C.ar  800  DC3800     -0.0043
     25  CAV        9.1950   19.6700  -26.6410 C.ar  800  DC3800     -0.0003
     26  CAU        8.1000   19.3520  -25.8400 C.ar  800  DC3800      0.0012
@<TRIPOS>BOND
     1    24    25   ar
     2    24    22   ar
     3    25    26   ar
     4    23    22    1
     5    22    21   ar
     6    26    20   ar
     7    21    20   ar
     8    20    19    1
     9    18    19    2
    10    18    17    1
    11    19    16    1
    12    17    15    1
    13    16    15    1
    14    15    14    1
    15    14    13    1
    16    13    11    1
    17    11    10    1
    18    11    12    1
    19    10     9    1
    20     8     9   ar
    21     8     6   ar
    22     7     6    1
    23     9     2   ar
    24     6     4   ar
    25     2     1    1
    26     2     3   ar
    27     4     3   ar
    28     4     5    1
