@<TRIPOS>MOLECULE
4dt2_0LV_A_1.pdb
 13 14 0 0 0
SMALL
GASTEIGER

@<TRIPOS>ATOM
      1  CAH      -69.5250   33.1940  -43.7540 C.3   504  0LV504      0.0694
      2  CAM      -70.4460   34.2930  -44.1210 C.3   504  0LV504      0.1374
      3  CAA      -71.2910   33.9520  -45.3250 C.3   504  0LV504      0.0439
      4  CAB      -69.6110   35.5670  -44.3900 C.3   504  0LV504      0.0439
      5  OAI      -71.2780   34.4920  -42.9920 O.3   504  0LV504     -0.4828
      6  CAL      -70.8050   33.6530  -41.9410 C.ar  504  0LV504      0.1327
      7  CAK      -69.7760   32.8770  -42.3660 C.ar  504  0LV504      0.0150
      8  CAF      -69.1560   31.9480  -41.4450 C.ar  504  0LV504     -0.0012
      9  CAD      -69.5840   31.8230  -40.1290 C.ar  504  0LV504     -0.0004
     10  CAE      -70.6360   32.6230  -39.7080 C.ar  504  0LV504      0.0013
     11  CAJ      -71.2370   33.5410  -40.6140 C.ar  504  0LV504      0.0442
     12  CAG      -72.3650   34.4160  -40.2380 C.3   504  0LV504      0.2116
     13  OAC      -73.5060   34.2500  -40.9660 O.3   504  0LV504     -0.2151
@<TRIPOS>BOND
     1     3     2    1
     2     4     2    1
     3     2     1    1
     4     2     5    1
     5     1     7    1
     6     5     6    1
     7     7     6   ar
     8     7     8   ar
     9     6    11   ar
    10     8     9   ar
    11    13    12    1
    12    11    12    1
    13    11    10   ar
    14     9    10   ar
