@<TRIPOS>MOLECULE
4dt6_6LI_A_1.pdb
 34 37 0 0 0
SMALL
GASTEIGER

@<TRIPOS>ATOM
      1  C1         2.2320   -0.7330  -24.5820 C.3   1001  6LI1001     0.2287
      2  N1         1.2540    0.4130  -24.4980 N.pl3 1001  6LI1001    -0.2454
      3  O1         3.4820   -0.3840  -23.8860 O.3   1001  6LI1001    -0.3326
      4  P1         5.8690    3.0290  -23.9540 P.3   1001  6LI1001     0.5327
      5 CL1         0.3330    4.9030  -15.9230 Cl    1001  6LI1001    -0.0822
      6  C2         4.5690   -0.5290  -24.8490 C.3   1001  6LI1001     0.1801
      7  N2         0.4000    2.3720  -24.1940 N.3   1001  6LI1001    -0.2321
      8  O2         2.9990   -2.3210  -26.2690 O.3   1001  6LI1001    -0.2158
      9  C3         3.8680   -0.0840  -26.1390 C.3   1001  6LI1001     0.2158
     10  N3        -2.7320    0.6820  -25.2930 N.2   1001  6LI1001    -0.2526
     11  O3         4.6720   -0.4400  -27.2750 O.3   1001  6LI1001    -0.2175
     12  C4         2.6350   -0.9440  -26.0500 C.3   1001  6LI1001     0.2310
     13  N4        -0.7640   -0.7370  -25.2120 N.2   1001  6LI1001    -0.3118
     14  O4         5.0630    1.6550  -24.2670 O.3   1001  6LI1001    -0.2675
     15  C5         5.6830    0.4210  -24.4600 C.3   1001  6LI1001     0.1859
     16  N5        -2.8170   -1.6110  -25.8790 N.pl3 1001  6LI1001    -0.0226
     17  O5        -2.4360    2.8840  -24.6910 O.2   1001  6LI1001    -0.2115
     18  C6        -0.5780    1.5780  -24.6330 C.3   1001  6LI1001     0.2476
     19  O6         0.9740    4.0330  -21.6670 O.3   1001  6LI1001    -0.4740
     20  C7        -0.0280    0.3150  -24.8060 C.2   1001  6LI1001     0.2086
     21  O7         7.2220    2.9360  -24.6220 O.2   1001  6LI1001    -0.2224
     22  C8         1.5280    1.6750  -24.1350 C.3   1001  6LI1001     0.1736
     23  O8         5.7970    3.2090  -22.3350 O.3   1001  6LI1001    -0.1145
     24  C9        -2.0930   -0.5700  -25.4620 C.1   1001  6LI1001     0.2525
     25  O9         4.8800    4.2290  -24.4810 O.3   1001  6LI1001    -0.1145
     26  C10       -1.9410    1.7690  -24.8670 C.1   1001  6LI1001     0.2145
     27  C11        0.3070    3.8310  -23.9170 C.3   1001  6LI1001     0.1225
     28  C12       -0.1710    4.1700  -22.5240 C.3   1001  6LI1001     0.2227
     29  C13        0.7480    4.2660  -20.3320 C.ar  1001  6LI1001     0.1387
     30  C14       -0.4530    4.7860  -19.8360 C.ar  1001  6LI1001     0.0378
     31  C15       -0.6000    4.9830  -18.4720 C.ar  1001  6LI1001     0.0145
     32  C16        0.4510    4.6490  -17.6230 C.ar  1001  6LI1001     0.0579
     33  C17        1.6370    4.1590  -18.1040 C.ar  1001  6LI1001     0.0145
     34  C18        1.7800    3.9610  -19.4510 C.ar  1001  6LI1001     0.0378
@<TRIPOS>BOND
     1    11     9    1
     2     8    12    1
     3     9    12    1
     4     9     6    1
     5    12     1    1
     6    16    24    1
     7    24    10    2
     8    24    13    2
     9    10    26    2
    10    13    20    2
    11    26    17    2
    12    26    18    1
    13     6    15    1
    14     6     3    1
    15    20    18    1
    16    20     2    1
    17    18     7    1
    18    21     4    2
    19     1     2    1
    20     1     3    1
    21     2    22    1
    22    25     4    1
    23    15    14    1
    24    14     4    1
    25     7    22    1
    26     7    27    1
    27     4    23    1
    28    27    28    1
    29    28    19    1
    30    19    29    1
    31    29    30   ar
    32    29    34   ar
    33    30    31   ar
    34    34    33   ar
    35    31    32   ar
    36    33    32   ar
    37    32     5    1
