@<TRIPOS>MOLECULE
4dt8_ADN_A_1.pdb
 19 21 0 0 0
SMALL
GASTEIGER

@<TRIPOS>ATOM
      1  O5'        5.3940  -10.8340   32.6230 O.3   401  ADN401     -0.2176
      2  C5'        6.3120  -10.8740   33.7680 C.3   401  ADN401      0.2143
      3  C4'        6.2310   -9.5880   34.6640 C.3   401  ADN401      0.1851
      4  O4'        6.6810   -8.2310   34.1160 O.3   401  ADN401     -0.3134
      5  C3'        4.7250   -9.2580   35.1320 C.3   401  ADN401      0.2186
      6  O3'        4.1280  -10.1350   36.1480 O.3   401  ADN401     -0.2174
      7  C2'        4.8120   -7.7660   35.6330 C.3   401  ADN401      0.2570
      8  O2'        5.6870   -7.6810   36.7750 O.3   401  ADN401     -0.2130
      9  C1'        5.5140   -7.1840   34.4840 C.3   401  ADN401      0.3186
     10  N9         4.6030   -6.8570   33.2690 N.pl3 401  ADN401     -0.1439
     11  C8         4.4120   -7.6570   32.2070 C.3   401  ADN401      0.3377
     12  N7         3.6180   -7.0400   31.3320 N.2   401  ADN401     -0.2095
     13  C5         3.3270   -5.8450   31.8460 C.2   401  ADN401      0.2526
     14  C6         2.5680   -4.8540   31.3140 C.2   401  ADN401      0.4393
     15  N6         2.0280   -5.0860   30.0690 N.pl3 401  ADN401      0.2180
     16  N1         2.4150   -3.7110   31.9970 N.2   401  ADN401      0.0021
     17  C2         2.9990   -3.5650   33.2900 C.3   401  ADN401      0.5254
     18  N3         3.8150   -4.6150   33.8130 N.2   401  ADN401     -0.0055
     19  C4         3.9330   -5.7280   33.0490 C.2   401  ADN401      0.3518
@<TRIPOS>BOND
     1    15    14    1
     2    14    13    1
     3    14    16    2
     4    12    13    2
     5    12    11    1
     6    13    19    1
     7    16    17    1
     8    11    10    1
     9     1     2    1
    10    19    10    1
    11    19    18    2
    12    10     9    1
    13    17    18    1
    14     2     3    1
    15     4     9    1
    16     4     3    1
    17     9     7    1
    18     3     5    1
    19     5     7    1
    20     5     6    1
    21     7     8    1
