@<TRIPOS>MOLECULE
4dt9_GMP_A_1.pdb
 20 22 0 0 0
SMALL
GASTEIGER

@<TRIPOS>ATOM
      1  O5'        2.9820   12.2810   27.8560 O.3   401  GMP401     -0.2176
      2  C5'        1.7970   12.7380   28.5120 C.3   401  GMP401      0.2142
      3  C4'        1.3170   11.5860   29.4410 C.3   401  GMP401      0.1828
      4  O4'        0.7880   10.3100   28.7980 O.3   401  GMP401     -0.3325
      5  C3'        2.4380   11.0770   30.3640 C.3   401  GMP401      0.2159
      6  O3'        2.7590   12.0820   31.3580 O.3   401  GMP401     -0.2175
      7  C2'        1.7930    9.8280   30.9310 C.3   401  GMP401      0.2310
      8  O2'        0.7610   10.1620   31.9000 O.3   401  GMP401     -0.2158
      9  C1'        1.1200    9.2190   29.6660 C.3   401  GMP401      0.2293
     10  N9         2.2170    8.5270   28.8750 N.pl3 401  GMP401     -0.2354
     11  C8         2.9910    8.9100   27.8570 C.3   401  GMP401      0.2246
     12  N7         3.8210    7.9310   27.5760 N.2   401  GMP401     -0.2322
     13  C5         3.5320    6.8880   28.3840 C.2   401  GMP401      0.2182
     14  C6         4.0560    5.6440   28.5280 C.1   401  GMP401      0.2372
     15  O6         4.9760    5.1800   27.8490 O.2   401  GMP401     -0.2069
     16  N1         3.5190    4.8230   29.4970 N.2   401  GMP401     -0.2485
     17  C2         2.4830    5.3000   30.3370 C.1   401  GMP401      0.2531
     18  N2         2.0080    4.5080   31.2560 N.pl3 401  GMP401     -0.0226
     19  N3         1.9760    6.5240   30.1790 N.2   401  GMP401     -0.3074
     20  C4         2.5300    7.2950   29.2110 C.2   401  GMP401      0.2300
@<TRIPOS>BOND
     1    12    11    1
     2    12    13    2
     3    15    14    2
     4     1     2    1
     5    11    10    1
     6    13    14    1
     7    13    20    1
     8     2     3    1
     9    14    16    2
    10     4     3    1
    11     4     9    1
    12    10    20    1
    13    10     9    1
    14    20    19    2
    15     3     5    1
    16    16    17    2
    17     9     7    1
    18    19    17    2
    19    17    18    1
    20     5     7    1
    21     5     6    1
    22     7     8    1
