@<TRIPOS>MOLECULE
4dta_ADN_A_1.pdb
 19 21 0 0 0
SMALL
GASTEIGER

@<TRIPOS>ATOM
      1  O5'        6.2210  -11.2110   32.9300 O.3   401  ADN401     -0.2176
      2  C5'        6.8210  -10.8590   34.1950 C.3   401  ADN401      0.2143
      3  C4'        6.5310   -9.3990   34.6820 C.3   401  ADN401      0.1851
      4  O4'        6.8510   -8.2040   33.8130 O.3   401  ADN401     -0.3134
      5  C3'        4.9900   -9.1790   34.9910 C.3   401  ADN401      0.2186
      6  O3'        4.4180  -10.0040   36.0770 O.3   401  ADN401     -0.2174
      7  C2'        4.8390   -7.5900   35.1460 C.3   401  ADN401      0.2570
      8  O2'        5.4680   -6.9110   36.2290 O.3   401  ADN401     -0.2130
      9  C1'        5.6230   -7.2410   33.9530 C.3   401  ADN401      0.3186
     10  N9         4.7150   -7.0520   32.7250 N.pl3 401  ADN401     -0.1439
     11  C8         4.4060   -7.8430   31.6840 C.3   401  ADN401      0.3377
     12  N7         3.6210   -7.1510   30.8490 N.2   401  ADN401     -0.2095
     13  C5         3.4490   -5.9310   31.3780 C.2   401  ADN401      0.2526
     14  C6         2.7610   -4.8540   30.9650 C.2   401  ADN401      0.4393
     15  N6         2.1220   -4.9740   29.8060 N.pl3 401  ADN401      0.2180
     16  N1         2.7420   -3.7050   31.6710 N.2   401  ADN401      0.0021
     17  C2         3.4160   -3.6250   32.8920 C.3   401  ADN401      0.5254
     18  N3         4.1250   -4.7490   33.3120 N.2   401  ADN401     -0.0055
     19  C4         4.1270   -5.8700   32.5440 C.2   401  ADN401      0.3518
@<TRIPOS>BOND
     1    15    14    1
     2    12    13    2
     3    12    11    1
     4    14    13    1
     5    14    16    2
     6    13    19    1
     7    16    17    1
     8    11    10    1
     9    19    10    1
    10    19    18    2
    11    10     9    1
    12    17    18    1
    13     1     2    1
    14     4     9    1
    15     4     3    1
    16     9     7    1
    17     2     3    1
    18     3     5    1
    19     5     7    1
    20     5     6    1
    21     7     8    1
