@<TRIPOS>MOLECULE
4dtb_GMP_A_1.pdb
 20 22 0 0 0
SMALL
GASTEIGER

@<TRIPOS>ATOM
      1  O5'        2.7410   11.7320   27.5930 O.3   401  GMP401     -0.2176
      2  C5'        1.5750   12.2420   28.2200 C.3   401  GMP401      0.2142
      3  C4'        1.0510   11.1930   29.2200 C.3   401  GMP401      0.1828
      4  O4'        0.5920    9.9320   28.5880 O.3   401  GMP401     -0.3325
      5  C3'        2.1910   10.6920   30.1220 C.3   401  GMP401      0.2159
      6  O3'        2.6550   11.6770   31.1110 O.3   401  GMP401     -0.2175
      7  C2'        1.5350    9.3980   30.6980 C.3   401  GMP401      0.2310
      8  O2'        0.4780    9.7230   31.5730 O.3   401  GMP401     -0.2158
      9  C1'        0.9500    8.7900   29.4320 C.3   401  GMP401      0.2293
     10  N9         2.0340    8.0470   28.6710 N.pl3 401  GMP401     -0.2354
     11  C8         2.8350    8.4160   27.6690 C.3   401  GMP401      0.2246
     12  N7         3.6310    7.3780   27.3880 N.2   401  GMP401     -0.2322
     13  C5         3.3330    6.3590   28.1960 C.2   401  GMP401      0.2182
     14  C6         3.8010    5.0910   28.3190 C.1   401  GMP401      0.2372
     15  O6         4.7060    4.6150   27.6390 O.2   401  GMP401     -0.2069
     16  N1         3.2370    4.2730   29.2790 N.2   401  GMP401     -0.2485
     17  C2         2.1990    4.7790   30.1110 C.1   401  GMP401      0.2531
     18  N2         1.6430    4.0170   31.0420 N.pl3 401  GMP401     -0.0226
     19  N3         1.7790    6.0220   29.9600 N.2   401  GMP401     -0.3074
     20  C4         2.3380    6.7950   29.0050 C.2   401  GMP401      0.2300
@<TRIPOS>BOND
     1    12    11    1
     2    12    13    2
     3     1     2    1
     4    15    14    2
     5    11    10    1
     6    13    14    1
     7    13    20    1
     8     2     3    1
     9    14    16    2
    10     4     3    1
    11     4     9    1
    12    10    20    1
    13    10     9    1
    14    20    19    2
    15     3     5    1
    16    16    17    2
    17     9     7    1
    18    19    17    2
    19    17    18    1
    20     5     7    1
    21     5     6    1
    22     7     8    1
