@<TRIPOS>MOLECULE
4dtc_D5C_A_1.pdb
 33 35 0 0 0
SMALL
GASTEIGER

@<TRIPOS>ATOM
      1  FBE        8.7170   23.8080  -31.3460 F     801  D5C801     -0.1659
      2  CBD        7.4220   23.9450  -30.8360 C.3   801  D5C801      0.4186
      3  FBF        6.6730   22.8590  -31.2290 F     801  D5C801     -0.1659
      4  FBG        6.8760   25.0660  -31.3330 F     801  D5C801     -0.1659
      5  CBB        7.4490   24.0310  -29.4120 C.ar  801  D5C801      0.0714
      6  CBC        7.1150   22.9340  -28.6020 C.ar  801  D5C801      0.0039
      7  CBA        7.8170   25.2220  -28.7780 C.ar  801  D5C801      0.0039
      8  CAZ        7.8510   25.3230  -27.3820 C.ar  801  D5C801     -0.0001
      9  CAY        7.5220   24.2230  -26.5940 C.ar  801  D5C801     -0.0000
     10  CAX        7.1620   23.0140  -27.2030 C.ar  801  D5C801     -0.0001
     11  CAU        6.8270   21.9070  -26.4070 C.ar  801  D5C801     -0.0000
     12  CAV        7.6780   20.7750  -26.1960 C.ar  801  D5C801      0.0001
     13  CAW        7.2720   19.7060  -25.3690 C.ar  801  D5C801      0.0046
     14  CAT        5.5720   21.9590  -25.7830 C.ar  801  D5C801      0.0001
     15  CAS        5.1820   20.9040  -24.9740 C.ar  801  D5C801      0.0046
     16  CAR        5.9940   19.7760  -24.7390 C.ar  801  D5C801      0.0550
     17  CAP        5.3860   18.8240  -23.8940 C.2   801  D5C801      0.2648
     18  OAQ        4.1480   18.8020  -23.8410 O.2   801  D5C801     -0.2684
     19  NAO        6.1340   17.9820  -23.1480 N.am  801  D5C801     -0.2016
     20  CAN        5.4460   17.0110  -22.2320 C.3   801  D5C801      0.1170
     21  CAL        4.2680   17.6580  -21.4070 C.3   801  D5C801      0.0428
     22  CAK        3.4320   16.7240  -20.4710 C.3   801  D5C801      0.0980
     23  NAM        2.6730   17.5140  -19.4950 N.3   801  D5C801     -0.1325
     24  CAJ        4.2740   15.6820  -19.6860 C.3   801  D5C801      0.0478
     25  CAD        3.4950   14.8290  -18.8790 C.ar  801  D5C801      0.0091
     26  CAE        3.5070   14.9310  -17.5040 C.ar  801  D5C801      0.1386
     27  FAG        4.1870   15.7870  -16.9690 F     801  D5C801     -0.2044
     28  CAF        2.7320   14.0850  -16.7100 C.ar  801  D5C801      0.0612
     29  CAA        1.9210   13.1090  -17.2920 C.ar  801  D5C801      0.1696
     30  FAH        1.1260   12.2540  -16.5260 F     801  D5C801     -0.2017
     31  CAB        1.9080   13.0020  -18.6720 C.ar  801  D5C801      0.1672
     32  FAI        1.1400   12.1010  -19.2500 F     801  D5C801     -0.2018
     33  CAC        2.6990   13.8500  -19.4500 C.ar  801  D5C801      0.0300
@<TRIPOS>BOND
     1     1     2    1
     2     4     2    1
     3     3     2    1
     4     2     5    1
     5     5     7   ar
     6     5     6   ar
     7     7     8   ar
     8     6    10   ar
     9     8     9   ar
    10    10     9   ar
    11    10    11    1
    12    11    12   ar
    13    11    14   ar
    14    12    13   ar
    15    14    15   ar
    16    13    16   ar
    17    15    16   ar
    18    16    17    1
    19    17    18    2
    20    17    19   am
    21    19    20    1
    22    20    21    1
    23    21    22    1
    24    22    24    1
    25    22    23    1
    26    24    25    1
    27    33    25   ar
    28    33    31   ar
    29    32    31    1
    30    25    26   ar
    31    31    29   ar
    32    26    27    1
    33    26    28   ar
    34    29    28   ar
    35    29    30    1
