@<TRIPOS>MOLECULE
4dtf_ANP_A_1.pdb
 31 33 0 0 0
SMALL
GASTEIGER

@<TRIPOS>ATOM
      1  PG        35.5670   87.3480    1.9140 P.3   401  ANP401      0.4884
      2  O1G       36.1830   88.6740    1.5890 O.3   401  ANP401     -0.1240
      3  O2G       34.3690   87.0450    1.0620 O.2   401  ANP401     -0.2331
      4  O3G       36.5380   86.2240    1.7160 O.3   401  ANP401     -0.1240
      5  PB        35.6210   86.5750    4.6300 P.3   401  ANP401      0.4669
      6  O1B       35.9620   85.1950    4.1960 O.2   401  ANP401     -0.2351
      7  O2B       36.8410   87.2600    5.1660 O.3   401  ANP401     -0.1253
      8  N3B       35.1050   87.3490    3.4520 N.3   401  ANP401     -0.0163
      9  PA        34.6500   86.7640    7.2580 P.3   401  ANP401      0.2220
     10  O1A       33.9350   85.7150    8.0260 O.3   401  ANP401     -0.4370
     11  O2A       36.1250   86.7600    7.6440 O.2   401  ANP401     -0.5170
     12  O3A       34.5140   86.5030    5.7890 O.3   401  ANP401     -0.2360
     13  O5'       34.0420   88.2150    7.5650 O.3   401  ANP401     -0.3111
     14  C5'       33.7330   88.3590    8.9480 C.3   401  ANP401      0.1813
     15  C4'       33.3600   89.7730    9.2950 C.3   401  ANP401      0.1821
     16  O4'       32.3950   89.6730   10.3610 O.3   401  ANP401     -0.3135
     17  C3'       34.4980   90.6060    9.8840 C.3   401  ANP401      0.2184
     18  O3'       34.2300   92.0000    9.7690 O.3   401  ANP401     -0.2174
     19  C2'       34.4910   90.1410   11.3370 C.3   401  ANP401      0.2570
     20  O2'       35.0870   91.0530   12.2440 O.3   401  ANP401     -0.2130
     21  C1'       32.9880   90.0650   11.5830 C.3   401  ANP401      0.3186
     22  N9        32.5650   89.1410   12.6210 N.pl3 401  ANP401     -0.1439
     23  C8        32.9570   87.8390   12.8160 C.3   401  ANP401      0.3377
     24  N7        32.4330   87.2770   13.8720 N.2   401  ANP401     -0.2095
     25  C5        31.6200   88.2630   14.4050 C.2   401  ANP401      0.2526
     26  C6        30.7500   88.2880   15.5160 C.2   401  ANP401      0.4393
     27  N6        30.5910   87.2610   16.3590 N.pl3 401  ANP401      0.2180
     28  N1        30.0470   89.4210   15.7390 N.2   401  ANP401      0.0021
     29  C2        30.2150   90.4600   14.9110 C.3   401  ANP401      0.5254
     30  N3        31.0120   90.5580   13.8430 N.2   401  ANP401     -0.0055
     31  C4        31.6880   89.4170   13.6440 C.2   401  ANP401      0.3518
@<TRIPOS>BOND
     1     3     1    2
     2     2     1    1
     3     4     1    1
     4     1     8    1
     5     8     5    1
     6     6     5    2
     7     5     7    1
     8     5    12    1
     9    12     9    1
    10     9    13    1
    11     9    11    2
    12     9    10    1
    13    13    14    1
    14    14    15    1
    15    15    17    1
    16    15    16    1
    17    18    17    1
    18    17    19    1
    19    16    21    1
    20    19    21    1
    21    19    20    1
    22    21    22    1
    23    22    23    1
    24    22    31    1
    25    23    24    1
    26    31    30    2
    27    31    25    1
    28    30    29    1
    29    24    25    2
    30    25    26    1
    31    29    28    1
    32    26    28    2
    33    26    27    1
