@<TRIPOS>MOLECULE
4dth_ATP_A_1.pdb
 31 33 0 0 0
SMALL
GASTEIGER

@<TRIPOS>ATOM
      1  PG        32.1620   86.7800    2.6630 P.3   401  ATP401      0.5373
      2  O1G       31.2350   87.9530    2.7060 O.3   401  ATP401     -0.1143
      3  O2G       31.4060   85.4890    2.8070 O.3   401  ATP401     -0.1143
      4  O3G       32.9530   86.7270    1.3870 O.2   401  ATP401     -0.2221
      5  PB        34.2900   86.1760    4.5090 P.3   401  ATP401      0.2277
      6  O1B       33.9620   84.7360    4.5420 O.3   401  ATP401     -0.4368
      7  O2B       35.5360   86.3660    3.6780 O.2   401  ATP401     -0.5168
      8  O3B       33.1630   86.9410    3.9030 O.3   401  ATP401     -0.2258
      9  PA        33.8560   86.4630    7.2910 P.3   401  ATP401      0.2189
     10  O1A       32.7340   85.5260    7.0700 O.2   401  ATP401     -0.5170
     11  O2A       34.8380   85.7900    8.2540 O.3   401  ATP401     -0.4371
     12  O3A       34.5430   86.7220    5.9950 O.3   401  ATP401     -0.2700
     13  O5'       33.2740   87.8270    7.9040 O.3   401  ATP401     -0.3112
     14  C5'       34.2460   88.7480    8.4260 C.3   401  ATP401      0.1813
     15  C4'       33.6070   89.9270    9.1110 C.3   401  ATP401      0.1821
     16  O4'       32.7050   89.4680   10.1590 O.3   401  ATP401     -0.3135
     17  C3'       34.6100   90.8420    9.8150 C.3   401  ATP401      0.2184
     18  O3'       34.2200   92.2130    9.7740 O.3   401  ATP401     -0.2174
     19  C2'       34.5940   90.2910   11.2340 C.3   401  ATP401      0.2570
     20  O2'       35.1380   91.1720   12.2030 O.3   401  ATP401     -0.2130
     21  C1'       33.1050   90.0570   11.3880 C.3   401  ATP401      0.3186
     22  N9        32.6900   89.1990   12.5010 N.pl3 401  ATP401     -0.1439
     23  C8        33.0620   87.9020   12.7300 C.3   401  ATP401      0.3377
     24  N7        32.5190   87.3830   13.8050 N.2   401  ATP401     -0.2095
     25  C5        31.7400   88.4100   14.3200 C.2   401  ATP401      0.2526
     26  C6        30.8950   88.5020   15.4440 C.2   401  ATP401      0.4393
     27  N6        30.6800   87.4970   16.3030 N.pl3 401  ATP401      0.2180
     28  N1        30.2520   89.6740   15.6510 N.2   401  ATP401      0.0021
     29  C2        30.4430   90.6790   14.7920 C.3   401  ATP401      0.5254
     30  N3        31.2070   90.7110   13.7030 N.2   401  ATP401     -0.0055
     31  C4        31.8410   89.5390   13.5170 C.2   401  ATP401      0.3518
@<TRIPOS>BOND
     1     4     1    2
     2     1     2    1
     3     1     3    1
     4     1     8    1
     5     7     5    2
     6     8     5    1
     7     5     6    1
     8     5    12    1
     9    12     9    1
    10    10     9    2
    11     9    13    1
    12     9    11    1
    13    13    14    1
    14    14    15    1
    15    15    17    1
    16    15    16    1
    17    18    17    1
    18    17    19    1
    19    16    21    1
    20    19    21    1
    21    19    20    1
    22    21    22    1
    23    22    23    1
    24    22    31    1
    25    23    24    1
    26    31    30    2
    27    31    25    1
    28    30    29    1
    29    24    25    2
    30    25    26    1
    31    29    28    1
    32    26    28    2
    33    26    27    1
