@<TRIPOS>MOLECULE
4dti_NAD_A_1.pdb
 44 48 0 0 0
SMALL
GASTEIGER

@<TRIPOS>ATOM
      1  PA         0.6590  -33.5670   11.0780 P.3   500  NAD500      0.2189
      2  O1A        0.8020  -32.2530   10.4070 O.2   500  NAD500     -0.5170
      3  O2A       -0.3210  -34.5910   10.6200 O.3   500  NAD500     -0.4371
      4  O5B        0.3820  -33.3800   12.6390 O.3   500  NAD500     -0.3112
      5  C5B        0.8840  -32.2380   13.3490 C.3   500  NAD500      0.1813
      6  C4B       -0.1330  -31.8460   14.4130 C.3   500  NAD500      0.1821
      7  O4B        0.4150  -30.7740   15.2510 O.3   500  NAD500     -0.3135
      8  C3B       -1.3320  -31.2400   13.6490 C.3   500  NAD500      0.2184
      9  O3B       -2.5070  -31.9820   13.9960 O.3   500  NAD500     -0.2174
     10  C2B       -1.4070  -29.8290   14.1960 C.3   500  NAD500      0.2570
     11  O2B       -2.7820  -29.4100   14.3050 O.3   500  NAD500     -0.2130
     12  C1B       -0.7320  -30.0010   15.5780 C.3   500  NAD500      0.3186
     13  N9A       -0.4640  -28.6660   16.1130 N.pl3 500  NAD500     -0.1439
     14  C8A        0.2710  -27.6830   15.5730 C.3   500  NAD500      0.3377
     15  N7A        0.2150  -26.6030   16.3570 N.2   500  NAD500     -0.2095
     16  C5A       -0.5790  -26.8980   17.3870 C.2   500  NAD500      0.2526
     17  C6A       -1.0170  -26.1910   18.5030 C.2   500  NAD500      0.4393
     18  N6A       -0.6370  -24.9210   18.7290 N.pl3 500  NAD500      0.2180
     19  N1A       -1.8340  -26.8190   19.3640 N.2   500  NAD500      0.0021
     20  C2A       -2.2370  -28.0740   19.1870 C.3   500  NAD500      0.5254
     21  N3A       -1.8420  -28.7690   18.1280 N.2   500  NAD500     -0.0055
     22  C4A       -1.0160  -28.2020   17.2260 C.2   500  NAD500      0.3518
     23  O3         2.1940  -34.1980   11.1020 O.3   500  NAD500     -0.2703
     24  PN         2.6620  -35.6140   11.7430 P.3   500  NAD500      0.2189
     25  O1N        3.8860  -35.9410   10.9640 O.2   500  NAD500     -0.5170
     26  O2N        1.6010  -36.6220   11.8540 O.3   500  NAD500     -0.4371
     27  O5D        3.1100  -35.0730   13.2270 O.3   500  NAD500     -0.3112
     28  C5D        2.7440  -35.6810   14.4720 C.3   500  NAD500      0.1813
     29  C4D        3.9950  -35.7770   15.3820 C.3   500  NAD500      0.1799
     30  O4D        4.8280  -36.8260   14.7760 O.3   500  NAD500     -0.3327
     31  C3D        4.8590  -34.5020   15.3970 C.3   500  NAD500      0.2158
     32  O3D        5.4710  -34.3940   16.6980 O.3   500  NAD500     -0.2175
     33  C2D        5.9360  -34.8170   14.3650 C.3   500  NAD500      0.2309
     34  O2D        7.0970  -34.0620   14.6710 O.3   500  NAD500     -0.2158
     35  C1D        6.1710  -36.2880   14.7050 C.3   500  NAD500      0.2263
     36  N1N        6.9850  -37.0420   13.7150 N.pl3 500  NAD500     -0.2787
     37  C2N        6.6920  -36.9460   12.3470 C.3   500  NAD500      0.1244
     38  C3N        7.4670  -37.6580   11.4380 C.2   500  NAD500      0.0544
     39  C7N        7.1500  -37.5660    9.9480 C.2   500  NAD500      0.2818
     40  O7N        8.0920  -37.8980    9.0600 O.2   500  NAD500     -0.2670
     41  N7N        5.9340  -37.1330    9.5700 N.am  500  NAD500     -0.0839
     42  C4N        8.5550  -38.4330   11.8680 C.2   500  NAD500      0.0033
     43  C5N        8.8430  -38.5220   13.2340 C.2   500  NAD500      0.0157
     44  C6N        8.0690  -37.8260   14.1560 C.2   500  NAD500      0.0633
@<TRIPOS>BOND
     1    40    39    2
     2    41    39   am
     3    39    38    1
     4     2     1    2
     5     3     1    1
     6    25    24    2
     7     1    23    1
     8     1     4    1
     9    23    24    1
    10    38    42    2
    11    38    37    1
    12    24    26    1
    13    24    27    1
    14    42    43    1
    15    37    36    1
    16     4     5    1
    17    27    28    1
    18    43    44    2
    19     5     6    1
    20     8     9    1
    21     8    10    1
    22     8     6    1
    23    36    44    1
    24    36    35    1
    25    10    11    1
    26    10    12    1
    27    33    34    1
    28    33    35    1
    29    33    31    1
    30     6     7    1
    31    28    29    1
    32    35    30    1
    33    30    29    1
    34     7    12    1
    35    29    31    1
    36    31    32    1
    37    14    13    1
    38    14    15    1
    39    12    13    1
    40    13    22    1
    41    15    16    2
    42    22    16    1
    43    22    21    2
    44    16    17    1
    45    21    20    1
    46    17    18    1
    47    17    19    2
    48    20    19    1
