@<TRIPOS>MOLECULE
4dtj_TTP_A_1.pdb
 29 30 0 0 0
SMALL
GASTEIGER

@<TRIPOS>ATOM
      1  PA        -0.0980   10.4340  -49.1240 P.3   1001  TTP1001     0.2189
      2  O1A        0.4020   10.7550  -50.5170 O.2   1001  TTP1001    -0.5170
      3  O2A        0.3780   11.2710  -47.9730 O.3   1001  TTP1001    -0.4371
      4  O3A       -1.7020   10.5560  -49.0630 O.3   1001  TTP1001    -0.2700
      5  PB        -2.8150   10.0000  -50.0770 P.3   1001  TTP1001     0.2277
      6  O1B       -2.2600    9.6260  -51.4270 O.2   1001  TTP1001    -0.5168
      7  O2B       -3.6040    8.9850  -49.2880 O.3   1001  TTP1001    -0.4368
      8  O3B       -3.7670   11.3000  -50.2070 O.3   1001  TTP1001    -0.2258
      9  PG        -3.5100   12.6560  -51.0490 P.3   1001  TTP1001     0.5373
     10  O1G       -4.7260   12.6900  -51.9260 O.2   1001  TTP1001    -0.2221
     11  O2G       -2.1870   12.4990  -51.7660 O.3   1001  TTP1001    -0.1143
     12  O3G       -3.5110   13.7200  -49.9840 O.3   1001  TTP1001    -0.1143
     13  O5'        0.1590    8.8990  -48.7600 O.3   1001  TTP1001    -0.3112
     14  C5'        0.2460    7.8910  -49.7640 C.3   1001  TTP1001     0.1812
     15  C4'       -0.2460    6.5710  -49.2060 C.3   1001  TTP1001     0.1773
     16  O4'        0.5500    6.1920  -48.0730 O.3   1001  TTP1001    -0.3339
     17  C3'       -1.6740    6.6220  -48.6750 C.3   1001  TTP1001     0.1857
     18  O3'       -2.7020    6.5060  -49.6700 O.3   1001  TTP1001    -0.2203
     19  C2'       -1.6700    5.4470  -47.7210 C.3   1001  TTP1001     0.0874
     20  C1'       -0.2540    5.4870  -47.1320 C.3   1001  TTP1001     0.2090
     21  N1        -0.3730    6.2250  -45.8700 N.am  1001  TTP1001    -0.1794
     22  C2        -0.7630    5.5110  -44.7160 C.1   1001  TTP1001     0.2844
     23  O2        -0.9700    4.2840  -44.7970 O.2   1001  TTP1001    -0.1918
     24  N3        -0.9230    6.1310  -43.5380 N.2   1001  TTP1001    -0.2455
     25  C4        -0.7190    7.4490  -43.4240 C.1   1001  TTP1001     0.2134
     26  O4        -0.8740    8.0020  -42.3160 O.2   1001  TTP1001    -0.2088
     27  C5        -0.3140    8.2310  -44.6200 C.2   1001  TTP1001     0.0891
     28  C5M       -0.0800    9.7200  -44.5610 C.3   1001  TTP1001     0.0462
     29  C6        -0.1650    7.5540  -45.8210 C.2   1001  TTP1001     0.0877
@<TRIPOS>BOND
     1    10     9    2
     2    11     9    1
     3     6     5    2
     4     9     8    1
     5     9    12    1
     6     2     1    2
     7     8     5    1
     8     5     7    1
     9     5     4    1
    10    14    15    1
    11    14    13    1
    12    18    17    1
    13    15    17    1
    14    15    16    1
    15     1     4    1
    16     1    13    1
    17     1     3    1
    18    17    19    1
    19    16    20    1
    20    19    20    1
    21    20    21    1
    22    21    29    1
    23    21    22   am
    24    29    27    2
    25    23    22    2
    26    22    24    2
    27    27    28    1
    28    27    25    1
    29    24    25    2
    30    25    26    2
