@<TRIPOS>MOLECULE
4dtk_7LI_A_1.pdb
 25 27 0 0 0
SMALL
GASTEIGER

@<TRIPOS>ATOM
      1  C         22.7970  -40.1530   -3.7150 C.3   408  7LI408      0.0472
      2  N         19.3330  -37.1640   -2.5370 N.pl3 408  7LI408     -0.3037
      3  O         20.7330  -39.4530   -2.9090 O.3   408  7LI408     -0.4779
      4  S         17.7840  -36.8070    2.6510 S.3   408  7LI408      0.0317
      5  C1        21.4650  -40.6490   -3.2770 C.3   408  7LI408      0.1662
      6  N1        16.3110  -37.3160   -4.7420 N.3   408  7LI408     -0.1311
      7  O1        17.0340  -33.9390    0.2010 O.2   408  7LI408     -0.2080
      8  C2        20.6960  -41.2920   -4.3840 C.3   408  7LI408      0.0472
      9  N2        16.2780  -34.7590    2.2280 N.2   408  7LI408     -0.2516
     10  O2        15.8050  -35.8970    4.1670 O.2   408  7LI408     -0.2014
     11  C3        20.6300  -39.0260   -1.5980 C.ar  408  7LI408      0.1515
     12  C4        21.1810  -39.7010   -0.5130 C.ar  408  7LI408      0.0382
     13  C5        20.9850  -39.2170    0.7690 C.ar  408  7LI408      0.0032
     14  C6        20.2470  -38.0650    0.9710 C.ar  408  7LI408      0.0015
     15  C7        19.7010  -37.3590   -0.1090 C.ar  408  7LI408      0.0176
     16  C8        19.8990  -37.8450   -1.4110 C.ar  408  7LI408      0.0823
     17  C9        20.1400  -36.2080   -3.3070 C.3   408  7LI408      0.0910
     18  C10       19.3510  -35.1490   -4.0470 C.3   408  7LI408      0.0230
     19  C11       18.2330  -35.7860   -4.8610 C.3   408  7LI408      0.0225
     20  C12       17.3690  -36.6510   -3.9580 C.3   408  7LI408      0.1115
     21  C13       18.1700  -37.7150   -3.2430 C.3   408  7LI408      0.1098
     22  C14       18.7610  -36.2570    0.1020 C.2   408  7LI408      0.0213
     23  C15       18.0230  -35.9230    1.1730 C.2   408  7LI408      0.1365
     24  C16       17.0940  -34.7720    1.1100 C.1   408  7LI408      0.2223
     25  C17       16.4670  -35.7360    3.1610 C.1   408  7LI408      0.2492
@<TRIPOS>BOND
     1    19    18    1
     2    19    20    1
     3     6    20    1
     4     8     5    1
     5    18    17    1
     6    20    21    1
     7     1     5    1
     8    17     2    1
     9     5     3    1
    10    21     2    1
    11     3    11    1
    12     2    16    1
    13    11    16   ar
    14    11    12   ar
    15    16    15   ar
    16    12    13   ar
    17    15    22    1
    18    15    14   ar
    19    22    23    2
    20     7    24    2
    21    13    14   ar
    22    24    23    1
    23    24     9    2
    24    23     4    1
    25     9    25    2
    26     4    25    1
    27    25    10    2
