@<TRIPOS>MOLECULE
4dtl_ATP_A_1.pdb
 31 33 0 0 0
SMALL
GASTEIGER

@<TRIPOS>ATOM
      1  PG        34.0820   89.5740    1.6570 P.3   401  ATP401      0.5373
      2  O1G       35.4570   90.1540    1.7780 O.3   401  ATP401     -0.1143
      3  O2G       33.0730   90.6340    1.3540 O.3   401  ATP401     -0.1143
      4  O3G       34.0540   88.5370    0.5770 O.2   401  ATP401     -0.2221
      5  PB        34.7180   88.1610    3.8320 P.3   401  ATP401      0.2277
      6  O1B       35.0400   86.8660    3.1940 O.2   401  ATP401     -0.5168
      7  O2B       35.9470   89.0170    3.9240 O.3   401  ATP401     -0.4368
      8  O3B       33.6650   88.8840    3.0460 O.3   401  ATP401     -0.2258
      9  PA        35.2040   87.8510    6.5040 P.3   401  ATP401      0.2189
     10  O1A       35.1570   86.5590    7.2410 O.3   401  ATP401     -0.4371
     11  O2A       36.6290   88.1110    6.0030 O.2   401  ATP401     -0.5170
     12  O3A       34.2520   87.8830    5.3390 O.3   401  ATP401     -0.2700
     13  O5'       34.7980   89.0260    7.5120 O.3   401  ATP401     -0.3112
     14  C5'       33.6600   88.8380    8.3630 C.3   401  ATP401      0.1813
     15  C4'       33.3960   90.0760    9.1730 C.3   401  ATP401      0.1821
     16  O4'       32.5140   89.7070   10.2530 O.3   401  ATP401     -0.3135
     17  C3'       34.6240   90.7060    9.8240 C.3   401  ATP401      0.2184
     18  O3'       34.5510   92.1190    9.7370 O.3   401  ATP401     -0.2174
     19  C2'       34.5670   90.1770   11.2550 C.3   401  ATP401      0.2570
     20  O2'       35.1910   91.0400   12.1930 O.3   401  ATP401     -0.2130
     21  C1'       33.0710   90.0960   11.4850 C.3   401  ATP401      0.3186
     22  N9        32.6470   89.1510   12.5100 N.pl3 401  ATP401     -0.1439
     23  C8        33.0700   87.8610   12.6790 C.3   401  ATP401      0.3377
     24  N7        32.5470   87.2580   13.7170 N.2   401  ATP401     -0.2095
     25  C5        31.7140   88.2210   14.2670 C.2   401  ATP401      0.2526
     26  C6        30.8540   88.2090   15.3870 C.2   401  ATP401      0.4393
     27  N6        30.7310   87.1670   16.2200 N.pl3 401  ATP401      0.2180
     28  N1        30.1270   89.3230   15.6330 N.2   401  ATP401      0.0021
     29  C2        30.2710   90.3780   14.8270 C.3   401  ATP401      0.5254
     30  N3        31.0680   90.5130   13.7650 N.2   401  ATP401     -0.0055
     31  C4        31.7600   89.3900   13.5340 C.2   401  ATP401      0.3518
@<TRIPOS>BOND
     1     4     1    2
     2     3     1    1
     3     1     2    1
     4     1     8    1
     5     8     5    1
     6     6     5    2
     7     5     7    1
     8     5    12    1
     9    12     9    1
    10    11     9    2
    11     9    10    1
    12     9    13    1
    13    13    14    1
    14    14    15    1
    15    15    17    1
    16    15    16    1
    17    18    17    1
    18    17    19    1
    19    16    21    1
    20    19    21    1
    21    19    20    1
    22    21    22    1
    23    22    23    1
    24    22    31    1
    25    23    24    1
    26    31    30    2
    27    31    25    1
    28    24    25    2
    29    30    29    1
    30    25    26    1
    31    29    28    1
    32    26    28    2
    33    26    27    1
