@<TRIPOS>MOLECULE
4dtm_DCP_A_1.pdb
 28 29 0 0 0
SMALL
GASTEIGER

@<TRIPOS>ATOM
      1  N1        -0.4090    5.7100  -45.9560 N.am  1001  DCP1001    -0.1802
      2  C2        -0.9140    4.7250  -45.0700 C.1   1001  DCP1001     0.2756
      3  N3        -1.1160    5.0170  -43.7660 N.2   1001  DCP1001    -0.3024
      4  C4        -0.8540    6.2580  -43.2930 C.2   1001  DCP1001     0.2346
      5  C5        -0.3650    7.2490  -44.1500 C.2   1001  DCP1001     0.0687
      6  C6        -0.1490    6.9490  -45.4970 C.2   1001  DCP1001     0.0835
      7  O2        -1.1670    3.5660  -45.4840 O.2   1001  DCP1001    -0.1925
      8  N4        -1.0680    6.5260  -41.9820 N.pl3 1001  DCP1001    -0.0921
      9  C1'       -0.2210    5.3560  -47.3780 C.3   1001  DCP1001     0.2090
     10  C2'       -1.6040    5.3230  -48.0320 C.3   1001  DCP1001     0.0874
     11  C3'       -1.6960    6.6520  -48.7520 C.3   1001  DCP1001     0.1857
     12  C4'       -0.2540    6.8580  -49.1880 C.3   1001  DCP1001     0.1773
     13  O4'        0.5260    6.3390  -48.0970 O.3   1001  DCP1001    -0.3339
     14  O3'       -2.6490    6.6330  -49.8210 O.3   1001  DCP1001    -0.2203
     15  C5'        0.1080    8.3170  -49.4140 C.3   1001  DCP1001     0.1812
     16  O5'       -0.3900    9.0690  -48.3180 O.3   1001  DCP1001    -0.3112
     17  PA        -0.4950   10.6760  -48.3530 P.3   1001  DCP1001     0.2189
     18  O1A        0.8490   11.2240  -48.7330 O.2   1001  DCP1001    -0.5170
     19  O2A       -1.1190   11.1520  -47.0650 O.3   1001  DCP1001    -0.4371
     20  O3A       -1.5110   11.0290  -49.5640 O.3   1001  DCP1001    -0.2700
     21  PB        -2.7700   10.2390  -50.1970 P.3   1001  DCP1001     0.2277
     22  O1B       -2.4340    9.8640  -51.6180 O.2   1001  DCP1001    -0.5168
     23  O2B       -3.3370    9.1430  -49.3250 O.3   1001  DCP1001    -0.4368
     24  O3B       -3.8480   11.4460  -50.2040 O.3   1001  DCP1001    -0.2258
     25  PG        -3.8640   12.7250  -51.2010 P.3   1001  DCP1001     0.5373
     26  O1G       -2.6310   12.5940  -52.0630 O.2   1001  DCP1001    -0.2221
     27  O2G       -5.1740   12.5660  -51.9140 O.3   1001  DCP1001    -0.1143
     28  O3G       -3.8210   13.9310  -50.3070 O.3   1001  DCP1001    -0.1143
@<TRIPOS>BOND
     1    26    25    2
     2    27    25    1
     3    22    21    2
     4    25    28    1
     5    25    24    1
     6    24    21    1
     7    21    20    1
     8    21    23    1
     9    14    11    1
    10    20    17    1
    11    15    12    1
    12    15    16    1
    13    12    11    1
    14    12    13    1
    15    11    10    1
    16    18    17    2
    17    17    16    1
    18    17    19    1
    19    13     9    1
    20    10     9    1
    21     9     1    1
    22     1     6    1
    23     1     2   am
    24     6     5    2
    25     7     2    2
    26     2     3    2
    27     5     4    1
    28     3     4    2
    29     4     8    1
