@<TRIPOS>MOLECULE
4dtn_DTP_A_1.pdb
 30 32 0 0 0
SMALL
GASTEIGER

@<TRIPOS>ATOM
      1  PG        -4.3620  -15.0150   50.4800 P.3   1001  DTP1001     0.5373
      2  O1G       -4.2210  -16.0880   49.4290 O.2   1001  DTP1001    -0.2221
      3  O2G       -5.6540  -15.0660   51.2400 O.3   1001  DTP1001    -0.1143
      4  O3G       -3.1370  -14.7850   51.3300 O.3   1001  DTP1001    -0.1143
      5  PB        -3.7040  -12.3200   49.5640 P.3   1001  DTP1001     0.2277
      6  O1B       -4.5080  -11.3490   48.7380 O.2   1001  DTP1001    -0.5168
      7  O2B       -3.3140  -11.9400   50.9680 O.3   1001  DTP1001    -0.4368
      8  O3B       -4.5560  -13.6960   49.5520 O.3   1001  DTP1001    -0.2258
      9  PA        -0.8790  -12.5750   48.8760 P.3   1001  DTP1001     0.2189
     10  O1A       -0.2910  -13.2760   47.6910 O.2   1001  DTP1001    -0.5170
     11  O2A       -0.5290  -12.9740   50.2870 O.3   1001  DTP1001    -0.4371
     12  O3A       -2.4590  -12.7640   48.6550 O.3   1001  DTP1001    -0.2700
     13  O5'       -0.5720  -11.0110   48.6460 O.3   1001  DTP1001    -0.3112
     14  C5'       -0.7920  -10.0390   49.6620 C.3   1001  DTP1001     0.1813
     15  C4'       -1.2220   -8.7320   49.0120 C.3   1001  DTP1001     0.1795
     16  O4'       -0.3180   -8.3390   47.9640 O.3   1001  DTP1001    -0.3155
     17  C3'       -2.5700   -8.8480   48.3430 C.3   1001  DTP1001     0.1883
     18  O3'       -3.6600   -8.7610   49.2730 O.3   1001  DTP1001    -0.2202
     19  C2'       -2.5000   -7.7030   47.3500 C.3   1001  DTP1001     0.1151
     20  C1'       -1.0320   -7.7160   46.9020 C.3   1001  DTP1001     0.2873
     21  N9        -0.9410   -8.5890   45.7000 N.pl3 1001  DTP1001    -0.1460
     22  C8        -0.5460   -9.8780   45.6990 C.3   1001  DTP1001     0.3377
     23  N7        -0.6030  -10.4060   44.4530 N.2   1001  DTP1001    -0.2095
     24  C5        -1.0560   -9.4480   43.6290 C.2   1001  DTP1001     0.2526
     25  C6        -1.3540   -9.3590   42.1840 C.2   1001  DTP1001     0.4393
     26  N6        -1.1510  -10.4320   41.3760 N.pl3 1001  DTP1001     0.2180
     27  N1        -1.8170   -8.1720   41.7170 N.2   1001  DTP1001     0.0021
     28  C2        -2.0150   -7.1060   42.5310 C.3   1001  DTP1001     0.5254
     29  N3        -1.7590   -7.1260   43.8580 N.2   1001  DTP1001    -0.0055
     30  C4        -1.2850   -8.2500   44.4540 C.2   1001  DTP1001     0.3518
@<TRIPOS>BOND
     1    26    25    1
     2    27    25    2
     3    27    28    1
     4    25    24    1
     5    28    29    1
     6    24    23    2
     7    24    30    1
     8    29    30    2
     9    23    22    1
    10    30    21    1
    11    22    21    1
    12    21    20    1
    13    20    19    1
    14    20    16    1
    15    19    17    1
    16    10     9    2
    17    16    15    1
    18    17    15    1
    19    17    18    1
    20    13     9    1
    21    13    14    1
    22    12     9    1
    23    12     5    1
    24     6     5    2
    25     9    11    1
    26    15    14    1
    27     2     1    2
    28     8     5    1
    29     8     1    1
    30     5     7    1
    31     1     3    1
    32     1     4    1
