@<TRIPOS>MOLECULE
4dto_DCP_A_1.pdb
 28 29 0 0 0
SMALL
GASTEIGER

@<TRIPOS>ATOM
      1  N1         1.1350    7.7960   45.9160 N.am  1001  DCP1001    -0.1802
      2  C2         1.6070    6.8460   44.9770 C.1   1001  DCP1001     0.2756
      3  N3         1.7170    7.1730   43.6740 N.2   1001  DCP1001    -0.3024
      4  C4         1.3880    8.4140   43.2470 C.2   1001  DCP1001     0.2346
      5  C5         0.9340    9.3740   44.1470 C.2   1001  DCP1001     0.0687
      6  C6         0.8140    9.0400   45.5000 C.2   1001  DCP1001     0.0835
      7  O2         1.9180    5.6940   45.3440 O.2   1001  DCP1001    -0.1925
      8  N4         1.5090    8.6980   41.9280 N.pl3 1001  DCP1001    -0.0921
      9  C1'        1.0650    7.4120   47.3340 C.3   1001  DCP1001     0.2090
     10  C2'        2.5010    7.4800   47.8720 C.3   1001  DCP1001     0.0874
     11  C3'        2.5860    8.7960   48.6060 C.3   1001  DCP1001     0.1857
     12  C4'        1.1740    8.8750   49.1500 C.3   1001  DCP1001     0.1773
     13  O4'        0.3320    8.3590   48.1060 O.3   1001  DCP1001    -0.3339
     14  O3'        3.6030    8.8030   49.6210 O.3   1001  DCP1001    -0.2203
     15  C5'        0.7350   10.2800   49.5350 C.3   1001  DCP1001     0.1812
     16  O5'        0.9200   11.1770   48.4400 O.3   1001  DCP1001    -0.3112
     17  PA         0.9200   12.7550   48.7570 P.3   1001  DCP1001     0.2189
     18  O1A        0.4100   13.5120   47.5910 O.2   1001  DCP1001    -0.5170
     19  O2A        0.2960   12.9970   50.1180 O.3   1001  DCP1001    -0.4371
     20  O3A        2.4670   13.1580   48.9200 O.3   1001  DCP1001    -0.2700
     21  PB         3.6230   12.4500   49.7820 P.3   1001  DCP1001     0.2277
     22  O1B        4.2860   11.4010   48.9260 O.2   1001  DCP1001    -0.5168
     23  O2B        3.2550   12.0890   51.2030 O.3   1001  DCP1001    -0.4368
     24  O3B        4.6630   13.6800   49.8350 O.3   1001  DCP1001    -0.2258
     25  PG         4.5320   15.0420   50.7040 P.3   1001  DCP1001     0.5373
     26  O1G        4.4100   16.0820   49.6220 O.2   1001  DCP1001    -0.2221
     27  O2G        5.8480   15.0660   51.4240 O.3   1001  DCP1001    -0.1143
     28  O3G        3.3450   14.8990   51.6250 O.3   1001  DCP1001    -0.1143
@<TRIPOS>BOND
     1     8     4    1
     2     4     3    2
     3     4     5    1
     4     3     2    2
     5     5     6    2
     6     2     7    2
     7     2     1   am
     8     6     1    1
     9     1     9    1
    10     9    10    1
    11     9    13    1
    12    18    17    2
    13    10    11    1
    14    13    12    1
    15    16    17    1
    16    16    15    1
    17    11    12    1
    18    11    14    1
    19    17    20    1
    20    17    19    1
    21    20    21    1
    22    22    21    2
    23    12    15    1
    24    26    25    2
    25    21    24    1
    26    21    23    1
    27    24    25    1
    28    25    27    1
    29    25    28    1
