@<TRIPOS>MOLECULE
4dtp_DGT_A_1.pdb
 31 33 0 0 0
SMALL
GASTEIGER

@<TRIPOS>ATOM
      1  PG         4.3370   14.9930  -14.7760 P.3   1001  DGT1001     0.5373
      2  O1G        3.0680   14.8170  -13.9690 O.3   1001  DGT1001    -0.1143
      3  O2G        5.5660   15.0670  -13.9180 O.3   1001  DGT1001    -0.1143
      4  O3G        4.2370   16.0050  -15.8830 O.2   1001  DGT1001    -0.2221
      5  O3B        4.5850   13.6500  -15.6510 O.3   1001  DGT1001    -0.2258
      6  PB         3.6990   12.3000  -15.6370 P.3   1001  DGT1001     0.2277
      7  O1B        3.2680   12.0010  -14.2180 O.3   1001  DGT1001    -0.4368
      8  O2B        4.5000   11.2770  -16.3820 O.2   1001  DGT1001    -0.5168
      9  O3A        2.4840   12.7260  -16.6000 O.3   1001  DGT1001    -0.2700
     10  PA         0.8880   12.6350  -16.3400 P.3   1001  DGT1001     0.2189
     11  O1A        0.5870   13.0400  -14.9230 O.3   1001  DGT1001    -0.4371
     12  O2A        0.3470   13.3610  -17.5260 O.2   1001  DGT1001    -0.5170
     13  O5'        0.5440   11.0720  -16.5550 O.3   1001  DGT1001    -0.3112
     14  C5'        0.7640   10.1010  -15.5400 C.3   1001  DGT1001     0.1812
     15  C4'        1.1830    8.7740  -16.1720 C.3   1001  DGT1001     0.1772
     16  O4'        0.2750    8.3770  -17.2120 O.3   1001  DGT1001    -0.3347
     17  C3'        2.5420    8.8270  -16.8430 C.3   1001  DGT1001     0.1857
     18  O3'        3.6500    8.7500  -15.9280 O.3   1001  DGT1001    -0.2203
     19  C2'        2.4400    7.6370  -17.7740 C.3   1001  DGT1001     0.0865
     20  C1'        0.9840    7.6990  -18.2450 C.3   1001  DGT1001     0.1981
     21  N9         1.0140    8.5230  -19.4780 N.pl3 1001  DGT1001    -0.2374
     22  C8         0.6830    9.8220  -19.6080 C.3   1001  DGT1001     0.2245
     23  N7         0.8890   10.2320  -20.8870 N.2   1001  DGT1001    -0.2322
     24  C5         1.3860    9.1910  -21.5780 C.2   1001  DGT1001     0.2182
     25  C6         1.8270    8.9270  -22.9630 C.1   1001  DGT1001     0.2372
     26  O6         1.7770    9.8290  -23.8100 O.2   1001  DGT1001    -0.2069
     27  N1         2.2710    7.7000  -23.2790 N.2   1001  DGT1001    -0.2485
     28  C2         2.3440    6.7080  -22.3730 C.1   1001  DGT1001     0.2531
     29  N2         2.8140    5.4940  -22.7600 N.pl3 1001  DGT1001    -0.0226
     30  N3         1.9550    6.8800  -21.0840 N.2   1001  DGT1001    -0.3074
     31  C4         1.4730    8.0690  -20.6450 C.2   1001  DGT1001     0.2299
@<TRIPOS>BOND
     1    26    25    2
     2    27    25    2
     3    27    28    2
     4    25    24    1
     5    29    28    1
     6    28    30    2
     7    24    23    2
     8    24    31    1
     9    30    31    2
    10    23    22    1
    11    31    21    1
    12    22    21    1
    13    21    20    1
    14    20    19    1
    15    20    16    1
    16    19    17    1
    17    12    10    2
    18    16    15    1
    19    17    15    1
    20    17    18    1
    21     9    10    1
    22     9     6    1
    23    13    10    1
    24    13    14    1
    25     8     6    2
    26    10    11    1
    27    15    14    1
    28     4     1    2
    29     5     6    1
    30     5     1    1
    31     6     7    1
    32     1     2    1
    33     1     3    1
