@<TRIPOS>MOLECULE
4dtr_DTP_A_1.pdb
 30 32 0 0 0
SMALL
GASTEIGER

@<TRIPOS>ATOM
      1  PG        -3.3690  -12.5680  -14.2720 P.3   1001  DTP1001     0.5373
      2  O1G       -2.0470  -12.3860  -13.5740 O.3   1001  DTP1001    -0.1143
      3  O2G       -4.6010  -12.5550  -13.4230 O.3   1001  DTP1001    -0.1143
      4  O3G       -3.3560  -13.7140  -15.2430 O.2   1001  DTP1001    -0.2221
      5  PB        -2.7080   -9.9150  -15.2240 P.3   1001  DTP1001     0.2277
      6  O1B       -3.5570   -8.8670  -15.9140 O.2   1001  DTP1001    -0.5168
      7  O2B       -2.1220   -9.5750  -13.8790 O.3   1001  DTP1001    -0.4368
      8  O3B       -3.6100  -11.2470  -15.1820 O.3   1001  DTP1001    -0.2258
      9  PA         0.0510  -10.3170  -16.2010 P.3   1001  DTP1001     0.2189
     10  O1A        0.5670  -11.0370  -17.4050 O.2   1001  DTP1001    -0.5170
     11  O2A        0.5360  -10.7160  -14.8350 O.3   1001  DTP1001    -0.4371
     12  O3A       -1.5680  -10.3850  -16.2670 O.3   1001  DTP1001    -0.2700
     13  O5'        0.3370   -8.7410  -16.4550 O.3   1001  DTP1001    -0.3112
     14  C5'        0.3250   -7.7250  -15.4610 C.3   1001  DTP1001     0.1813
     15  C4'       -0.1950   -6.4430  -16.1080 C.3   1001  DTP1001     0.1795
     16  O4'        0.6420   -6.0480  -17.2260 O.3   1001  DTP1001    -0.3155
     17  C3'       -1.5800   -6.5790  -16.7040 C.3   1001  DTP1001     0.1883
     18  O3'       -2.6700   -6.4870  -15.7730 O.3   1001  DTP1001    -0.2202
     19  C2'       -1.5780   -5.4430  -17.7160 C.3   1001  DTP1001     0.1151
     20  C1'       -0.1410   -5.4510  -18.2680 C.3   1001  DTP1001     0.2873
     21  N9        -0.1850   -6.3700  -19.4330 N.pl3 1001  DTP1001    -0.1460
     22  C8         0.2380   -7.6480  -19.4320 C.3   1001  DTP1001     0.3377
     23  N7         0.0290   -8.2320  -20.6340 N.2   1001  DTP1001    -0.2095
     24  C5        -0.5440   -7.3130  -21.4250 C.2   1001  DTP1001     0.2526
     25  C6        -1.0240   -7.3050  -22.8260 C.2   1001  DTP1001     0.4393
     26  N6        -0.9100   -8.4340  -23.5770 N.pl3 1001  DTP1001     0.2180
     27  N1        -1.5590   -6.1490  -23.2820 N.2   1001  DTP1001     0.0021
     28  C2        -1.6910   -5.0420  -22.4900 C.3   1001  DTP1001     0.5254
     29  N3        -1.2540   -4.9790  -21.2020 N.2   1001  DTP1001    -0.0055
     30  C4        -0.6840   -6.0790  -20.6280 C.2   1001  DTP1001     0.3518
@<TRIPOS>BOND
     1    26    25    1
     2    27    25    2
     3    27    28    1
     4    25    24    1
     5    28    29    1
     6    24    23    2
     7    24    30    1
     8    29    30    2
     9    23    22    1
    10    30    21    1
    11    21    22    1
    12    21    20    1
    13    20    19    1
    14    20    16    1
    15    19    17    1
    16    10     9    2
    17    16    15    1
    18    17    15    1
    19    17    18    1
    20    13     9    1
    21    13    14    1
    22    12     9    1
    23    12     5    1
    24     9    11    1
    25    15    14    1
    26     6     5    2
    27     4     1    2
    28     5     8    1
    29     5     7    1
    30     8     1    1
    31     1     2    1
    32     1     3    1
