@<TRIPOS>MOLECULE
4dts_DCP_A_1.pdb
 28 29 0 0 0
SMALL
GASTEIGER

@<TRIPOS>ATOM
      1  N1         0.4090    5.8950   45.8770 N.am  1001  DCP1001    -0.1802
      2  C2         0.8660    5.0050   44.8750 C.1   1001  DCP1001     0.2756
      3  N3         1.0100    5.4370   43.6160 N.2   1001  DCP1001    -0.3024
      4  C4         0.7230    6.7170   43.2970 C.2   1001  DCP1001     0.2346
      5  C5         0.2720    7.6160   44.2640 C.2   1001  DCP1001     0.0687
      6  C6         0.1160    7.1750   45.5830 C.2   1001  DCP1001     0.0835
      7  O2         1.1370    3.8190   45.1570 O.2   1001  DCP1001    -0.1925
      8  N4         0.8850    7.1070   42.0070 N.pl3 1001  DCP1001    -0.0921
      9  C1'        0.2940    5.3570   47.2310 C.3   1001  DCP1001     0.2090
     10  C2'        1.7080    5.3630   47.8180 C.3   1001  DCP1001     0.0874
     11  C3'        1.7140    6.6120   48.6740 C.3   1001  DCP1001     0.1857
     12  C4'        0.2830    6.5970   49.1840 C.3   1001  DCP1001     0.1773
     13  O4'       -0.4970    6.2150   48.0420 O.3   1001  DCP1001    -0.3339
     14  O3'        2.7190    6.5480   49.6950 O.3   1001  DCP1001    -0.2203
     15  C5'       -0.1920    7.9370   49.6750 C.3   1001  DCP1001     0.1812
     16  O5'        0.0730    8.8770   48.6440 O.3   1001  DCP1001    -0.3112
     17  PA         0.1290   10.4420   48.9810 P.3   1001  DCP1001     0.2189
     18  O1A       -0.2580   11.1900   47.7540 O.2   1001  DCP1001    -0.5170
     19  O2A       -0.5650   10.7190   50.2930 O.3   1001  DCP1001    -0.4371
     20  O3A        1.6800   10.7690   49.1770 O.3   1001  DCP1001    -0.2700
     21  PB         2.7790   10.0810   50.1100 P.3   1001  DCP1001     0.2277
     22  O1B        3.5020    9.0360   49.3050 O.2   1001  DCP1001    -0.5168
     23  O2B        2.3040    9.7240   51.4910 O.3   1001  DCP1001    -0.4368
     24  O3B        3.7660   11.3630   50.1640 O.3   1001  DCP1001    -0.2258
     25  PG         3.6340   12.6960   51.0850 P.3   1001  DCP1001     0.5373
     26  O1G        2.3630   12.5680   51.8800 O.3   1001  DCP1001    -0.1143
     27  O2G        4.9180   12.6030   51.8560 O.3   1001  DCP1001    -0.1143
     28  O3G        3.6010   13.8120   50.0870 O.2   1001  DCP1001    -0.2221
@<TRIPOS>BOND
     1     8     4    1
     2     4     3    2
     3     4     5    1
     4     3     2    2
     5     5     6    2
     6     2     7    2
     7     2     1   am
     8     6     1    1
     9     1     9    1
    10     9    10    1
    11     9    13    1
    12    18    17    2
    13    10    11    1
    14    13    12    1
    15    16    17    1
    16    16    15    1
    17    11    12    1
    18    11    14    1
    19    17    20    1
    20    17    19    1
    21    20    21    1
    22    12    15    1
    23    22    21    2
    24    28    25    2
    25    21    24    1
    26    21    23    1
    27    24    25    1
    28    25    27    1
    29    25    26    1
