@<TRIPOS>MOLECULE
4dtt_I41_A_1.pdb
 27 28 0 0 0
SMALL
GASTEIGER

@<TRIPOS>ATOM
      1  O04       85.5110  -67.0810    5.5240 O.2   1102  I411102    -0.2482
      2  C03       84.3500  -67.4840    5.5240 C.2   1102  I411102     0.3375
      3  O02       83.3140  -66.5280    5.9380 O.3   1102  I411102    -0.4432
      4  C01       83.2530  -65.2350    5.3210 C.3   1102  I411102     0.2557
      5  C05       84.0040  -68.8760    4.9850 C.3   1102  I411102     0.1994
      6  C06       83.8320  -70.1870    5.8310 C.3   1102  I411102     0.0801
      7  C07       83.8860  -70.2770    7.3630 C.2   1102  I411102     0.0769
      8  C08       83.3690  -71.3630    8.0870 C.2   1102  I411102     0.1098
      9  N09       83.5740  -71.2140    9.4250 N.2   1102  I411102    -0.2415
     10  C10       84.2780  -69.9530    9.6210 C.3   1102  I411102     0.2505
     11  N11       84.4450  -69.4140    8.2670 N.2   1102  I411102    -0.2470
     12  N12       84.8690  -69.1520    3.8020 N.am  1102  I411102    -0.1942
     13  C13       86.1660  -69.4890    3.5640 C.2   1102  I411102     0.2582
     14  O14       87.0380  -69.6700    4.3960 O.2   1102  I411102    -0.2718
     15  C15       86.5200  -69.5970    2.0800 C.3   1102  I411102     0.1609
     16  N16       86.9760  -70.8910    1.5200 N.3   1102  I411102    -0.2515
     17  C17       85.8850  -71.4960    0.6760 C.3   1102  I411102     0.1884
     18  C18       84.5700  -72.0690    1.2660 C.2   1102  I411102     0.3809
     19  O19       83.6350  -72.3020    0.4810 O.co2 1102  I411102    -0.2441
     20  O20       84.3800  -72.3270    2.4760 O.co2 1102  I411102    -0.2441
     21  C21       88.1100  -70.4570    0.6490 C.3   1102  I411102     0.0999
     22  C22       89.3540  -71.3280    0.4760 C.ar  1102  I411102    -0.0061
     23  C23       89.9020  -71.4540   -0.8190 C.ar  1102  I411102    -0.0029
     24  C24       91.0980  -72.2650   -1.1200 C.ar  1102  I411102    -0.0003
     25  C25       91.6680  -72.9150    0.0730 C.ar  1102  I411102    -0.0000
     26  C26       91.1090  -72.7620    1.3550 C.ar  1102  I411102    -0.0003
     27  C27       89.9630  -71.9760    1.5620 C.ar  1102  I411102    -0.0029
@<TRIPOS>BOND
     1    24    23   ar
     2    24    25   ar
     3    23    22   ar
     4    25    26   ar
     5    22    21    1
     6    22    27   ar
     7    19    18   ar
     8    21    16    1
     9    17    18    1
    10    17    16    1
    11    18    20   ar
    12    26    27   ar
    13    16    15    1
    14    15    13    1
    15    13    12   am
    16    13    14    2
    17    12     5    1
    18     5     2    1
    19     5     6    1
    20     4     3    1
    21     1     2    2
    22     2     3    1
    23     6     7    1
    24     7     8    1
    25     7    11    2
    26     8     9    2
    27    11    10    1
    28     9    10    1
