@<TRIPOS>MOLECULE
4dtu_DGT_A_1.pdb
 31 33 0 0 0
SMALL
GASTEIGER

@<TRIPOS>ATOM
      1  PG        -3.4020   12.6390  -50.9270 P.3   1001  DGT1001     0.5373
      2  O1G       -2.0520   12.4430  -51.5710 O.3   1001  DGT1001    -0.1143
      3  O2G       -4.6110   12.6220  -51.8160 O.2   1001  DGT1001    -0.2221
      4  O3G       -3.4380   13.7250  -49.8880 O.3   1001  DGT1001    -0.1143
      5  O3B       -3.6560   11.3110  -50.0340 O.3   1001  DGT1001    -0.2258
      6  PB        -2.7710    9.9600  -49.9660 P.3   1001  DGT1001     0.2277
      7  O1B       -3.6290    8.9440  -49.2440 O.3   1001  DGT1001    -0.4368
      8  O2B       -2.2450    9.5980  -51.3280 O.2   1001  DGT1001    -0.5168
      9  O3A       -1.6360   10.3580  -48.9210 O.3   1001  DGT1001    -0.2700
     10  PA        -0.0400   10.2600  -49.0610 P.3   1001  DGT1001     0.2189
     11  O1A        0.4930   11.0690  -47.9220 O.3   1001  DGT1001    -0.4371
     12  O2A        0.4020   10.5820  -50.4700 O.2   1001  DGT1001    -0.5170
     13  O5'        0.2680    8.7280  -48.7150 O.3   1001  DGT1001    -0.3112
     14  C5'        0.3020    7.7000  -49.7100 C.3   1001  DGT1001     0.1812
     15  C4'       -0.2160    6.4350  -49.0570 C.3   1001  DGT1001     0.1772
     16  O4'        0.5870    6.0800  -47.9110 O.3   1001  DGT1001    -0.3347
     17  C3'       -1.6310    6.5600  -48.5080 C.3   1001  DGT1001     0.1857
     18  O3'       -2.6720    6.4400  -49.4940 O.3   1001  DGT1001    -0.2203
     19  C2'       -1.6410    5.4420  -47.4770 C.3   1001  DGT1001     0.0865
     20  C1'       -0.2230    5.4800  -46.9060 C.3   1001  DGT1001     0.1981
     21  N9        -0.2990    6.3670  -45.7280 N.pl3 1001  DGT1001    -0.2374
     22  C8         0.0910    7.6610  -45.6400 C.3   1001  DGT1001     0.2245
     23  N7        -0.1850    8.1530  -44.4020 N.2   1001  DGT1001    -0.2322
     24  C5        -0.7560    7.1580  -43.6930 C.2   1001  DGT1001     0.2182
     25  C6        -1.2800    6.9970  -42.3220 C.1   1001  DGT1001     0.2372
     26  O6        -1.2490    7.9680  -41.5410 O.2   1001  DGT1001    -0.2069
     27  N1        -1.8060    5.8110  -41.9730 N.2   1001  DGT1001    -0.2485
     28  C2        -1.8500    4.7700  -42.8240 C.1   1001  DGT1001     0.2531
     29  N2        -2.3900    3.6030  -42.4080 N.pl3 1001  DGT1001    -0.0226
     30  N3        -1.3800    4.8440  -44.1030 N.2   1001  DGT1001    -0.3074
     31  C4        -0.8290    5.9900  -44.5680 C.2   1001  DGT1001     0.2299
@<TRIPOS>BOND
     1     3     1    2
     2     2     1    1
     3     8     6    2
     4     1     5    1
     5     1     4    1
     6    12    10    2
     7     5     6    1
     8     6     7    1
     9     6     9    1
    10    14    15    1
    11    14    13    1
    12    18    17    1
    13    10     9    1
    14    10    13    1
    15    10    11    1
    16    15    17    1
    17    15    16    1
    18    17    19    1
    19    16    20    1
    20    19    20    1
    21    20    21    1
    22    21    22    1
    23    21    31    1
    24    22    23    1
    25    31    30    2
    26    31    24    1
    27    23    24    2
    28    30    28    2
    29    24    25    1
    30    28    29    1
    31    28    27    2
    32    25    27    2
    33    25    26    2
