@<TRIPOS>MOLECULE
4dtw_SRO_A_1.pdb
 13 14 0 0 0
SMALL
GASTEIGER

@<TRIPOS>ATOM
      1  OH         0.8730  -54.9590   19.7350 O.2   501  SRO501     -0.2869
      2  CZ3        1.4320  -53.7110   19.9760 C.2   501  SRO501      0.1922
      3  CH2        2.5040  -53.5590   20.8990 C.2   501  SRO501      0.0429
      4  CZ2        3.1110  -52.3070   21.1700 C.2   501  SRO501      0.0186
      5  CE2        2.6100  -51.1780   20.5090 C.2   501  SRO501      0.0667
      6  NE1        2.9270  -49.8670   20.5050 N.2   501  SRO501     -0.2482
      7  CD1        2.1070  -49.1950   19.6230 C.2   501  SRO501      0.0907
      8  CG         1.1870  -50.0040   18.9310 C.2   501  SRO501     -0.0143
      9  CD2        1.4730  -51.3510   19.5110 C.3   501  SRO501      0.0851
     10  CE3        0.9160  -52.6080   19.3030 C.2   501  SRO501      0.0256
     11  CB         0.1450  -49.4840   17.9220 C.3   501  SRO501      0.0448
     12  CA        -0.3470  -50.3660   16.7600 C.3   501  SRO501      0.1137
     13  NZ        -0.1370  -49.9860   15.3450 N.3   501  SRO501     -0.1310
@<TRIPOS>BOND
     1    13    12    1
     2    12    11    1
     3    11     8    1
     4     8     9    1
     5     8     7    2
     6    10     9    1
     7    10     2    2
     8     9     5    1
     9     7     6    1
    10     1     2    1
    11     2     3    1
    12     6     5    2
    13     5     4    1
    14     3     4    2
