@<TRIPOS>MOLECULE
4dtw_HEM_A_1.pdb
 43 50 0 0 0
SMALL
GASTEIGER

@<TRIPOS>ATOM
      1  CHA       -2.2810  -52.5680   14.7430 C.2   500  HEM500      0.0000
      2  CHB        2.5430  -52.6170   14.4240 C.2   500  HEM500      0.0000
      3  CHC        2.2760  -48.2970   12.1450 C.2   500  HEM500      0.0000
      4  CHD       -2.5440  -48.0700   12.7820 C.2   500  HEM500      0.0000
      5  C1A       -1.0090  -52.9510   14.8310 C.2   500  HEM500      0.0000
      6  C2A       -0.5270  -54.2300   15.3990 C.2   500  HEM500      0.0000
      7  C3A        0.7850  -54.2160   15.3670 C.2   500  HEM500      0.0000
      8  C4A        1.2100  -52.9660   14.7100 C.2   500  HEM500      0.0000
      9  CMA        1.8330  -55.2950   15.8240 C.3   500  HEM500      0.0000
     10  CAA       -1.4610  -55.2870   15.9860 C.3   500  HEM500      0.0000
     11  CBA       -1.7110  -54.9460   17.4260 C.3   500  HEM500      0.0000
     12  CGA       -2.4000  -56.0540   18.2210 C.2   500  HEM500      0.0000
     13  O1A       -2.4490  -57.2620   17.8110 O.co2 500  HEM500      0.0000
     14  O2A       -2.8270  -55.7420   19.3810 O.co2 500  HEM500      0.0000
     15  C1B        2.7970  -51.4000   13.7840 C.ar  500  HEM500      0.0000
     16  C2B        4.0910  -51.0040   13.4100 C.ar  500  HEM500      0.0000
     17  C3B        4.0640  -49.8510   12.7890 C.ar  500  HEM500      0.0000
     18  C4B        2.6850  -49.4300   12.7600 C.ar  500  HEM500      0.0000
     19  CMB        5.3070  -51.9350   13.7600 C.3   500  HEM500      0.0000
     20  CAB        5.2200  -49.0290   12.2050 C.2   500  HEM500      0.0000
     21  CBB        6.3500  -49.5560   11.6780 C.2   500  HEM500      0.0000
     22  C1C        0.9760  -47.8390   12.0630 C.2   500  HEM500      0.0000
     23  C2C        0.4960  -46.6900   11.3830 C.2   500  HEM500      0.0000
     24  C3C       -0.8530  -46.6490   11.5730 C.2   500  HEM500      0.0000
     25  C4C       -1.2270  -47.7550   12.4000 C.2   500  HEM500      0.0000
     26  CMC        1.3860  -45.6850   10.6070 C.3   500  HEM500      0.0000
     27  CAC       -1.9350  -45.6320   11.1510 C.2   500  HEM500      0.0000
     28  CBC       -1.7050  -44.6070   10.3290 C.2   500  HEM500      0.0000
     29  C1D       -2.8290  -49.2530   13.4100 C.ar  500  HEM500      0.0000
     30  C2D       -4.1830  -49.5760   13.7690 C.ar  500  HEM500      0.0000
     31  C3D       -4.1950  -50.9690   14.2850 C.ar  500  HEM500      0.0000
     32  C4D       -2.7720  -51.3680   14.2060 C.ar  500  HEM500      0.0000
     33  CMD       -5.3500  -48.6080   13.5620 C.3   500  HEM500      0.0000
     34  CAD       -5.5080  -51.7060   14.7570 C.3   500  HEM500      0.0000
     35  CBD       -5.8370  -52.6440   13.5560 C.3   500  HEM500      0.0000
     36  CGD       -7.1200  -53.4080   13.8740 C.2   500  HEM500      0.0000
     37  O1D       -8.1840  -53.2520   13.2240 O.co2 500  HEM500      0.0000
     38  O2D       -7.0600  -54.1270   14.8870 O.co2 500  HEM500      0.0000
     39  NA         0.1140  -52.1860   14.4480 N.2   500  HEM500      0.0000
     40  NB         1.8810  -50.4120   13.3880 N.ar  500  HEM500      0.0000
     41  NC        -0.0900  -48.5230   12.6250 N.2   500  HEM500      0.0000
     42  ND        -1.9740  -50.3510   13.6860 N.ar  500  HEM500      0.0000
     43 FE         -0.0180  -50.4020   13.4630 Fe    500  HEM500      0.0000
@<TRIPOS>BOND
     1    28    27    2
     2    26    23    1
     3    27    24    1
     4    23    24    2
     5    23    22    1
     6    24    25    1
     7    21    20    2
     8    22     3    2
     9    22    41    1
    10     3    18    1
    11    20    17    1
    12    25    41    2
    13    25     4    1
    14    41    43    1
    15    18    17   ar
    16    18    40   ar
    17     4    29    2
    18    17    16   ar
    19    37    36   ar
    20    40    43    1
    21    40    15   ar
    22    29    42   ar
    23    29    30   ar
    24    16    19    1
    25    16    15   ar
    26    43    42    1
    27    43    39    1
    28    35    36    1
    29    35    34    1
    30    33    30    1
    31    42    32   ar
    32    30    31   ar
    33    15     2    1
    34    36    38   ar
    35    32    31   ar
    36    32     1    2
    37    31    34    1
    38     2     8    2
    39    39     8    1
    40    39     5    2
    41     8     7    1
    42     1     5    1
    43     5     6    1
    44     7     6    2
    45     7     9    1
    46     6    10    1
    47    10    11    1
    48    11    12    1
    49    13    12   ar
    50    12    14   ar
