@<TRIPOS>MOLECULE
4dtx_TTP_A_1.pdb
 29 30 0 0 0
SMALL
GASTEIGER

@<TRIPOS>ATOM
      1  PA         0.0760   10.3580   49.5290 P.3   1001  TTP1001     0.2189
      2  O1A       -0.4120   11.1740   48.3650 O.2   1001  TTP1001    -0.5170
      3  O2A       -0.3810   10.7030   50.9330 O.3   1001  TTP1001    -0.4371
      4  O3A        1.6770   10.4520   49.4060 O.3   1001  TTP1001    -0.2700
      5  PB         2.8110   10.0070   50.4480 P.3   1001  TTP1001     0.2277
      6  O1B        3.6590    9.0110   49.6830 O.2   1001  TTP1001    -0.5168
      7  O2B        2.2960    9.6240   51.8090 O.3   1001  TTP1001    -0.4368
      8  O3B        3.7100   11.3370   50.5590 O.3   1001  TTP1001    -0.2258
      9  PG         3.4930   12.6770   51.4230 P.3   1001  TTP1001     0.5373
     10  O1G        2.1710   12.5170   52.1430 O.3   1001  TTP1001    -0.1143
     11  O2G        4.7460   12.6460   52.2530 O.3   1001  TTP1001    -0.1143
     12  O3G        3.4860   13.7690   50.3850 O.2   1001  TTP1001    -0.2221
     13  O5'       -0.2300    8.8420   49.1190 O.3   1001  TTP1001    -0.3112
     14  C5'       -0.2750    7.7990   50.0930 C.3   1001  TTP1001     0.1812
     15  C4'        0.2390    6.5280   49.4680 C.3   1001  TTP1001     0.1773
     16  O4'       -0.5440    6.2010   48.3020 O.3   1001  TTP1001    -0.3339
     17  C3'        1.6760    6.5940   48.9550 C.3   1001  TTP1001     0.1857
     18  O3'        2.6780    6.4400   49.9820 O.3   1001  TTP1001    -0.2203
     19  C2'        1.6510    5.4310   47.9840 C.3   1001  TTP1001     0.0874
     20  C1'        0.2530    5.5150   47.3470 C.3   1001  TTP1001     0.2090
     21  N1         0.3700    6.3100   46.1150 N.am  1001  TTP1001    -0.1794
     22  C2         0.7970    5.6620   44.9300 C.1   1001  TTP1001     0.2844
     23  O2         1.0450    4.4420   44.9590 O.2   1001  TTP1001    -0.1918
     24  N3         0.9620    6.3410   43.7830 N.2   1001  TTP1001    -0.2455
     25  C4         0.7240    7.6560   43.7210 C.1   1001  TTP1001     0.2134
     26  O4         0.8830    8.2680   42.6400 O.2   1001  TTP1001    -0.2088
     27  C5         0.2740    8.3690   44.9450 C.2   1001  TTP1001     0.0891
     28  C5M       -0.0070    9.8530   44.9500 C.3   1001  TTP1001     0.0462
     29  C6         0.1160    7.6350   46.1130 C.2   1001  TTP1001     0.0877
@<TRIPOS>BOND
     1    26    25    2
     2    25    24    2
     3    25    27    1
     4    24    22    2
     5    22    23    2
     6    22    21   am
     7    27    28    1
     8    27    29    2
     9    29    21    1
    10    21    20    1
    11    20    19    1
    12    20    16    1
    13    19    17    1
    14    16    15    1
    15     2     1    2
    16    17    15    1
    17    17    18    1
    18    13     1    1
    19    13    14    1
    20     4     1    1
    21     4     5    1
    22    15    14    1
    23     1     3    1
    24     6     5    2
    25    12     9    2
    26     5     8    1
    27     5     7    1
    28     8     9    1
    29     9    10    1
    30     9    11    1
