@<TRIPOS>MOLECULE
4dty_HEM_A_1.pdb
 43 50 0 0 0
SMALL
GASTEIGER

@<TRIPOS>ATOM
      1  CHA       -2.1680  -52.3780   14.7860 C.2   500  HEM500      0.0000
      2  CHB        2.6690  -52.3340   14.3970 C.2   500  HEM500      0.0000
      3  CHC        2.4400  -48.1610   11.9590 C.2   500  HEM500      0.0000
      4  CHD       -2.3210  -47.8800   12.7560 C.2   500  HEM500      0.0000
      5  C1A       -0.8450  -52.7490   14.8470 C.2   500  HEM500      0.0000
      6  C2A       -0.3310  -53.9600   15.3920 C.2   500  HEM500      0.0000
      7  C3A        0.9760  -53.9840   15.2760 C.2   500  HEM500      0.0000
      8  C4A        1.3650  -52.7360   14.6430 C.2   500  HEM500      0.0000
      9  CMA        2.0580  -54.9760   15.7510 C.3   500  HEM500      0.0000
     10  CAA       -1.2610  -54.9990   16.0120 C.3   500  HEM500      0.0000
     11  CBA       -1.4550  -54.7530   17.4940 C.3   500  HEM500      0.0000
     12  CGA       -2.1650  -55.8970   18.3220 C.2   500  HEM500      0.0000
     13  O1A       -2.2810  -57.0270   17.8990 O.co2 500  HEM500      0.0000
     14  O2A       -2.5410  -55.5340   19.4840 O.co2 500  HEM500      0.0000
     15  C1B        3.0670  -51.2030   13.6230 C.ar  500  HEM500      0.0000
     16  C2B        4.3630  -50.8940   13.2020 C.ar  500  HEM500      0.0000
     17  C3B        4.3190  -49.6830   12.5930 C.ar  500  HEM500      0.0000
     18  C4B        2.9370  -49.2450   12.5830 C.ar  500  HEM500      0.0000
     19  CMB        5.6280  -51.7420   13.4920 C.3   500  HEM500      0.0000
     20  CAB        5.3910  -48.8860   11.8620 C.2   500  HEM500      0.0000
     21  CBB        6.5660  -49.3860   11.4350 C.2   500  HEM500      0.0000
     22  C1C        1.1590  -47.7090   11.9010 C.2   500  HEM500      0.0000
     23  C2C        0.6080  -46.5840   11.2040 C.2   500  HEM500      0.0000
     24  C3C       -0.7080  -46.4930   11.4020 C.2   500  HEM500      0.0000
     25  C4C       -1.0340  -47.5780   12.2780 C.2   500  HEM500      0.0000
     26  CMC        1.4950  -45.6740   10.3590 C.3   500  HEM500      0.0000
     27  CAC       -1.7560  -45.4620   10.9930 C.2   500  HEM500      0.0000
     28  CBC       -1.4430  -44.5290   10.0880 C.2   500  HEM500      0.0000
     29  C1D       -2.7240  -49.0680   13.3330 C.ar  500  HEM500      0.0000
     30  C2D       -4.0460  -49.4310   13.7310 C.ar  500  HEM500      0.0000
     31  C3D       -3.9780  -50.7650   14.2230 C.ar  500  HEM500      0.0000
     32  C4D       -2.6310  -51.1920   14.3070 C.ar  500  HEM500      0.0000
     33  CMD       -5.3050  -48.5330   13.5050 C.3   500  HEM500      0.0000
     34  CAD       -5.2070  -51.5500   14.6900 C.3   500  HEM500      0.0000
     35  CBD       -5.7660  -52.4280   13.4650 C.3   500  HEM500      0.0000
     36  CGD       -7.0170  -53.2150   13.8670 C.2   500  HEM500      0.0000
     37  O1D       -8.0610  -53.1430   13.1370 O.co2 500  HEM500      0.0000
     38  O2D       -6.8430  -53.8990   14.9390 O.co2 500  HEM500      0.0000
     39  NA         0.2060  -52.0050   14.4020 N.2   500  HEM500      0.0000
     40  NB         2.2060  -50.1840   13.2180 N.ar  500  HEM500      0.0000
     41  NC         0.1280  -48.3420   12.5180 N.2   500  HEM500      0.0000
     42  ND        -1.8360  -50.1210   13.7290 N.ar  500  HEM500      0.0000
     43 FE          0.1620  -50.2220   13.3380 Fe    500  HEM500      0.0000
@<TRIPOS>BOND
     1    28    27    2
     2    26    23    1
     3    27    24    1
     4    23    24    2
     5    23    22    1
     6    24    25    1
     7    21    20    2
     8    20    17    1
     9    22     3    2
    10    22    41    1
    11     3    18    1
    12    25    41    2
    13    25     4    1
    14    41    43    1
    15    18    17   ar
    16    18    40   ar
    17    17    16   ar
    18     4    29    2
    19    37    36   ar
    20    16    19    1
    21    16    15   ar
    22    40    43    1
    23    40    15   ar
    24    29    42   ar
    25    29    30   ar
    26    43    42    1
    27    43    39    1
    28    35    36    1
    29    35    34    1
    30    33    30    1
    31    15     2    1
    32    42    32   ar
    33    30    31   ar
    34    36    38   ar
    35    31    32   ar
    36    31    34    1
    37    32     1    2
    38     2     8    2
    39    39     8    1
    40    39     5    2
    41     8     7    1
    42     1     5    1
    43     5     6    1
    44     7     6    2
    45     7     9    1
    46     6    10    1
    47    10    11    1
    48    11    12    1
    49    13    12   ar
    50    12    14   ar
