@<TRIPOS>MOLECULE
4dtz_LDP_A_1.pdb
 11 11 0 0 0
SMALL
GASTEIGER

@<TRIPOS>ATOM
      1  C7         0.3280   -0.6820   17.7470 C.3   501  LDP501      0.0469
      2  C1         1.0560   -1.6800   18.6100 C.ar  501  LDP501     -0.0173
      3  C4         2.4900   -3.5460   20.2640 C.ar  501  LDP501      0.2342
      4  C2         0.7600   -3.0580   18.5160 C.ar  501  LDP501      0.0412
      5  C6         2.0090   -1.2640   19.5420 C.ar  501  LDP501     -0.0007
      6  C5         2.7700   -2.1970   20.3360 C.ar  501  LDP501      0.0451
      7  C3         1.4690   -3.9600   19.3310 C.ar  501  LDP501      0.2339
      8  O1         1.1940   -5.3170   19.2710 O.3   501  LDP501     -0.2832
      9  O2         3.1090   -4.4520   21.0720 O.3   501  LDP501     -0.2831
     10  C8         1.0270   -0.8390   16.3690 C.3   501  LDP501      0.1140
     11  N1         0.1960   -0.3140   15.3580 N.3   501  LDP501     -0.1310
@<TRIPOS>BOND
     1    11    10    1
     2    10     1    1
     3     1     2    1
     4     4     2   ar
     5     4     7   ar
     6     2     5   ar
     7     8     7    1
     8     7     3   ar
     9     5     6   ar
    10     3     6   ar
    11     3     9    1
