@<TRIPOS>MOLECULE
4dtz_HEM_A_1.pdb
 43 50 0 0 0
SMALL
GASTEIGER

@<TRIPOS>ATOM
      1  CHA       -2.3510   -3.3780   14.5780 C.2   500  HEM500      0.0000
      2  CHB        2.4870   -3.3930   14.1000 C.2   500  HEM500      0.0000
      3  CHC        2.2690    0.9320   11.9630 C.2   500  HEM500      0.0000
      4  CHD       -2.4650    1.0680   12.7520 C.2   500  HEM500      0.0000
      5  C1A       -1.0710   -3.7880   14.6240 C.2   500  HEM500      0.0000
      6  C2A       -0.5520   -5.0020   15.2630 C.2   500  HEM500      0.0000
      7  C3A        0.8100   -5.0100   15.0930 C.2   500  HEM500      0.0000
      8  C4A        1.1650   -3.7390   14.4530 C.2   500  HEM500      0.0000
      9  CMA        1.8710   -6.0610   15.5730 C.3   500  HEM500      0.0000
     10  CAA       -1.3840   -6.1330   15.8290 C.3   500  HEM500      0.0000
     11  CBA       -1.6660   -5.7990   17.2770 C.3   500  HEM500      0.0000
     12  CGA       -2.3980   -6.9380   17.9950 C.2   500  HEM500      0.0000
     13  O1A       -2.5420   -8.0880   17.5390 O.co2 500  HEM500      0.0000
     14  O2A       -2.8440   -6.6170   19.1400 O.co2 500  HEM500      0.0000
     15  C1B        2.8030   -2.1710   13.5130 C.ar  500  HEM500      0.0000
     16  C2B        4.1260   -1.8740   13.0480 C.ar  500  HEM500      0.0000
     17  C3B        4.1080   -0.6200   12.4990 C.ar  500  HEM500      0.0000
     18  C4B        2.7600   -0.1770   12.5000 C.ar  500  HEM500      0.0000
     19  CMB        5.4190   -2.6810   13.2720 C.3   500  HEM500      0.0000
     20  CAB        5.1910    0.1990   11.8880 C.2   500  HEM500      0.0000
     21  CBB        6.4340   -0.1780   11.4450 C.2   500  HEM500      0.0000
     22  C1C        0.9540    1.3190   12.0080 C.2   500  HEM500      0.0000
     23  C2C        0.3960    2.5260   11.2600 C.2   500  HEM500      0.0000
     24  C3C       -0.9350    2.5700   11.5200 C.2   500  HEM500      0.0000
     25  C4C       -1.2180    1.3720   12.2990 C.2   500  HEM500      0.0000
     26  CMC        1.3030    3.5330   10.4550 C.3   500  HEM500      0.0000
     27  CAC       -2.0000    3.6020   11.1000 C.2   500  HEM500      0.0000
     28  CBC       -1.8220    4.7500   10.4300 C.2   500  HEM500      0.0000
     29  C1D       -2.8360   -0.1220   13.3090 C.ar  500  HEM500      0.0000
     30  C2D       -4.1820   -0.4380   13.6950 C.ar  500  HEM500      0.0000
     31  C3D       -4.1710   -1.7880   14.1210 C.ar  500  HEM500      0.0000
     32  C4D       -2.7900   -2.1740   14.1540 C.ar  500  HEM500      0.0000
     33  CMD       -5.4360    0.4100   13.6010 C.3   500  HEM500      0.0000
     34  CAD       -5.3730   -2.6510   14.6340 C.3   500  HEM500      0.0000
     35  CBD       -5.9620   -3.3520   13.3780 C.3   500  HEM500      0.0000
     36  CGD       -7.2090   -4.2480   13.6820 C.2   500  HEM500      0.0000
     37  O1D       -8.2860   -4.0950   12.9660 O.co2 500  HEM500      0.0000
     38  O2D       -7.0470   -4.9590   14.6890 O.co2 500  HEM500      0.0000
     39  NA         0.0380   -3.0200   14.2100 N.2   500  HEM500      0.0000
     40  NB         1.9470   -1.1310   13.1090 N.ar  500  HEM500      0.0000
     41  NC        -0.0830    0.6540   12.5770 N.2   500  HEM500      0.0000
     42  ND        -1.9670   -1.1430   13.6630 N.ar  500  HEM500      0.0000
     43 FE         -0.0370   -1.1940   13.3410 Fe    500  HEM500      0.0000
@<TRIPOS>BOND
     1    28    27    2
     2    26    23    1
     3    27    24    1
     4    23    24    2
     5    23    22    1
     6    21    20    2
     7    24    25    1
     8    20    17    1
     9     3    22    2
    10     3    18    1
    11    22    41    1
    12    25    41    2
    13    25     4    1
    14    17    18   ar
    15    17    16   ar
    16    18    40   ar
    17    41    43    1
    18     4    29    2
    19    37    36   ar
    20    16    19    1
    21    16    15   ar
    22    40    43    1
    23    40    15   ar
    24    29    42   ar
    25    29    30   ar
    26    43    42    1
    27    43    39    1
    28    35    36    1
    29    35    34    1
    30    15     2    1
    31    33    30    1
    32    42    32   ar
    33    36    38   ar
    34    30    31   ar
    35     2     8    2
    36    31    32   ar
    37    31    34    1
    38    32     1    2
    39    39     8    1
    40    39     5    2
    41     8     7    1
    42     1     5    1
    43     5     6    1
    44     7     6    2
    45     7     9    1
    46     6    10    1
    47    10    11    1
    48    11    12    1
    49    13    12   ar
    50    12    14   ar
