@<TRIPOS>MOLECULE
4du1_DTP_A_1.pdb
 30 32 0 0 0
SMALL
GASTEIGER

@<TRIPOS>ATOM
      1  PG        -3.4240   12.6560  -50.8370 P.3   1001  DTP1001     0.5373
      2  O1G       -2.1550   12.5650  -51.6440 O.2   1001  DTP1001    -0.2221
      3  O2G       -4.7040   12.6720  -51.6260 O.3   1001  DTP1001    -0.1143
      4  O3G       -3.3950   13.7100  -49.7770 O.3   1001  DTP1001    -0.1143
      5  PB        -2.4450   10.0840  -50.0150 P.3   1001  DTP1001     0.2277
      6  O1B       -2.0440    9.7620  -51.4340 O.2   1001  DTP1001    -0.5168
      7  O2B       -2.9670    8.9940  -49.1190 O.3   1001  DTP1001    -0.4368
      8  O3B       -3.5700   11.2320  -50.0460 O.3   1001  DTP1001    -0.2258
      9  PA         0.1140   10.4400  -48.6480 P.3   1001  DTP1001     0.2189
     10  O1A        1.2540   10.7700  -49.5670 O.2   1001  DTP1001    -0.5170
     11  O2A        0.0900   11.0620  -47.2780 O.3   1001  DTP1001    -0.4371
     12  O3A       -1.2500   10.9220  -49.3450 O.3   1001  DTP1001    -0.2700
     13  O5'       -0.0030    8.8500  -48.4350 O.3   1001  DTP1001    -0.3112
     14  C5'        0.4260    7.8820  -49.3960 C.3   1001  DTP1001     0.1813
     15  C4'       -0.1090    6.5200  -48.9640 C.3   1001  DTP1001     0.1795
     16  O4'        0.6530    6.0150  -47.8500 O.3   1001  DTP1001    -0.3155
     17  C3'       -1.5450    6.5530  -48.4600 C.3   1001  DTP1001     0.1883
     18  O3'       -2.5610    6.5230  -49.4740 O.3   1001  DTP1001    -0.2202
     19  C2'       -1.5970    5.3230  -47.5730 C.3   1001  DTP1001     0.1151
     20  C1'       -0.2120    5.3320  -46.9250 C.3   1001  DTP1001     0.2873
     21  N9        -0.3510    6.0950  -45.6540 N.pl3 1001  DTP1001    -0.1460
     22  C8         0.0130    7.3700  -45.4510 C.3   1001  DTP1001     0.3377
     23  N7        -0.2670    7.7790  -44.1990 N.2   1001  DTP1001    -0.2095
     24  C5        -0.8440    6.7440  -43.5680 C.2   1001  DTP1001     0.2526
     25  C6        -1.3840    6.5000  -42.2130 C.2   1001  DTP1001     0.4393
     26  N6        -1.3610    7.4920  -41.2820 N.pl3 1001  DTP1001     0.2180
     27  N1        -1.9170    5.2740  -41.9580 N.2   1001  DTP1001     0.0021
     28  C2        -1.9410    4.2950  -42.8880 C.3   1001  DTP1001     0.5254
     29  N3        -1.4510    4.4530  -44.1420 N.2   1001  DTP1001    -0.0055
     30  C4        -0.9000    5.6330  -44.5310 C.2   1001  DTP1001     0.3518
@<TRIPOS>BOND
     1     2     1    2
     2     3     1    1
     3     6     5    2
     4     1     8    1
     5     1     4    1
     6     8     5    1
     7     5    12    1
     8     5     7    1
     9    10     9    2
    10    18    17    1
    11    14    15    1
    12    14    13    1
    13    12     9    1
    14    15    17    1
    15    15    16    1
    16     9    13    1
    17     9    11    1
    18    17    19    1
    19    16    20    1
    20    19    20    1
    21    20    21    1
    22    21    22    1
    23    21    30    1
    24    22    23    1
    25    30    29    2
    26    30    24    1
    27    23    24    2
    28    29    28    1
    29    24    25    1
    30    28    27    1
    31    25    27    2
    32    25    26    1
