@<TRIPOS>MOLECULE
4du2_LDP_A_1.pdb
 11 11 0 0 0
SMALL
GASTEIGER

@<TRIPOS>ATOM
      1  C7        -8.9070   50.3850   15.9160 C.3   501  LDP501      0.0469
      2  C1        -9.6790   51.4010   16.7690 C.ar  501  LDP501     -0.0173
      3  C4       -11.0860   53.3040   18.3070 C.ar  501  LDP501      0.2342
      4  C2        -9.4570   52.7800   16.5590 C.ar  501  LDP501      0.0412
      5  C6       -10.6260   50.9870   17.7270 C.ar  501  LDP501     -0.0007
      6  C5       -11.3430   51.9240   18.5020 C.ar  501  LDP501      0.0451
      7  C3       -10.1200   53.7530   17.2890 C.ar  501  LDP501      0.2339
      8  O1        -9.9160   55.1130   17.1200 O.3   501  LDP501     -0.2832
      9  O2       -11.7120   54.2680   19.0230 O.3   501  LDP501     -0.2831
     10  C8        -9.4630   50.4550   14.5230 C.3   501  LDP501      0.1140
     11  N1        -8.6240   49.8520   13.4900 N.3   501  LDP501     -0.1310
@<TRIPOS>BOND
     1    11    10    1
     2    10     1    1
     3     1     2    1
     4     4     2   ar
     5     4     7   ar
     6     2     5   ar
     7     8     7    1
     8     7     3   ar
     9     5     6   ar
    10     3     6   ar
    11     3     9    1
