@<TRIPOS>MOLECULE
4du2_HEM_A_1.pdb
 43 50 0 0 0
SMALL
GASTEIGER

@<TRIPOS>ATOM
      1  CHA       -6.2590   52.8980   12.3910 C.2   500  HEM500      0.0000
      2  CHB      -11.1490   52.8540   12.1530 C.2   500  HEM500      0.0000
      3  CHC      -10.9490   48.2910   10.3680 C.2   500  HEM500      0.0000
      4  CHD       -6.1340   48.1990   11.0680 C.2   500  HEM500      0.0000
      5  C1A       -7.5920   53.3080   12.5160 C.2   500  HEM500      0.0000
      6  C2A       -8.0980   54.5570   13.0020 C.2   500  HEM500      0.0000
      7  C3A       -9.4470   54.4990   12.9450 C.2   500  HEM500      0.0000
      8  C4A       -9.8440   53.2440   12.3860 C.2   500  HEM500      0.0000
      9  CMA      -10.4920   55.5210   13.3410 C.3   500  HEM500      0.0000
     10  CAA       -7.2680   55.7280   13.5510 C.3   500  HEM500      0.0000
     11  CBA       -6.9400   55.4280   15.0170 C.3   500  HEM500      0.0000
     12  CGA       -6.1070   56.5980   15.5970 C.2   500  HEM500      0.0000
     13  O1A       -5.6030   56.5150   16.7770 O.co2 500  HEM500      0.0000
     14  O2A       -6.0010   57.6730   14.9430 O.co2 500  HEM500      0.0000
     15  C1B      -11.5260   51.6410   11.5960 C.ar  500  HEM500      0.0000
     16  C2B      -12.8740   51.1960   11.2310 C.ar  500  HEM500      0.0000
     17  C3B      -12.7880   49.9230   10.7200 C.ar  500  HEM500      0.0000
     18  C4B      -11.4040   49.5190   10.7960 C.ar  500  HEM500      0.0000
     19  CMB      -14.1220   52.0580   11.3260 C.3   500  HEM500      0.0000
     20  CAB      -13.8360   48.9520   10.1620 C.2   500  HEM500      0.0000
     21  CBB      -15.0310   49.3940    9.7110 C.2   500  HEM500      0.0000
     22  C1C       -9.6210   47.8570   10.3360 C.2   500  HEM500      0.0000
     23  C2C       -9.0910   46.6360    9.7910 C.2   500  HEM500      0.0000
     24  C3C       -7.7240   46.6030    9.9850 C.2   500  HEM500      0.0000
     25  C4C       -7.3870   47.8270   10.6760 C.2   500  HEM500      0.0000
     26  CMC       -9.9150   45.5350    9.0870 C.3   500  HEM500      0.0000
     27  CAC       -6.6980   45.5000    9.5940 C.2   500  HEM500      0.0000
     28  CBC       -6.9720   44.4240    8.8410 C.2   500  HEM500      0.0000
     29  C1D       -5.6900   49.4590   11.4760 C.ar  500  HEM500      0.0000
     30  C2D       -4.2810   49.8480   11.6710 C.ar  500  HEM500      0.0000
     31  C3D       -4.3650   51.2810   12.0620 C.ar  500  HEM500      0.0000
     32  C4D       -5.7990   51.6440   12.0920 C.ar  500  HEM500      0.0000
     33  CMD       -2.9440   49.0320   11.5870 C.3   500  HEM500      0.0000
     34  CAD       -3.1720   52.1990   12.4050 C.3   500  HEM500      0.0000
     35  CBD       -2.6830   52.7170   11.1060 C.3   500  HEM500      0.0000
     36  CGD       -1.4810   53.5870   11.3570 C.2   500  HEM500      0.0000
     37  O1D       -0.4700   53.3640   10.5960 O.co2 500  HEM500      0.0000
     38  O2D       -1.5620   54.5340   12.2450 O.co2 500  HEM500      0.0000
     39  NA        -8.6920   52.5660   12.1120 N.2   500  HEM500      0.0000
     40  NB       -10.7100   50.5750   11.3660 N.ar  500  HEM500      0.0000
     41  NC        -8.5660   48.5910   10.8490 N.2   500  HEM500      0.0000
     42  ND        -6.5440   50.5550   11.6640 N.ar  500  HEM500      0.0000
     43 FE         -8.5890   50.5880   11.4320 Fe    500  HEM500      0.0000
@<TRIPOS>BOND
     1    28    27    2
     2    26    23    1
     3    27    24    1
     4    21    20    2
     5    23    24    2
     6    23    22    1
     7    24    25    1
     8    20    17    1
     9    22     3    2
    10    22    41    1
    11     3    18    1
    12    37    36   ar
    13    25    41    2
    14    25     4    1
    15    17    18   ar
    16    17    16   ar
    17    18    40   ar
    18    41    43    1
    19     4    29    2
    20    35    36    1
    21    35    34    1
    22    16    19    1
    23    16    15   ar
    24    36    38   ar
    25    40    43    1
    26    40    15   ar
    27    43    42    1
    28    43    39    1
    29    29    42   ar
    30    29    30   ar
    31    33    30    1
    32    15     2    1
    33    42    32   ar
    34    30    31   ar
    35    31    32   ar
    36    31    34    1
    37    32     1    2
    38    39     8    1
    39    39     5    2
    40     2     8    2
    41     8     7    1
    42     1     5    1
    43     5     6    1
    44     7     6    2
    45     7     9    1
    46     6    10    1
    47    10    11    1
    48    14    12   ar
    49    11    12    1
    50    12    13   ar
