@<TRIPOS>MOLECULE
4du3_DTP_A_1.pdb
 30 32 0 0 0
SMALL
GASTEIGER

@<TRIPOS>ATOM
      1  PG         3.5510   12.7380   50.9000 P.3   1001  DTP1001     0.5373
      2  O1G        2.2930   12.6630   51.7250 O.3   1001  DTP1001    -0.1143
      3  O2G        4.8470   12.6330   51.6730 O.3   1001  DTP1001    -0.1143
      4  O3G        3.5530   13.8440   49.8890 O.2   1001  DTP1001    -0.2221
      5  PB         2.5380   10.1840   50.0630 P.3   1001  DTP1001     0.2277
      6  O1B        3.0760    9.0830   49.1820 O.2   1001  DTP1001    -0.5168
      7  O2B        2.1640    9.8570   51.4830 O.3   1001  DTP1001    -0.4368
      8  O3B        3.6080   11.3740   50.0310 O.3   1001  DTP1001    -0.2258
      9  PA        -0.0340   10.4540   48.6270 P.3   1001  DTP1001     0.2189
     10  O1A       -0.0160   11.0880   47.2700 O.2   1001  DTP1001    -0.5170
     11  O2A       -1.1930   10.7530   49.5310 O.3   1001  DTP1001    -0.4371
     12  O3A        1.3120   10.9740   49.3640 O.3   1001  DTP1001    -0.2700
     13  O5'        0.1020    8.8610   48.4000 O.3   1001  DTP1001    -0.3112
     14  C5'       -0.2730    7.9360   49.4130 C.3   1001  DTP1001     0.1813
     15  C4'        0.2590    6.5770   49.0190 C.3   1001  DTP1001     0.1795
     16  O4'       -0.5160    6.0920   47.9160 O.3   1001  DTP1001    -0.3155
     17  C3'        1.6940    6.6190   48.5150 C.3   1001  DTP1001     0.1883
     18  O3'        2.7000    6.5360   49.5380 O.3   1001  DTP1001    -0.2202
     19  C2'        1.7270    5.4560   47.5540 C.3   1001  DTP1001     0.1151
     20  C1'        0.3340    5.4630   46.9440 C.3   1001  DTP1001     0.2873
     21  N9         0.4280    6.2480   45.6850 N.pl3 1001  DTP1001    -0.1460
     22  C8         0.0510    7.5310   45.5020 C.3   1001  DTP1001     0.3377
     23  N7         0.2980    7.9370   44.2340 N.2   1001  DTP1001    -0.2095
     24  C5         0.8670    6.9140   43.5800 C.2   1001  DTP1001     0.2526
     25  C6         1.3920    6.6720   42.2140 C.2   1001  DTP1001     0.4393
     26  N6         1.3520    7.6380   41.2600 N.pl3 1001  DTP1001     0.2180
     27  N1         1.9050    5.4440   41.9500 N.2   1001  DTP1001     0.0021
     28  C2         1.9560    4.4660   42.8800 C.3   1001  DTP1001     0.5254
     29  N3         1.4930    4.6260   44.1370 N.2   1001  DTP1001    -0.0055
     30  C4         0.9490    5.7990   44.5420 C.2   1001  DTP1001     0.3518
@<TRIPOS>BOND
     1    26    25    1
     2    27    25    2
     3    27    28    1
     4    25    24    1
     5    28    29    1
     6    24    23    2
     7    24    30    1
     8    29    30    2
     9    23    22    1
    10    30    21    1
    11    22    21    1
    12    21    20    1
    13    20    19    1
    14    20    16    1
    15    10     9    2
    16    19    17    1
    17    16    15    1
    18    13     9    1
    19    13    14    1
    20    17    15    1
    21    17    18    1
    22     9    12    1
    23     9    11    1
    24    15    14    1
    25     6     5    2
    26    12     5    1
    27     4     1    2
    28     8     5    1
    29     8     1    1
    30     5     7    1
    31     1     3    1
    32     1     2    1
