@<TRIPOS>MOLECULE
4du4_DTP_A_1.pdb
 30 32 0 0 0
SMALL
GASTEIGER

@<TRIPOS>ATOM
      1  PG         3.9890   14.9630   50.5150 P.3   1001  DTP1001     0.5373
      2  O1G        2.7950   14.9760   51.4240 O.3   1001  DTP1001    -0.1143
      3  O2G        5.3090   14.9770   51.2120 O.3   1001  DTP1001    -0.1143
      4  O3G        3.8660   15.8760   49.3160 O.2   1001  DTP1001    -0.2221
      5  PB         3.0570   12.2730   49.9770 P.3   1001  DTP1001     0.2277
      6  O1B        3.6250   11.2520   49.0340 O.2   1001  DTP1001    -0.5168
      7  O2B        2.9500   11.9210   51.4360 O.3   1001  DTP1001    -0.4368
      8  O3B        4.0460   13.5210   49.7960 O.3   1001  DTP1001    -0.2258
      9  PA         0.4100   12.4700   48.6580 P.3   1001  DTP1001     0.2189
     10  O1A        0.5370   13.0830   47.2910 O.2   1001  DTP1001    -0.5170
     11  O2A       -0.8370   12.8140   49.4140 O.3   1001  DTP1001    -0.4371
     12  O3A        1.6520   12.9370   49.5710 O.3   1001  DTP1001    -0.2700
     13  O5'        0.5200   10.8750   48.4770 O.3   1001  DTP1001    -0.3112
     14  C5'        0.4170    9.9650   49.5520 C.3   1001  DTP1001     0.1813
     15  C4'        0.8970    8.6090   49.0520 C.3   1001  DTP1001     0.1795
     16  O4'        0.0080    8.0910   48.0470 O.3   1001  DTP1001    -0.3155
     17  C3'        2.2500    8.6370   48.3720 C.3   1001  DTP1001     0.1883
     18  O3'        3.3700    8.6990   49.2660 O.3   1001  DTP1001    -0.2202
     19  C2'        2.1850    7.3600   47.5690 C.3   1001  DTP1001     0.1151
     20  C1'        0.7490    7.3890   47.0530 C.3   1001  DTP1001     0.2873
     21  N9         0.8130    8.1560   45.7820 N.pl3 1001  DTP1001    -0.1460
     22  C8         0.4470    9.4370   45.5660 C.3   1001  DTP1001     0.3377
     23  N7         0.7000    9.8130   44.2790 N.2   1001  DTP1001    -0.2095
     24  C5         1.2470    8.7550   43.6560 C.2   1001  DTP1001     0.2526
     25  C6         1.7360    8.4450   42.2950 C.2   1001  DTP1001     0.4393
     26  N6         1.6900    9.3810   41.3210 N.pl3 1001  DTP1001     0.2180
     27  N1         2.2420    7.2020   42.0670 N.2   1001  DTP1001     0.0021
     28  C2         2.2960    6.2500   43.0220 C.3   1001  DTP1001     0.5254
     29  N3         1.8680    6.4640   44.2790 N.2   1001  DTP1001    -0.0055
     30  C4         1.3320    7.6670   44.6470 C.2   1001  DTP1001     0.3518
@<TRIPOS>BOND
     1    26    25    1
     2    27    25    2
     3    27    28    1
     4    25    24    1
     5    28    29    1
     6    24    23    2
     7    24    30    1
     8    29    30    2
     9    23    22    1
    10    30    21    1
    11    22    21    1
    12    21    20    1
    13    20    19    1
    14    20    16    1
    15    10     9    2
    16    19    17    1
    17    16    15    1
    18    17    15    1
    19    17    18    1
    20    13     9    1
    21    13    14    1
    22     9    11    1
    23     9    12    1
    24     6     5    2
    25    15    14    1
    26     4     1    2
    27    12     5    1
    28     8     5    1
    29     8     1    1
    30     5     7    1
    31     1     3    1
    32     1     2    1
