@<TRIPOS>MOLECULE
4du6_GTP_A_1.pdb
 32 34 0 0 0
SMALL
GASTEIGER

@<TRIPOS>ATOM
      1  PG       116.0640  -16.6900   -5.2810 P.3   301  GTP301      0.5373
      2  O1G      116.5320  -16.4520   -3.8630 O.3   301  GTP301     -0.1143
      3  O2G      116.0970  -15.3340   -5.9330 O.2   301  GTP301     -0.2221
      4  O3G      114.6600  -17.2410   -5.2910 O.3   301  GTP301     -0.1143
      5  O3B      117.0830  -17.7040   -6.0530 O.3   301  GTP301     -0.2258
      6  PB       117.4260  -19.2500   -5.6760 P.3   301  GTP301      0.2277
      7  O1B      118.9130  -19.5200   -5.8670 O.2   301  GTP301     -0.5168
      8  O2B      116.9840  -19.6420   -4.2880 O.3   301  GTP301     -0.4368
      9  O3A      116.5920  -20.1170   -6.7390 O.3   301  GTP301     -0.2700
     10  PA       117.0550  -20.3110   -8.2660 P.3   301  GTP301      0.2189
     11  O1A      117.5930  -19.0050   -8.7780 O.2   301  GTP301     -0.5170
     12  O2A      118.0730  -21.4250   -8.3920 O.3   301  GTP301     -0.4371
     13  O5'      115.6820  -20.6790   -9.0210 O.3   301  GTP301     -0.3112
     14  C5'      114.4370  -20.4520   -8.3890 C.3   301  GTP301      0.1813
     15  C4'      113.6550  -19.3790   -9.1250 C.3   301  GTP301      0.1799
     16  O4'      112.4040  -19.8780   -9.5550 O.3   301  GTP301     -0.3326
     17  C3'      113.3600  -18.1650   -8.2470 C.3   301  GTP301      0.2158
     18  O3'      113.9310  -17.0730   -8.9000 O.3   301  GTP301     -0.2175
     19  C2'      111.8430  -18.0380   -8.2180 C.3   301  GTP301      0.2310
     20  O2'      111.2820  -16.7540   -8.2340 O.3   301  GTP301     -0.2158
     21  C1'      111.4880  -18.8070   -9.4760 C.3   301  GTP301      0.2293
     22  N9       110.0890  -19.2350   -9.5590 N.pl3 301  GTP301     -0.2354
     23  C8       109.2100  -19.6620   -8.6000 C.3   301  GTP301      0.2246
     24  N7       108.0230  -19.9420   -9.1840 N.2   301  GTP301     -0.2322
     25  C5       108.1530  -19.6540  -10.5000 C.2   301  GTP301      0.2182
     26  C6       107.2900  -19.7350  -11.5680 C.1   301  GTP301      0.2372
     27  O6       106.1690  -20.1100  -11.3570 O.2   301  GTP301     -0.2069
     28  N1       107.7030  -19.3740  -12.8330 N.2   301  GTP301     -0.2485
     29  C2       108.9980  -18.9370  -13.0170 C.1   301  GTP301      0.2531
     30  N2       109.4460  -18.5910  -14.2070 N.pl3 301  GTP301     -0.0226
     31  N3       109.8510  -18.8610  -11.9590 N.2   301  GTP301     -0.3074
     32  C4       109.4350  -19.2160  -10.7350 C.2   301  GTP301      0.2300
@<TRIPOS>BOND
     1    30    29    1
     2    29    28    2
     3    29    31    2
     4    28    26    2
     5    31    32    2
     6    26    27    2
     7    26    25    1
     8    32    25    1
     9    32    22    1
    10    25    24    2
    11    22    21    1
    12    22    23    1
    13    16    21    1
    14    16    15    1
    15    21    19    1
    16    24    23    1
    17    15    14    1
    18    15    17    1
    19    13    14    1
    20    13    10    1
    21    18    17    1
    22    11    10    2
    23    12    10    1
    24    10     9    1
    25    17    19    1
    26    20    19    1
    27     9     6    1
    28     5     6    1
    29     5     1    1
    30     3     1    2
    31     7     6    2
    32     6     8    1
    33     4     1    1
    34     1     2    1
