@<TRIPOS>MOLECULE
4du7_DP6_A_1.pdb
 18 17 0 0 0
SMALL
GASTEIGER

@<TRIPOS>ATOM
      1  C3A      -12.8010  -23.2060   20.0490 C.3   401  DP6401      0.0336
      2  O1A      -17.9620  -18.9490   19.4780 O.2   401  DP6401     -0.5169
      3  O2A      -17.1190  -18.3860   21.7380 O.3   401  DP6401     -0.4370
      4  O3A      -15.0820  -23.3670   20.4100 O.3   401  DP6401     -0.2250
      5  O1B      -17.5050  -15.5560   18.2280 O.2   401  DP6401     -0.2221
      6  O2B      -15.9530  -14.6390   19.8670 O.3   401  DP6401     -0.1143
      7  O3B      -18.0900  -15.6510   20.6200 O.3   401  DP6401     -0.1143
      8  PB       -16.9580  -15.7320   19.6270 P.3   401  DP6401      0.5373
      9  O6       -16.2010  -17.0950   19.7480 O.3   401  DP6401     -0.2261
     10  PA       -16.7650  -18.4590   20.2770 P.3   401  DP6401      0.2230
     11  O5       -15.5390  -19.4140   20.0810 O.3   401  DP6401     -0.3137
     12  C5       -15.6030  -20.7450   19.7350 C.3   401  DP6401      0.1517
     13  C4       -14.2780  -21.3770   19.4430 C.3   401  DP6401      0.0635
     14  C3       -14.1560  -22.8620   19.5270 C.3   401  DP6401      0.1399
     15  C2       -14.3460  -23.4590   18.1660 C.3   401  DP6401      0.1444
     16  C1       -15.6960  -23.4840   17.5210 C.2   401  DP6401      0.3674
     17  O1       -15.7670  -23.4390   16.2620 O.co2 401  DP6401     -0.2456
     18  O2       -16.7620  -23.5610   18.2080 O.co2 401  DP6401     -0.2456
@<TRIPOS>BOND
     1    17    16   ar
     2    16    15    1
     3    16    18   ar
     4    15    14    1
     5     5     8    2
     6    13    14    1
     7    13    12    1
     8     2    10    2
     9    14     1    1
    10    14     4    1
    11     8     9    1
    12     8     6    1
    13     8     7    1
    14    12    11    1
    15     9    10    1
    16    11    10    1
    17    10     3    1
