@<TRIPOS>MOLECULE
4du8_2P0_A_1.pdb
 20 20 0 0 0
SMALL
GASTEIGER

@<TRIPOS>ATOM
      1  C         16.1060   23.4840   18.0520 C.2   401  2P0401      0.3825
      2  N         14.3540   22.9130   19.7640 N.am  401  2P0401     -0.2693
      3  O         16.9510   23.6540   18.9920 O.co2 401  2P0401     -0.2438
      4  CA        14.6290   23.1600   18.3480 C.3   401  2P0401      0.1791
      5  CB        13.7570   24.2550   17.8930 C.3   401  2P0401      0.0332
      6  CD        13.6020   24.0240   20.2760 C.3   401  2P0401      0.0940
      7  CG        12.9460   24.6710   19.0880 C.3   401  2P0401      0.0238
      8  OAB       14.4330   21.6840   21.7350 O.2   401  2P0401     -0.2721
      9  OAC       18.2660   15.8720   20.7160 O.3   401  2P0401     -0.1143
     10  OAD       18.1360   19.0450   19.6890 O.2   401  2P0401     -0.5169
     11  OAF       16.0250   14.9250   20.1310 O.3   401  2P0401     -0.1143
     12  OAG       17.3810   16.1370   18.4210 O.2   401  2P0401     -0.2221
     13  OAH       17.9020   18.3550   22.0810 O.3   401  2P0401     -0.4370
     14  CAK       15.5200   20.6230   19.9730 C.3   401  2P0401      0.2336
     15  OAM       16.1690   19.8990   21.0450 O.3   401  2P0401     -0.3038
     16  OAN       16.3000   17.4130   20.3560 O.3   401  2P0401     -0.2261
     17  CAP       14.7500   21.7350   20.5580 C.2   401  2P0401      0.2566
     18  PAS       16.9900   16.0640   19.9090 P.3   401  2P0401      0.5373
     19  PAT       17.1470   18.6750   20.7770 P.3   401  2P0401      0.2234
     20  OXT       16.5040   23.6000   16.8360 O.co2 401  2P0401     -0.2438
@<TRIPOS>BOND
     1    20     1   ar
     2     5     4    1
     3     5     7    1
     4     1     4    1
     5     1     3   ar
     6     4     2    1
     7    12    18    2
     8     7     6    1
     9    10    19    2
    10     2     6    1
    11     2    17   am
    12    18    11    1
    13    18    16    1
    14    18     9    1
    15    14    17    1
    16    14    15    1
    17    16    19    1
    18    17     8    2
    19    19    15    1
    20    19    13    1
