@<TRIPOS>MOLECULE
4du9_THP_A_1.pdb
 25 26 0 0 0
SMALL
GASTEIGER

@<TRIPOS>ATOM
      1  P2        17.9250   11.1270    4.8200 P.3   202  THP202      0.5327
      2  O4P       17.9510    9.6320    5.0430 O.2   202  THP202     -0.2224
      3  O5P       16.6940   11.8720    5.2430 O.3   202  THP202     -0.1145
      4  O6P       19.2010   11.8710    5.2810 O.3   202  THP202     -0.1145
      5  P1        21.1620   14.6980    0.9840 P.3   202  THP202      0.5326
      6  O1P       22.0790   15.1890   -0.1220 O.2   202  THP202     -0.2224
      7  O2P       21.7960   13.5190    1.7590 O.3   202  THP202     -0.1145
      8  O3P       20.5560   15.6290    1.8950 O.3   202  THP202     -0.1145
      9  O5'       17.9200   11.1180    3.2880 O.3   202  THP202     -0.2675
     10  C5'       17.9770   12.4500    2.6500 C.3   202  THP202      0.1857
     11  C4'       18.8380   12.4120    1.4190 C.3   202  THP202      0.1748
     12  O4'       18.5290   11.3510    0.5680 O.3   202  THP202     -0.3340
     13  C3'       18.7990   13.6950    0.5600 C.3   202  THP202      0.1600
     14  O3'       20.1260   13.9380    0.0100 O.3   202  THP202     -0.2700
     15  C2'       17.9250   13.2200   -0.5810 C.3   202  THP202      0.0847
     16  C1'       18.2040   11.6900   -0.7260 C.3   202  THP202      0.2089
     17  N1        16.8720   11.0430   -1.0740 N.am  202  THP202     -0.1794
     18  C2        16.5950   10.7810   -2.4150 C.1   202  THP202      0.2844
     19  O2        17.4110   11.0950   -3.3040 O.2   202  THP202     -0.1918
     20  N3        15.3980   10.2740   -2.8720 N.2   202  THP202     -0.2455
     21  C4        14.4690   10.0140   -1.9220 C.1   202  THP202      0.2134
     22  O4        13.4180    9.5790   -2.4180 O.2   202  THP202     -0.2088
     23  C5        14.7300   10.2540   -0.5050 C.2   202  THP202      0.0891
     24  C5M       13.6580    9.8710    0.5420 C.3   202  THP202      0.0462
     25  C6        15.9990   10.7330   -0.1000 C.2   202  THP202      0.0877
@<TRIPOS>BOND
     1    19    18    2
     2    20    18    2
     3    20    21    2
     4    22    21    2
     5    18    17   am
     6    21    23    1
     7    17    16    1
     8    17    25    1
     9    16    15    1
    10    16    12    1
    11    15    13    1
    12    23    25    2
    13    23    24    1
    14     6     5    2
    15    14    13    1
    16    14     5    1
    17    13    11    1
    18    12    11    1
    19     5     7    1
    20     5     8    1
    21    11    10    1
    22    10     9    1
    23     9     1    1
    24     1     2    2
    25     1     3    1
    26     1     4    1
