@<TRIPOS>MOLECULE
4dua_HEM_A_1.pdb
 43 50 0 0 0
SMALL
GASTEIGER

@<TRIPOS>ATOM
      1  CHA        2.9100    2.9740   22.7410 C.2   500  HEM500      0.0000
      2  CHB        7.7970    2.7780   23.2520 C.2   500  HEM500      0.0000
      3  CHC        7.5780   -1.9810   24.2720 C.2   500  HEM500      0.0000
      4  CHD        2.8200   -1.8380   23.4340 C.2   500  HEM500      0.0000
      5  C1A        4.2650    3.2960   22.8240 C.2   500  HEM500      0.0000
      6  C2A        4.8090    4.6120   22.5870 C.2   500  HEM500      0.0000
      7  C3A        6.1290    4.5420   22.7090 C.2   500  HEM500      0.0000
      8  C4A        6.4800    3.2040   23.0200 C.2   500  HEM500      0.0000
      9  CMA        7.0800    5.7440   22.5190 C.3   500  HEM500      0.0000
     10  CAA        3.9730    5.8740   22.1980 C.3   500  HEM500      0.0000
     11  CBA        3.8310    5.9060   20.6910 C.3   500  HEM500      0.0000
     12  CGA        3.1460    7.1740   20.2010 C.2   500  HEM500      0.0000
     13  O1A        2.9440    8.1760   20.9710 O.co2 500  HEM500      0.0000
     14  O2A        2.7710    7.1830   18.9870 O.co2 500  HEM500      0.0000
     15  C1B        8.1820    1.5050   23.5580 C.ar  500  HEM500      0.0000
     16  C2B        9.5270    1.0500   23.9670 C.ar  500  HEM500      0.0000
     17  C3B        9.4220   -0.2790   24.2570 C.ar  500  HEM500      0.0000
     18  C4B        8.0330   -0.6830   24.0670 C.ar  500  HEM500      0.0000
     19  CMB       10.7340    1.9810   24.0180 C.3   500  HEM500      0.0000
     20  CAB       10.3850   -1.3760   24.7010 C.2   500  HEM500      0.0000
     21  CBB       11.5870   -1.0920   25.1680 C.2   500  HEM500      0.0000
     22  C1C        6.2400   -2.3420   24.1370 C.2   500  HEM500      0.0000
     23  C2C        5.6640   -3.6110   24.5070 C.2   500  HEM500      0.0000
     24  C3C        4.3560   -3.5350   24.2340 C.2   500  HEM500      0.0000
     25  C4C        4.0650   -2.2380   23.7590 C.2   500  HEM500      0.0000
     26  CMC        6.4250   -4.8700   25.0560 C.3   500  HEM500      0.0000
     27  CAC        3.2750   -4.6180   24.4130 C.2   500  HEM500      0.0000
     28  CBC        3.5690   -5.8340   24.8480 C.2   500  HEM500      0.0000
     29  C1D        2.3780   -0.5820   23.1870 C.ar  500  HEM500      0.0000
     30  C2D        1.0000   -0.2260   22.8880 C.ar  500  HEM500      0.0000
     31  C3D        1.0270    1.2770   22.7030 C.ar  500  HEM500      0.0000
     32  C4D        2.4180    1.6750   22.8220 C.ar  500  HEM500      0.0000
     33  CMD       -0.2370   -1.1200   22.8210 C.3   500  HEM500      0.0000
     34  CAD       -0.1880    2.1810   22.3920 C.3   500  HEM500      0.0000
     35  CBD       -0.6720    2.6710   23.7540 C.3   500  HEM500      0.0000
     36  CGD       -1.8740    3.6190   23.5480 C.2   500  HEM500      0.0000
     37  O1D       -1.7990    4.5570   22.7440 O.co2 500  HEM500      0.0000
     38  O2D       -2.9100    3.4210   24.2260 O.co2 500  HEM500      0.0000
     39  NA         5.3100    2.4350   23.0920 N.2   500  HEM500      0.0000
     40  NB         7.3490    0.4340   23.6630 N.ar  500  HEM500      0.0000
     41  NC         5.2350   -1.4930   23.7270 N.2   500  HEM500      0.0000
     42  ND         3.1620    0.5650   23.1530 N.ar  500  HEM500      0.0000
     43 FE          5.2530    0.5020   23.5060 Fe    500  HEM500      0.0000
@<TRIPOS>BOND
     1    14    12   ar
     2    12    11    1
     3    12    13   ar
     4    11    10    1
     5    10     6    1
     6    34    31    1
     7    34    35    1
     8     9     7    1
     9     6     7    2
    10     6     5    1
    11    31    32   ar
    12    31    30   ar
    13     7     8    1
    14     1    32    2
    15     1     5    1
    16    37    36   ar
    17    33    30    1
    18    32    42   ar
    19     5    39    2
    20    30    29   ar
    21     8    39    1
    22     8     2    2
    23    39    43    1
    24    42    29   ar
    25    42    43    1
    26    29     4    2
    27     2    15    1
    28     4    25    1
    29    43    40    1
    30    43    41    1
    31    36    35    1
    32    36    38   ar
    33    15    40   ar
    34    15    16   ar
    35    40    18   ar
    36    41    25    2
    37    41    22    1
    38    25    24    1
    39    16    19    1
    40    16    17   ar
    41    18    17   ar
    42    18     3    1
    43    22     3    2
    44    22    23    1
    45    24    27    1
    46    24    23    2
    47    17    20    1
    48    27    28    2
    49    23    26    1
    50    20    21    2
