@<TRIPOS>MOLECULE
4dub_HEM_A_1.pdb
 43 50 0 0 0
SMALL
GASTEIGER

@<TRIPOS>ATOM
      1  CHA        2.7060   28.0720   22.3650 C.2   500  HEM500      0.0000
      2  CHB        7.4850   27.8190   23.0030 C.2   500  HEM500      0.0000
      3  CHC        7.2620   23.1140   23.9170 C.2   500  HEM500      0.0000
      4  CHD        2.5160   23.2900   23.0160 C.2   500  HEM500      0.0000
      5  C1A        4.0430   28.4130   22.5380 C.2   500  HEM500      0.0000
      6  C2A        4.5580   29.7650   22.3600 C.2   500  HEM500      0.0000
      7  C3A        5.8960   29.6990   22.4950 C.2   500  HEM500      0.0000
      8  C4A        6.2340   28.3030   22.7890 C.2   500  HEM500      0.0000
      9  CMA        6.8510   30.8770   22.3920 C.3   500  HEM500      0.0000
     10  CAA        3.7310   31.0190   21.9980 C.3   500  HEM500      0.0000
     11  CBA        3.5260   31.0960   20.4620 C.3   500  HEM500      0.0000
     12  CGA        2.8150   32.3670   20.0250 C.2   500  HEM500      0.0000
     13  O1A        2.6280   33.3360   20.7880 O.co2 500  HEM500      0.0000
     14  O2A        2.4720   32.3600   18.7900 O.co2 500  HEM500      0.0000
     15  C1B        7.8800   26.5120   23.2410 C.ar  500  HEM500      0.0000
     16  C2B        9.2830   26.1130   23.6160 C.ar  500  HEM500      0.0000
     17  C3B        9.1440   24.7910   23.8610 C.ar  500  HEM500      0.0000
     18  C4B        7.7740   24.3900   23.6690 C.ar  500  HEM500      0.0000
     19  CMB       10.5370   27.0470   23.5720 C.3   500  HEM500      0.0000
     20  CAB       10.1740   23.7750   24.2320 C.2   500  HEM500      0.0000
     21  CBB       11.2950   24.1750   24.8060 C.2   500  HEM500      0.0000
     22  C1C        5.9310   22.7620   23.8090 C.2   500  HEM500      0.0000
     23  C2C        5.4230   21.4240   24.1090 C.2   500  HEM500      0.0000
     24  C3C        4.1130   21.4690   23.8090 C.2   500  HEM500      0.0000
     25  C4C        3.7720   22.8250   23.3720 C.2   500  HEM500      0.0000
     26  CMC        6.2540   20.2020   24.6130 C.3   500  HEM500      0.0000
     27  CAC        3.0610   20.3850   23.9760 C.2   500  HEM500      0.0000
     28  CBC        3.3060   19.1080   24.2910 C.2   500  HEM500      0.0000
     29  C1D        2.1330   24.6010   22.7880 C.ar  500  HEM500      0.0000
     30  C2D        0.8030   24.9840   22.5140 C.ar  500  HEM500      0.0000
     31  C3D        0.8680   26.4350   22.3330 C.ar  500  HEM500      0.0000
     32  C4D        2.2430   26.7990   22.4990 C.ar  500  HEM500      0.0000
     33  CMD       -0.4860   24.0830   22.3860 C.3   500  HEM500      0.0000
     34  CAD       -0.3550   27.3500   22.0570 C.3   500  HEM500      0.0000
     35  CBD       -0.9690   27.7010   23.4320 C.3   500  HEM500      0.0000
     36  CGD       -2.1520   28.6510   23.2840 C.2   500  HEM500      0.0000
     37  O1D       -3.1650   28.4210   24.0000 O.co2 500  HEM500      0.0000
     38  O2D       -2.0420   29.6360   22.5280 O.co2 500  HEM500      0.0000
     39  NA         5.0780   27.5130   22.8280 N.2   500  HEM500      0.0000
     40  NB         7.0490   25.4760   23.3560 N.ar  500  HEM500      0.0000
     41  NC         4.9290   23.6350   23.3970 N.2   500  HEM500      0.0000
     42  ND         3.0020   25.6760   22.7270 N.ar  500  HEM500      0.0000
     43 FE          4.9950   25.5670   23.1130 Fe    500  HEM500      0.0000
@<TRIPOS>BOND
     1    14    12   ar
     2    12    11    1
     3    12    13   ar
     4    11    10    1
     5    10     6    1
     6    34    31    1
     7    34    35    1
     8    31    32   ar
     9    31    30   ar
    10     6     7    2
    11     6     5    1
    12     1    32    2
    13     1     5    1
    14    33    30    1
    15     9     7    1
    16     7     8    1
    17    32    42   ar
    18    30    29   ar
    19    38    36   ar
    20     5    39    2
    21    42    29   ar
    22    42    43    1
    23    29     4    2
    24     8    39    1
    25     8     2    2
    26    39    43    1
    27     2    15    1
    28     4    25    1
    29    43    40    1
    30    43    41    1
    31    15    40   ar
    32    15    16   ar
    33    36    35    1
    34    36    37   ar
    35    40    18   ar
    36    25    41    2
    37    25    24    1
    38    41    22    1
    39    19    16    1
    40    16    17   ar
    41    18    17   ar
    42    18     3    1
    43    24    27    1
    44    24    23    2
    45    22     3    2
    46    22    23    1
    47    17    20    1
    48    27    28    2
    49    23    26    1
    50    20    21    2
