@<TRIPOS>MOLECULE
4dub_LDP_A_1.pdb
 11 11 0 0 0
SMALL
GASTEIGER

@<TRIPOS>ATOM
      1  C7         6.6830   26.3480   19.6990 C.3   501  LDP501      0.0469
      2  C1         6.9690   27.5590   18.8100 C.ar  501  LDP501     -0.0173
      3  C4         7.7040   29.6910   17.1320 C.ar  501  LDP501      0.2342
      4  C2         6.6710   28.8640   19.2500 C.ar  501  LDP501      0.0412
      5  C6         7.5850   27.3160   17.5900 C.ar  501  LDP501     -0.0007
      6  C5         7.9990   28.3850   16.7290 C.ar  501  LDP501      0.0451
      7  C3         7.0520   29.9120   18.4540 C.ar  501  LDP501      0.2339
      8  O1         6.7730   31.2220   18.7970 O.3   501  LDP501     -0.2832
      9  O2         8.1010   30.8190   16.4290 O.3   501  LDP501     -0.2831
     10  C8         5.2570   26.0740   19.9260 C.3   501  LDP501      0.1140
     11  N1         5.1000   25.1700   21.1160 N.3   501  LDP501     -0.1310
@<TRIPOS>BOND
     1     9     3    1
     2     6     3   ar
     3     6     5   ar
     4     3     7   ar
     5     5     2   ar
     6     7     8    1
     7     7     4   ar
     8     2     4   ar
     9     2     1    1
    10     1    10    1
    11    10    11    1
