@<TRIPOS>MOLECULE
4duc_HEM_A_1.pdb
 43 50 0 0 0
SMALL
GASTEIGER

@<TRIPOS>ATOM
      1  CHA        2.7250    3.0580   22.4630 C.2   500  HEM500      0.0000
      2  CHB        7.5730    2.9960   23.0280 C.2   500  HEM500      0.0000
      3  CHC        7.3070   -1.7450   24.2240 C.2   500  HEM500      0.0000
      4  CHD        2.5120   -1.7390   23.3170 C.2   500  HEM500      0.0000
      5  C1A        4.0900    3.4500   22.5330 C.ar  500  HEM500      0.0000
      6  C2A        4.6100    4.8070   22.2510 C.ar  500  HEM500      0.0000
      7  C3A        5.9610    4.7750   22.3730 C.ar  500  HEM500      0.0000
      8  C4A        6.3060    3.4210   22.7840 C.ar  500  HEM500      0.0000
      9  CMA        6.9780    5.9470   22.1630 C.3   500  HEM500      0.0000
     10  CAA        3.7330    6.0280   21.7590 C.3   500  HEM500      0.0000
     11  CBA        3.4430    5.9320   20.2650 C.3   500  HEM500      0.0000
     12  CGA        2.8300    7.2230   19.7630 C.2   500  HEM500      0.0000
     13  O1A        2.4460    7.2540   18.5500 O.co2 500  HEM500      0.0000
     14  O2A        2.6760    8.2450   20.5290 O.co2 500  HEM500      0.0000
     15  C1B        7.9420    1.7060   23.3680 C.2   500  HEM500      0.0000
     16  C2B        9.3120    1.2620   23.6420 C.2   500  HEM500      0.0000
     17  C3B        9.2230   -0.0400   23.9930 C.2   500  HEM500      0.0000
     18  C4B        7.8050   -0.4590   23.9340 C.2   500  HEM500      0.0000
     19  CMB       10.6230    2.1310   23.5640 C.3   500  HEM500      0.0000
     20  CAB       10.3860   -0.9790   24.3670 C.2   500  HEM500      0.0000
     21  CBB       11.1180   -0.6810   25.4460 C.2   500  HEM500      0.0000
     22  C1C        6.0020   -2.1540   24.1030 C.ar  500  HEM500      0.0000
     23  C2C        5.5000   -3.4510   24.4710 C.ar  500  HEM500      0.0000
     24  C3C        4.1750   -3.4390   24.1900 C.ar  500  HEM500      0.0000
     25  C4C        3.8180   -2.1160   23.7140 C.ar  500  HEM500      0.0000
     26  CMC        6.3360   -4.6570   25.0190 C.3   500  HEM500      0.0000
     27  CAC        3.0820   -4.5240   24.3630 C.2   500  HEM500      0.0000
     28  CBC        3.2030   -5.6650   25.0520 C.2   500  HEM500      0.0000
     29  C1D        2.0970   -0.4650   22.9850 C.2   500  HEM500      0.0000
     30  C2D        0.7210   -0.0690   22.7250 C.2   500  HEM500      0.0000
     31  C3D        0.8230    1.4020   22.4680 C.2   500  HEM500      0.0000
     32  C4D        2.2020    1.7870   22.6230 C.2   500  HEM500      0.0000
     33  CMD       -0.5160   -0.9960   22.6940 C.3   500  HEM500      0.0000
     34  CAD       -0.3490    2.3340   22.1850 C.3   500  HEM500      0.0000
     35  CBD       -0.8140    2.7210   23.6010 C.3   500  HEM500      0.0000
     36  CGD       -2.0540    3.6360   23.4090 C.2   500  HEM500      0.0000
     37  O1D       -1.9230    4.5380   22.5760 O.co2 500  HEM500      0.0000
     38  O2D       -3.1530    3.4700   24.0210 O.co2 500  HEM500      0.0000
     39  NA         5.1630    2.6380   22.8890 N.ar  500  HEM500      0.0000
     40  NB         7.0680    0.6630   23.6150 N.2   500  HEM500      0.0000
     41  NC         4.9470   -1.3420   23.7060 N.ar  500  HEM500      0.0000
     42  ND         2.9320    0.6540   22.9210 N.2   500  HEM500      0.0000
     43 FE          5.0080    0.6630   23.3520 Fe    500  HEM500      0.0000
@<TRIPOS>BOND
     1    13    12   ar
     2    12    11    1
     3    12    14   ar
     4    11    10    1
     5    10     6    1
     6     9     7    1
     7    34    31    1
     8    34    35    1
     9     6     7   ar
    10     6     5   ar
    11     7     8   ar
    12     1     5    2
    13     1    32    1
    14    31    32    1
    15    31    30    2
    16     5    39   ar
    17    37    36   ar
    18    32    42    2
    19    33    30    1
    20    30    29    1
    21     8    39   ar
    22     8     2    2
    23    39    43    1
    24    42    29    1
    25    42    43    1
    26    29     4    2
    27     2    15    1
    28     4    25    1
    29    43    40    1
    30    43    41    1
    31    15    40    2
    32    15    16    1
    33    36    35    1
    34    36    38   ar
    35    19    16    1
    36    40    18    1
    37    16    17    2
    38    41    25   ar
    39    41    22   ar
    40    25    24   ar
    41    18    17    1
    42    18     3    2
    43    17    20    1
    44    22     3    1
    45    22    23   ar
    46    24    27    1
    47    24    23   ar
    48    27    28    2
    49    20    21    2
    50    23    26    1
