@<TRIPOS>MOLECULE
4dud_HEM_A_1.pdb
 43 50 0 0 0
SMALL
GASTEIGER

@<TRIPOS>ATOM
      1  CHA        2.7810    3.0750   22.3880 C.2   500  HEM500      0.0000
      2  CHB        7.6270    2.9940   22.9890 C.2   500  HEM500      0.0000
      3  CHC        7.3780   -1.7410   24.2380 C.2   500  HEM500      0.0000
      4  CHD        2.6040   -1.7040   23.3430 C.2   500  HEM500      0.0000
      5  C1A        4.1470    3.4770   22.4700 C.ar  500  HEM500      0.0000
      6  C2A        4.6420    4.8180   22.2980 C.ar  500  HEM500      0.0000
      7  C3A        5.9850    4.7690   22.3800 C.ar  500  HEM500      0.0000
      8  C4A        6.3540    3.4330   22.7360 C.ar  500  HEM500      0.0000
      9  CMA        6.9640    5.9470   22.2250 C.3   500  HEM500      0.0000
     10  CAA        3.7780    6.0330   21.9040 C.3   500  HEM500      0.0000
     11  CBA        3.5560    5.9740   20.3840 C.3   500  HEM500      0.0000
     12  CGA        2.8900    7.2680   19.8490 C.2   500  HEM500      0.0000
     13  O1A        2.5520    7.2790   18.6020 O.co2 500  HEM500      0.0000
     14  O2A        2.6230    8.2910   20.6130 O.co2 500  HEM500      0.0000
     15  C1B        7.9870    1.7140   23.3830 C.2   500  HEM500      0.0000
     16  C2B        9.3370    1.2720   23.7130 C.2   500  HEM500      0.0000
     17  C3B        9.2420   -0.0380   24.0440 C.2   500  HEM500      0.0000
     18  C4B        7.8550   -0.4350   23.9480 C.2   500  HEM500      0.0000
     19  CMB       10.5680    2.1950   23.5920 C.3   500  HEM500      0.0000
     20  CAB       10.2520   -1.0800   24.5230 C.2   500  HEM500      0.0000
     21  CBB       11.3630   -0.6730   25.1170 C.2   500  HEM500      0.0000
     22  C1C        6.0580   -2.1400   24.1190 C.ar  500  HEM500      0.0000
     23  C2C        5.5540   -3.4340   24.4650 C.ar  500  HEM500      0.0000
     24  C3C        4.2310   -3.3980   24.1800 C.ar  500  HEM500      0.0000
     25  C4C        3.8710   -2.0920   23.7400 C.ar  500  HEM500      0.0000
     26  CMC        6.3900   -4.6250   25.0040 C.3   500  HEM500      0.0000
     27  CAC        3.1400   -4.4430   24.3500 C.2   500  HEM500      0.0000
     28  CBC        3.3020   -5.5950   24.9900 C.2   500  HEM500      0.0000
     29  C1D        2.1790   -0.4160   23.0230 C.2   500  HEM500      0.0000
     30  C2D        0.8280   -0.0250   22.7430 C.2   500  HEM500      0.0000
     31  C3D        0.8780    1.4330   22.4390 C.2   500  HEM500      0.0000
     32  C4D        2.2820    1.8040   22.6040 C.2   500  HEM500      0.0000
     33  CMD       -0.3970   -0.9460   22.6480 C.3   500  HEM500      0.0000
     34  CAD       -0.2950    2.3470   22.0860 C.3   500  HEM500      0.0000
     35  CBD       -0.7840    2.7590   23.5020 C.3   500  HEM500      0.0000
     36  CGD       -1.9870    3.7370   23.3630 C.2   500  HEM500      0.0000
     37  O1D       -1.9320    4.6060   22.4990 O.co2 500  HEM500      0.0000
     38  O2D       -3.0500    3.5680   24.0570 O.co2 500  HEM500      0.0000
     39  NA         5.2090    2.6480   22.8210 N.ar  500  HEM500      0.0000
     40  NB         7.1660    0.6540   23.5400 N.2   500  HEM500      0.0000
     41  NC         5.0080   -1.3120   23.7110 N.ar  500  HEM500      0.0000
     42  ND         2.9740    0.6650   22.9330 N.2   500  HEM500      0.0000
     43 FE          5.0740    0.6530   23.3620 Fe    500  HEM500      0.0000
@<TRIPOS>BOND
     1    13    12   ar
     2    12    11    1
     3    12    14   ar
     4    11    10    1
     5    10     6    1
     6    34    31    1
     7    34    35    1
     8     9     7    1
     9     6     7   ar
    10     6     5   ar
    11     7     8   ar
    12     1     5    2
    13     1    32    1
    14    31    32    1
    15    31    30    2
    16     5    39   ar
    17    37    36   ar
    18    32    42    2
    19    33    30    1
    20     8    39   ar
    21     8     2    2
    22    30    29    1
    23    39    43    1
    24    42    29    1
    25    42    43    1
    26     2    15    1
    27    29     4    2
    28     4    25    1
    29    43    40    1
    30    43    41    1
    31    36    35    1
    32    36    38   ar
    33    15    40    2
    34    15    16    1
    35    40    18    1
    36    19    16    1
    37    41    25   ar
    38    41    22   ar
    39    16    17    2
    40    25    24   ar
    41    18    17    1
    42    18     3    2
    43    17    20    1
    44    22     3    1
    45    22    23   ar
    46    24    27    1
    47    24    23   ar
    48    27    28    2
    49    23    26    1
    50    20    21    2
