@<TRIPOS>MOLECULE
4due_HEM_A_1.pdb
 43 50 0 0 0
SMALL
GASTEIGER

@<TRIPOS>ATOM
      1  CHA       -1.6420   -4.0940   16.8250 C.2   500  HEM500      0.0000
      2  CHB       -6.5050   -3.9440   17.2990 C.2   500  HEM500      0.0000
      3  CHC       -6.1720    0.3620   19.6310 C.2   500  HEM500      0.0000
      4  CHD       -1.4000    0.5180   18.7410 C.2   500  HEM500      0.0000
      5  C1A       -2.9760   -4.4290   16.7470 C.ar  500  HEM500      0.0000
      6  C2A       -3.5580   -5.5990   16.1880 C.ar  500  HEM500      0.0000
      7  C3A       -4.8690   -5.5900   16.3170 C.ar  500  HEM500      0.0000
      8  C4A       -5.1810   -4.3730   17.0030 C.ar  500  HEM500      0.0000
      9  CMA       -5.9570   -6.5810   15.7710 C.3   500  HEM500      0.0000
     10  CAA       -2.7110   -6.6880   15.5290 C.3   500  HEM500      0.0000
     11  CBA       -2.5280   -6.3620   14.0280 C.3   500  HEM500      0.0000
     12  CGA       -1.6870   -7.3930   13.3240 C.2   500  HEM500      0.0000
     13  O1A       -1.4540   -8.4960   13.8400 O.co2 500  HEM500      0.0000
     14  O2A       -1.3720   -7.1690   12.1000 O.co2 500  HEM500      0.0000
     15  C1B       -6.8260   -2.7930   18.0370 C.2   500  HEM500      0.0000
     16  C2B       -8.1490   -2.3190   18.3700 C.2   500  HEM500      0.0000
     17  C3B       -8.0500   -1.1510   18.9650 C.2   500  HEM500      0.0000
     18  C4B       -6.6330   -0.7320   18.9450 C.2   500  HEM500      0.0000
     19  CMB       -9.4040   -3.1860   18.0330 C.3   500  HEM500      0.0000
     20  CAB       -9.1800   -0.2100   19.4900 C.2   500  HEM500      0.0000
     21  CBB      -10.3410   -0.6190   20.0440 C.2   500  HEM500      0.0000
     22  C1C       -4.8570    0.7840   19.6260 C.ar  500  HEM500      0.0000
     23  C2C       -4.3060    1.9360   20.2920 C.ar  500  HEM500      0.0000
     24  C3C       -2.9880    1.9740   19.9660 C.ar  500  HEM500      0.0000
     25  C4C       -2.6820    0.8080   19.1690 C.ar  500  HEM500      0.0000
     26  CMC       -5.1660    2.9290   21.0470 C.3   500  HEM500      0.0000
     27  CAC       -1.9150    3.0080   20.3140 C.2   500  HEM500      0.0000
     28  CBC       -2.1110    3.9320   21.2380 C.2   500  HEM500      0.0000
     29  C1D       -1.0950   -0.6930   18.1040 C.2   500  HEM500      0.0000
     30  C2D        0.2010   -1.0800   17.7280 C.2   500  HEM500      0.0000
     31  C3D        0.1600   -2.4880   17.2490 C.2   500  HEM500      0.0000
     32  C4D       -1.2190   -2.8730   17.3140 C.2   500  HEM500      0.0000
     33  CMD        1.4900   -0.1730   17.8010 C.3   500  HEM500      0.0000
     34  CAD        1.3690   -3.3350   16.7080 C.3   500  HEM500      0.0000
     35  CBD        1.9170   -3.9330   18.0380 C.3   500  HEM500      0.0000
     36  CGD        3.1550   -4.8010   17.7060 C.2   500  HEM500      0.0000
     37  O1D        4.2280   -4.7380   18.4490 O.co2 500  HEM500      0.0000
     38  O2D        3.1060   -5.5590   16.7330 O.co2 500  HEM500      0.0000
     39  NA        -4.0180   -3.6470   17.1930 N.ar  500  HEM500      0.0000
     40  NB        -5.9720   -1.7760   18.4010 N.2   500  HEM500      0.0000
     41  NC        -3.8410    0.1050   19.0420 N.ar  500  HEM500      0.0000
     42  ND        -1.9300   -1.7990   17.8570 N.2   500  HEM500      0.0000
     43 FE         -3.9300   -1.8190   18.1840 Fe    500  HEM500      0.0000
@<TRIPOS>BOND
     1    14    12   ar
     2    12    13   ar
     3    12    11    1
     4    11    10    1
     5    10     6    1
     6     9     7    1
     7     6     7   ar
     8     6     5   ar
     9     7     8   ar
    10    34    31    1
    11    34    35    1
    12    38    36   ar
    13     5     1    2
    14     5    39   ar
    15     1    32    1
    16     8    39   ar
    17     8     2    2
    18    39    43    1
    19    31    32    1
    20    31    30    2
    21     2    15    1
    22    32    42    2
    23    36    35    1
    24    36    37   ar
    25    30    33    1
    26    30    29    1
    27    42    29    1
    28    42    43    1
    29    19    16    1
    30    15    16    1
    31    15    40    2
    32    29     4    2
    33    43    40    1
    34    43    41    1
    35    16    17    2
    36    40    18    1
    37     4    25    1
    38    18    17    1
    39    18     3    2
    40    17    20    1
    41    41    25   ar
    42    41    22   ar
    43    25    24   ar
    44    20    21    2
    45    22     3    1
    46    22    23   ar
    47    24    23   ar
    48    24    27    1
    49    23    26    1
    50    27    28    2
