@<TRIPOS>MOLECULE
4due_SRO_A_1.pdb
 13 14 0 0 0
SMALL
GASTEIGER

@<TRIPOS>ATOM
      1  OH        -3.9610    0.9170    8.7660 O.2   501  SRO501     -0.2869
      2  CZ3       -3.9670   -0.2260    9.5140 C.2   501  SRO501      0.1919
      3  CH2       -3.5220   -1.4030    8.8850 C.2   501  SRO501      0.0222
      4  CZ2       -3.5190   -2.6130    9.6410 C.3   501  SRO501      0.0751
      5  CE2       -3.9150   -2.6080   10.9920 C.2   501  SRO501      0.0633
      6  NE1       -3.9980   -3.5370   11.9720 N.2   501  SRO501     -0.2482
      7  CD1       -4.4100   -3.0070   13.1260 C.2   501  SRO501      0.0942
      8  CG        -4.6730   -1.6430   13.0240 C.2   501  SRO501     -0.0003
      9  CD2       -4.3220   -1.3480   11.6110 C.2   501  SRO501      0.0146
     10  CE3       -4.3540   -0.1370   10.8770 C.2   501  SRO501      0.0426
     11  CB        -5.1960   -0.5720   13.9990 C.3   501  SRO501      0.0485
     12  CA        -5.4410   -1.1510   15.4050 C.3   501  SRO501      0.1140
     13  NZ        -4.1880   -0.9810   16.1790 N.3   501  SRO501     -0.1310
@<TRIPOS>BOND
     1     1     2    1
     2     3     2    2
     3     3     4    1
     4     2    10    1
     5     4     5    1
     6    10     9    2
     7     5     9    1
     8     5     6    2
     9     9     8    1
    10     6     7    1
    11     8     7    2
    12     8    11    1
    13    11    12    1
    14    12    13    1
