@<TRIPOS>MOLECULE
4duf_HEM_A_1.pdb
 43 50 0 0 0
SMALL
GASTEIGER

@<TRIPOS>ATOM
      1  CHA       25.0090    2.8090   32.3100 C.2   500  HEM500      0.0000
      2  CHB       20.8720    2.7030   34.8340 C.2   500  HEM500      0.0000
      3  CHC       20.3930   -2.0590   33.8670 C.2   500  HEM500      0.0000
      4  CHD       24.6390   -1.9740   31.5620 C.2   500  HEM500      0.0000
      5  C1A       23.9250    3.1880   33.1020 C.2   500  HEM500      0.0000
      6  C2A       23.6800    4.5530   33.5760 C.2   500  HEM500      0.0000
      7  C3A       22.5280    4.5170   34.2520 C.2   500  HEM500      0.0000
      8  C4A       22.0460    3.1320   34.2490 C.2   500  HEM500      0.0000
      9  CMA       21.8070    5.5420   35.0700 C.3   500  HEM500      0.0000
     10  CAA       24.5810    5.7760   33.3660 C.3   500  HEM500      0.0000
     11  CBA       25.6720    5.7210   34.4800 C.3   500  HEM500      0.0000
     12  CGA       26.5750    6.9820   34.4570 C.2   500  HEM500      0.0000
     13  O1A       27.5860    6.9830   35.1930 O.co2 500  HEM500      0.0000
     14  O2A       26.2340    7.9640   33.7780 O.co2 500  HEM500      0.0000
     15  C1B       20.4260    1.4150   34.8020 C.ar  500  HEM500      0.0000
     16  C2B       19.1570    1.0010   35.3570 C.ar  500  HEM500      0.0000
     17  C3B       19.0590   -0.3280   35.1000 C.ar  500  HEM500      0.0000
     18  C4B       20.1950   -0.7610   34.3460 C.ar  500  HEM500      0.0000
     19  CMB       18.1970    1.8700   36.1850 C.3   500  HEM500      0.0000
     20  CAB       17.9700   -1.3530   35.4780 C.2   500  HEM500      0.0000
     21  CBB       16.7180   -0.9350   35.6640 C.2   500  HEM500      0.0000
     22  C1C       21.5130   -2.4400   33.1070 C.2   500  HEM500      0.0000
     23  C2C       21.7330   -3.8030   32.5610 C.2   500  HEM500      0.0000
     24  C3C       22.9460   -3.7700   31.9510 C.2   500  HEM500      0.0000
     25  C4C       23.4710   -2.4140   32.0620 C.2   500  HEM500      0.0000
     26  CMC       20.7500   -4.9980   32.7380 C.3   500  HEM500      0.0000
     27  CAC       23.7100   -4.8500   31.1800 C.2   500  HEM500      0.0000
     28  CBC       23.1420   -5.8860   30.6000 C.2   500  HEM500      0.0000
     29  C1D       25.1390   -0.6870   31.5200 C.ar  500  HEM500      0.0000
     30  C2D       26.4000   -0.2900   30.9650 C.ar  500  HEM500      0.0000
     31  C3D       26.4890    1.1820   31.1770 C.ar  500  HEM500      0.0000
     32  C4D       25.3010    1.5450   31.9270 C.ar  500  HEM500      0.0000
     33  CMD       27.4600   -1.1480   30.2660 C.3   500  HEM500      0.0000
     34  CAD       27.6400    2.0310   30.6900 C.3   500  HEM500      0.0000
     35  CBD       27.1480    2.5940   29.3170 C.3   500  HEM500      0.0000
     36  CGD       28.2060    3.5130   28.6470 C.2   500  HEM500      0.0000
     37  O1D       28.6110    4.3900   29.4070 O.co2 500  HEM500      0.0000
     38  O2D       28.6840    3.2510   27.4830 O.co2 500  HEM500      0.0000
     39  NA        22.8770    2.3560   33.4990 N.2   500  HEM500      0.0000
     40  NB        20.9730    0.3280   34.1340 N.ar  500  HEM500      0.0000
     41  NC        22.5770   -1.6300   32.7730 N.2   500  HEM500      0.0000
     42  ND        24.5610    0.4080   32.1010 N.ar  500  HEM500      0.0000
     43 FE         22.6920    0.3730   33.0730 Fe    500  HEM500      0.0000
@<TRIPOS>BOND
     1    38    36   ar
     2    36    35    1
     3    36    37   ar
     4    35    34    1
     5    33    30    1
     6    28    27    2
     7    34    31    1
     8    30    31   ar
     9    30    29   ar
    10    31    32   ar
    11    27    24    1
    12    29     4    2
    13    29    42   ar
    14     4    25    1
    15    32    42   ar
    16    32     1    2
    17    24    25    1
    18    24    23    2
    19    25    41    2
    20    42    43    1
    21     1     5    1
    22    23    26    1
    23    23    22    1
    24    41    43    1
    25    41    22    1
    26    43    39    1
    27    43    40    1
    28     5    39    2
    29     5     6    1
    30    22     3    2
    31    10     6    1
    32    10    11    1
    33    39     8    1
    34     6     7    2
    35    14    12   ar
    36     3    18    1
    37    40    18   ar
    38    40    15   ar
    39     8     7    1
    40     8     2    2
    41     7     9    1
    42    18    17   ar
    43    12    11    1
    44    12    13   ar
    45    15     2    1
    46    15    16   ar
    47    17    16   ar
    48    17    20    1
    49    16    19    1
    50    20    21    2
