@<TRIPOS>MOLECULE
4duf_SRO_A_1.pdb
 13 14 0 0 0
SMALL
GASTEIGER

@<TRIPOS>ATOM
      1  OH        27.7380   -1.0320   41.1470 O.2   501  SRO501     -0.2869
      2  CZ3       27.4560   -0.0160   40.2720 C.2   501  SRO501      0.1922
      3  CH2       28.2060    1.1980   40.2130 C.2   501  SRO501      0.0429
      4  CZ2       27.8710    2.2640   39.3360 C.2   501  SRO501      0.0186
      5  CE2       26.7580    2.1210   38.4550 C.2   501  SRO501      0.0667
      6  NE1       26.1140    2.8380   37.5110 N.2   501  SRO501     -0.2482
      7  CD1       25.0310    2.2490   36.9850 C.2   501  SRO501      0.0907
      8  CG        24.9230    1.0190   37.6110 C.2   501  SRO501     -0.0143
      9  CD2       26.0150    0.8610   38.5780 C.3   501  SRO501      0.0851
     10  CE3       26.3660   -0.2010   39.4250 C.2   501  SRO501      0.0256
     11  CB        23.9190    0.0020   37.3710 C.3   501  SRO501      0.0448
     12  CA        23.5120    0.7890   36.1170 C.3   501  SRO501      0.1137
     13  NZ        23.8690   -0.0080   34.9330 N.3   501  SRO501     -0.1310
@<TRIPOS>BOND
     1    13    12    1
     2    12    11    1
     3     7     6    1
     4     7     8    2
     5    11     8    1
     6     6     5    2
     7     8     9    1
     8     5     9    1
     9     5     4    1
    10     9    10    1
    11     4     3    2
    12    10     2    2
    13     3     2    1
    14     2     1    1
