@<TRIPOS>MOLECULE
4dug_ATP_A_1.pdb
 31 33 0 0 0
SMALL
GASTEIGER

@<TRIPOS>ATOM
      1  PG       126.0550   82.4170   17.4590 P.3   802  ATP802      0.5373
      2  O1G      125.2450   82.2610   16.1920 O.2   802  ATP802     -0.2221
      3  O2G      125.2570   82.5830   18.7270 O.3   802  ATP802     -0.1143
      4  O3G      127.2220   81.4620   17.5660 O.3   802  ATP802     -0.1143
      5  PB       127.1310   84.3890   15.8410 P.3   802  ATP802      0.2277
      6  O1B      127.8190   83.2530   15.1280 O.2   802  ATP802     -0.5168
      7  O2B      125.8960   85.0350   15.2590 O.3   802  ATP802     -0.4368
      8  O3B      126.7710   83.8450   17.3050 O.3   802  ATP802     -0.2258
      9  PA       129.5970   85.7290   15.4270 P.3   802  ATP802      0.2189
     10  O1A      130.4630   84.5200   15.6820 O.2   802  ATP802     -0.5170
     11  O2A      130.1130   87.1030   15.7820 O.3   802  ATP802     -0.4371
     12  O3A      128.1910   85.5480   16.1930 O.3   802  ATP802     -0.2700
     13  O5'      129.2490   85.7280   13.8560 O.3   802  ATP802     -0.3112
     14  C5'      129.5950   84.6020   13.0510 C.3   802  ATP802      0.1813
     15  C4'      129.4930   85.0000   11.5880 C.3   802  ATP802      0.1821
     16  O4'      130.4330   86.0420   11.3100 O.3   802  ATP802     -0.3135
     17  C3'      129.8090   83.8480   10.6520 C.3   802  ATP802      0.2184
     18  O3'      128.6150   83.3330   10.0650 O.3   802  ATP802     -0.2174
     19  C2'      130.6090   84.4730    9.5390 C.3   802  ATP802      0.2570
     20  O2'      129.7000   84.6450    8.4530 O.3   802  ATP802     -0.2130
     21  C1'      131.0400   85.8430   10.0310 C.3   802  ATP802      0.3186
     22  N9       132.5190   85.8820   10.1620 N.pl3 802  ATP802     -0.1439
     23  C8       133.2200   85.4900   11.2440 C.3   802  ATP802      0.3377
     24  N7       134.5550   85.6520   11.0510 N.2   802  ATP802     -0.2095
     25  C5       134.7250   86.1630    9.8170 C.2   802  ATP802      0.2526
     26  C6       135.8780   86.5720    8.9790 C.2   802  ATP802      0.4393
     27  N6       137.1510   86.4680    9.4340 N.pl3 802  ATP802      0.2180
     28  N1       135.6190   87.0540    7.7440 N.2   802  ATP802      0.0021
     29  C2       134.3620   87.1640    7.2800 C.3   802  ATP802      0.5254
     30  N3       133.2710   86.8090    7.9810 N.2   802  ATP802     -0.0055
     31  C4       133.3820   86.3070    9.2350 C.2   802  ATP802      0.3518
@<TRIPOS>BOND
     1    29    28    1
     2    29    30    1
     3    28    26    2
     4    30    31    2
     5    20    19    1
     6    26    27    1
     7    26    25    1
     8    31    25    1
     9    31    22    1
    10    19    21    1
    11    19    17    1
    12    25    24    2
    13    21    22    1
    14    21    16    1
    15    18    17    1
    16    22    23    1
    17    17    15    1
    18    24    23    1
    19    16    15    1
    20    15    14    1
    21    14    13    1
    22    13     9    1
    23     6     5    2
    24     7     5    1
    25     9    10    2
    26     9    11    1
    27     9    12    1
    28     5    12    1
    29     5     8    1
    30     2     1    2
    31     8     1    1
    32     1     4    1
    33     1     3    1
