@<TRIPOS>MOLECULE
4duh_RLI_A_1.pdb
 26 28 0 0 0
SMALL
GASTEIGER

@<TRIPOS>ATOM
      1  N10        4.7120    6.4090   39.0540 N.am  301  RLI301     -0.1437
      2  O10        5.1670    7.6440   37.3090 O.2   301  RLI301     -0.2729
      3  S10        3.5910    5.4480   36.7950 S.3   301  RLI301     -0.0524
      4  C11        7.3580    8.6050   39.0460 C.3   301  RLI301      0.0101
      5  N11        3.5670    4.4410   39.1180 N.2   301  RLI301     -0.3863
      6  O11       -1.3110   -4.5890   38.3290 O.co2 301  RLI301     -0.2406
      7  S11        1.0250    2.6750   33.6900 S.3   301  RLI301     -0.0580
      8  C12        5.2480    7.4500   38.4560 C.2   301  RLI301      0.2480
      9  N12        1.4560    2.0460   36.1350 N.2   301  RLI301     -0.3856
     10  O12        0.0090   -3.6320   39.6610 O.co2 301  RLI301     -0.2406
     11  C13        6.0020    8.3940   39.3980 C.3   301  RLI301      0.0873
     12  N13        0.2240    0.4490   34.8810 N.pl3 301  RLI301     -0.1782
     13  C14        3.9980    5.4640   38.4510 C.2   301  RLI301      0.2329
     14  C15        2.8520    3.5530   38.3450 C.2   301  RLI301      0.1059
     15  C16        2.2720    2.3040   38.9370 C.3   301  RLI301      0.0629
     16  C17        2.7790    3.9760   37.0610 C.3   301  RLI301      0.1520
     17  C18        2.0620    3.2680   35.9860 C.2   301  RLI301      0.1167
     18  C19        1.9410    3.7920   34.6390 C.3   301  RLI301      0.1215
     19  C20        0.8730    1.6130   35.0100 C.2   301  RLI301      0.2302
     20  C21        0.0130   -0.5490   35.8730 C.ar  301  RLI301      0.0736
     21  C22        0.5770   -0.4700   37.1050 C.ar  301  RLI301      0.0168
     22  C23        0.3670   -1.4690   38.0150 C.ar  301  RLI301      0.0079
     23  C24       -0.4100   -2.5550   37.6970 C.ar  301  RLI301      0.0799
     24  C25       -0.5900   -3.6700   38.6560 C.2   301  RLI301      0.3878
     25  C26       -0.9670   -2.6170   36.4730 C.ar  301  RLI301      0.0079
     26  C27       -0.7630   -1.6270   35.5570 C.ar  301  RLI301      0.0168
@<TRIPOS>BOND
     1     7    18    1
     2     7    19    1
     3    18    17    1
     4    12    19    1
     5    12    20    1
     6    19     9    2
     7    26    20   ar
     8    26    25   ar
     9    20    21   ar
    10    17     9    2
    11    17    16    1
    12    25    23   ar
    13     3    16    1
    14     3    13    1
    15    16    14    1
    16    21    22   ar
    17     2     8    2
    18    23    22   ar
    19    23    24    1
    20     6    24   ar
    21    14    15    1
    22    14     5    2
    23    13     1    1
    24    13     5    2
    25     8     1   am
    26     8    11    1
    27    24    10   ar
    28     4    11    1
