@<TRIPOS>MOLECULE
4dum_HLI_A_1.pdb
 32 35 0 0 0
SMALL
GASTEIGER

@<TRIPOS>ATOM
      1  C1        -0.7240    4.2280  -23.1750 C.3   1001  HLI1001     0.2268
      2  N1         0.5040    0.4000  -25.0040 N.2   1001  HLI1001    -0.3251
      3  O1        -3.0750    2.9530  -24.8790 O.2   1001  HLI1001    -0.2105
      4  P1         6.4800    3.3990  -24.4070 P.3   1001  HLI1001     0.1395
      5 CL1        -0.1510    4.9350  -16.5750 Cl    1001  HLI1001    -0.0822
      6  C2        -1.3040    1.5810  -24.9480 C.3   1001  HLI1001     0.3055
      7  N2        -0.2710    2.3890  -24.7800 N.pl3 1001  HLI1001    -0.2529
      8  O2         6.7670    4.7860  -23.9700 O.3   1001  HLI1001    -0.3542
      9  C3        -0.8060    0.3030  -25.0880 C.1   1001  HLI1001     0.1637
     10  N3        -3.5070    0.6960  -25.1880 N.2   1001  HLI1001    -0.2523
     11  O3         7.1170    3.2800  -25.8450 O.2   1001  HLI1001    -0.4557
     12  C4         0.8480    1.6630  -24.8150 C.2   1001  HLI1001     0.1972
     13  N4        -1.6080   -0.7520  -25.2650 N.2   1001  HLI1001    -0.2614
     14  O4         7.2840    2.3050  -23.4910 O.3   1001  HLI1001    -0.3542
     15  C5        -2.9520   -0.6040  -25.3240 C.1   1001  HLI1001     0.2399
     16  N5        -3.7470   -1.6810  -25.5120 N.pl3 1001  HLI1001    -0.1487
     17  O5         0.4600    4.0380  -22.3970 O.3   1001  HLI1001    -0.4736
     18  C6        -2.6590    1.8010  -24.9970 C.1   1001  HLI1001     0.2267
     19  C7         2.1630    2.0770  -24.7050 C.ar  1001  HLI1001     0.0449
     20  C8        -0.3840    3.8590  -24.6110 C.3   1001  HLI1001     0.1424
     21  C9         3.0860    1.2580  -24.0500 C.ar  1001  HLI1001     0.0040
     22  C10        4.4200    1.6670  -23.9560 C.ar  1001  HLI1001     0.0028
     23  C11        4.8020    2.8770  -24.5280 C.ar  1001  HLI1001     0.0288
     24  C12        3.9000    3.7020  -25.1960 C.ar  1001  HLI1001     0.0028
     25  C13        2.5720    3.2850  -25.2950 C.ar  1001  HLI1001     0.0040
     26  C14       -3.7650   -2.3710  -26.8260 C.3   1001  HLI1001     0.1505
     27  C15        0.2940    4.2490  -21.0580 C.ar  1001  HLI1001     0.1387
     28  C16       -0.8430    4.8810  -20.5490 C.ar  1001  HLI1001     0.0378
     29  C17       -0.9800    5.0900  -19.1750 C.ar  1001  HLI1001     0.0145
     30  C18        0.0180    4.6660  -18.2900 C.ar  1001  HLI1001     0.0579
     31  C19        1.1560    4.0380  -18.8050 C.ar  1001  HLI1001     0.0145
     32  C20        1.2970    3.8340  -20.1790 C.ar  1001  HLI1001     0.0378
@<TRIPOS>BOND
     1    26    16    1
     2    11     4    2
     3    16    15    1
     4    15    13    2
     5    15    10    2
     6    25    24   ar
     7    25    19   ar
     8    13     9    2
     9    24    23   ar
    10    10    18    2
    11     9     2    2
    12     9     6    1
    13     2    12    2
    14    18     6    1
    15    18     3    2
    16     6     7    1
    17    12     7    1
    18    12    19    1
    19     7    20    1
    20    19    21   ar
    21    20     1    1
    22    23     4    1
    23    23    22   ar
    24     4     8    1
    25     4    14    1
    26    21    22   ar
    27     1    17    1
    28    17    27    1
    29    27    28   ar
    30    27    32   ar
    31    28    29   ar
    32    32    31   ar
    33    29    30   ar
    34    31    30   ar
    35    30     5    1
