@<TRIPOS>MOLECULE
4duo_XYL_A_1.pdb
 10 9 0 0 0
SMALL
GASTEIGER

@<TRIPOS>ATOM
      1  C1        -9.9990  -15.9480  -46.6290 C.3   403  XYL403      0.2175
      2  C2       -11.3390  -15.6810  -45.9680 C.3   403  XYL403      0.2175
      3  C3       -12.0140  -16.9660  -45.5460 C.3   403  XYL403      0.2175
      4  C4       -13.4810  -16.7980  -45.2070 C.3   403  XYL403      0.2175
      5  C5       -14.1870  -18.1270  -44.9660 C.3   403  XYL403      0.2175
      6  O1        -9.3240  -14.7360  -46.9790 O.3   403  XYL403     -0.2175
      7  O2       -11.0790  -14.8580  -44.8100 O.3   403  XYL403     -0.2175
      8  O3       -11.3150  -17.5360  -44.4280 O.3   403  XYL403     -0.2175
      9  O4       -13.5980  -16.0670  -43.9800 O.3   403  XYL403     -0.2175
     10  O5       -14.2620  -18.8370  -46.2140 O.3   403  XYL403     -0.2175
@<TRIPOS>BOND
     1     6     1    1
     2     1     2    1
     3    10     5    1
     4     2     3    1
     5     2     7    1
     6     3     4    1
     7     3     8    1
     8     4     5    1
     9     4     9    1
