@<TRIPOS>MOLECULE
4dus_0MP_A_1.pdb
 35 38 0 0 0
SMALL
GASTEIGER

@<TRIPOS>ATOM
      1  C2        61.0590   45.4090    9.3810 C.3   410  0MP410      0.0402
      2  C3        60.7700   43.9410    9.0450 C.3   410  0MP410      0.0072
      3  C4        62.2680   43.6110    9.1040 C.3   410  0MP410      0.0402
      4  C1        62.5710   45.1050    9.3310 C.3   410  0MP410      0.1363
      5  C13       63.3010   45.7280    8.1240 C.3   410  0MP410      0.0620
      6  O12       63.2430   45.3710   10.5610 O.3   410  0MP410     -0.4676
      7  C5        63.4680   46.7020   10.8150 C.ar  410  0MP410      0.2217
      8  N10       63.6200   47.0760   12.1050 N.ar  410  0MP410     -0.2107
      9  C9        63.8590   48.3380   12.4470 C.ar  410  0MP410      0.0977
     10  C8        63.9540   49.3280   11.4670 C.ar  410  0MP410     -0.0031
     11  C14       64.2250   50.7730   11.8800 C.3   410  0MP410      0.0279
     12  C15       62.9740   51.5320   12.3000 C.3   410  0MP410      0.0041
     13  C17       62.2020   50.6880   13.3150 C.3   410  0MP410      0.0003
     14  C18       62.0810   51.8760   11.0900 C.3   410  0MP410      0.0003
     15  C16       63.4210   52.8470   12.9560 C.3   410  0MP410      0.0003
     16  C7        63.8060   48.9850   10.1160 C.ar  410  0MP410     -0.0010
     17  C6        63.5700   47.6550    9.7860 C.ar  410  0MP410      0.0465
     18  C11       63.3910   47.2520    8.3060 C.3   410  0MP410      0.1030
     19  N29       64.4460   47.8080    7.4400 N.3   410  0MP410     -0.2120
     20  C28       65.8280   47.4400    7.7990 C.3   410  0MP410      0.1236
     21  C26       66.7610   48.4800    7.1570 C.3   410  0MP410      0.1894
     22  O30       66.3080   49.7980    7.4780 O.3   410  0MP410     -0.2197
     23  C25       68.2040   48.3230    7.6240 C.3   410  0MP410      0.1313
     24  N27       68.7530   47.0330    7.1570 N.am  410  0MP410     -0.2042
     25  C33       68.8890   46.0150    8.0050 C.2   410  0MP410      0.2419
     26  C35       69.4430   44.7150    7.4030 C.3   410  0MP410      0.0964
     27  O34       68.5640   46.0780    9.1900 O.2   410  0MP410     -0.2733
     28  C31       69.0620   49.5030    7.1410 C.3   410  0MP410      0.0506
     29  C19       70.5520   49.2200    7.3590 C.ar  410  0MP410     -0.0202
     30  C20       71.3970   49.0440    6.2770 C.ar  410  0MP410     -0.0019
     31  C21       72.7410   48.7720    6.5020 C.ar  410  0MP410      0.0293
     32  C22       73.2280   48.6870    7.8030 C.ar  410  0MP410      0.1401
     33  F32       74.5290   48.4340    8.0340 F     410  0MP410     -0.2042
     34  C23       72.3830   48.8490    8.8800 C.ar  410  0MP410      0.0293
     35  C24       71.0400   49.1130    8.6480 C.ar  410  0MP410     -0.0019
@<TRIPOS>BOND
     1    30    31   ar
     2    30    29   ar
     3    31    32   ar
     4    28    29    1
     5    28    23    1
     6    24    23    1
     7    24    25   am
     8    21    22    1
     9    21    23    1
    10    21    20    1
    11    29    35   ar
    12    26    25    1
    13    19    20    1
    14    19    18    1
    15    32    33    1
    16    32    34   ar
    17    25    27    2
    18     5    18    1
    19     5     4    1
    20    18    17    1
    21    35    34   ar
    22     2     3    1
    23     2     1    1
    24     3     4    1
    25     4     1    1
    26     4     6    1
    27    17    16   ar
    28    17     7   ar
    29    16    10   ar
    30     6     7    1
    31     7     8   ar
    32    14    12    1
    33    10    11    1
    34    10     9   ar
    35    11    12    1
    36     8     9   ar
    37    12    15    1
    38    12    13    1
