@<TRIPOS>MOLECULE
4dv8_0LX_A_1.pdb
 29 30 0 0 0
SMALL
GASTEIGER

@<TRIPOS>ATOM
      1  O01       16.5120   19.8430   28.6200 O.2   802  0LX802     -0.5396
      2  C02       16.3440   19.0920   27.6880 C.2   802  0LX802      0.0865
      3  N03       15.4190   18.0210   27.7830 N.am  802  0LX802     -0.2030
      4  O04       14.6090   17.9380   28.8370 O.3   802  0LX802     -0.4026
      5  C05       17.2100   19.2400   26.4830 C.3   802  0LX802      0.0481
      6  C06       17.0150   20.5510   25.8350 C.3   802  0LX802      0.0065
      7  C07       15.5920   20.6730   25.2650 C.3   802  0LX802      0.0019
      8  C08       15.0220   22.0530   25.4850 C.3   802  0LX802      0.0188
      9  C09       13.5050   22.1210   25.2210 C.3   802  0LX802      0.0891
     10  N10       12.7720   22.6290   26.4160 N.3   802  0LX802     -0.2133
     11  C11       11.4890   23.1770   26.0530 C.3   802  0LX802      0.1150
     12  C12       10.6000   22.1900   25.4050 C.ar  802  0LX802     -0.0047
     13  C13       10.0420   21.1160   26.1290 C.ar  802  0LX802     -0.0006
     14  C14        9.1950   20.1840   25.4860 C.ar  802  0LX802      0.0294
     15  C15        8.9110   20.3360   24.1280 C.ar  802  0LX802      0.1401
     16  C16        9.4650   21.4110   23.4020 C.ar  802  0LX802      0.0294
     17  C17       10.3020   22.3380   24.0450 C.ar  802  0LX802     -0.0006
     18  F18        8.1330   19.4760   23.4930 F     802  0LX802     -0.2042
     19  C19       18.6900   19.0180   26.9290 C.3   802  0LX802      0.0404
     20  C20       18.8660   17.7350   27.7100 C.3   802  0LX802      0.1379
     21  O21       18.7740   16.6030   26.9350 O.3   802  0LX802     -0.3492
     22  C22       18.8620   15.3600   27.5460 C.3   802  0LX802      0.1745
     23  C23       20.2400   17.7390   28.3490 C.ar  802  0LX802      0.0047
     24  C24       20.3300   17.7300   29.7380 C.ar  802  0LX802      0.0004
     25  C25       21.5580   17.7720   30.3630 C.ar  802  0LX802      0.0294
     26  C26       22.7300   17.8360   29.5860 C.ar  802  0LX802      0.1401
     27  C27       22.6570   17.8400   28.2000 C.ar  802  0LX802      0.0294
     28  C28       21.4080   17.8010   27.5660 C.ar  802  0LX802      0.0004
     29  F29       23.9070   17.8910   30.2100 F     802  0LX802     -0.2042
@<TRIPOS>BOND
     1    16    17   ar
     2    16    15   ar
     3    18    15    1
     4    17    12   ar
     5    15    14   ar
     6     9     8    1
     7     9    10    1
     8     7     8    1
     9     7     6    1
    10    12    11    1
    11    12    13   ar
    12    14    13   ar
    13     6     5    1
    14    11    10    1
    15     5    19    1
    16     5     2    1
    17    19    20    1
    18    21    22    1
    19    21    20    1
    20    28    27   ar
    21    28    23   ar
    22     2     3   am
    23     2     1    2
    24    20    23    1
    25     3     4    1
    26    27    26   ar
    27    23    24   ar
    28    26    29    1
    29    26    25   ar
    30    24    25   ar
