@<TRIPOS>MOLECULE
4dve_BTN_A_1.pdb
 16 17 0 0 0
SMALL
GASTEIGER

@<TRIPOS>ATOM
      1  C11       45.3660  -46.2240   63.2600 C.2   201  BTN201      0.3649
      2  O11       45.2590  -45.0340   62.8850 O.co2 201  BTN201     -0.2457
      3  O12       45.9500  -47.0480   62.5420 O.co2 201  BTN201     -0.2457
      4  C10       44.7640  -46.6990   64.5960 C.3   201  BTN201      0.1141
      5  C9        45.6590  -46.4040   65.8020 C.3   201  BTN201      0.0118
      6  C8        45.0270  -46.9660   67.0970 C.3   201  BTN201      0.0015
      7  C7        45.7390  -46.4230   68.3460 C.3   201  BTN201      0.0129
      8  C2        45.1230  -46.9240   69.6400 C.3   201  BTN201      0.0729
      9  S1        43.4690  -46.2490   69.8720 S.3   201  BTN201     -0.1369
     10  C6        43.5130  -46.6550   71.6040 C.3   201  BTN201      0.0848
     11  C5        44.9700  -46.4720   72.0970 C.3   201  BTN201      0.1509
     12  N1        45.1850  -45.1340   72.5840 N.2   201  BTN201     -0.1859
     13  C3        46.0450  -44.4420   71.8420 C.1   201  BTN201      0.2386
     14  O3        46.4030  -43.2820   72.0520 O.2   201  BTN201     -0.2023
     15  N2        46.4670  -45.2340   70.8410 N.2   201  BTN201     -0.1860
     16  C4        45.9090  -46.5620   70.8930 C.3   201  BTN201      0.1500
@<TRIPOS>BOND
     1     3     1   ar
     2     2     1   ar
     3     1     4    1
     4     4     5    1
     5     5     6    1
     6     6     7    1
     7     7     8    1
     8     8     9    1
     9     8    16    1
    10     9    10    1
    11    15    16    1
    12    15    13    2
    13    16    11    1
    14    10    11    1
    15    13    14    2
    16    13    12    2
    17    11    12    1
