@<TRIPOS>MOLECULE
4dvg_GSP_A_1.pdb
 32 34 0 0 0
SMALL
GASTEIGER

@<TRIPOS>ATOM
      1  PG        43.4240   52.4830   10.0860 P.3   200  GSP200      0.4340
      2  O3B       42.7260   53.9210    9.8490 O.3   200  GSP200     -0.2405
      3  S1G       42.7730   51.3350    8.9880 S.3   200  GSP200      0.0416
      4  O2G       44.9470   52.6240    9.8670 O.2   200  GSP200     -0.2423
      5  O3G       43.1580   52.0490   11.5390 O.3   200  GSP200     -0.1305
      6  PB        43.2170   55.2840   10.5600 P.3   200  GSP200      0.2262
      7  O1B       42.5250   55.5060   11.8370 O.3   200  GSP200     -0.4369
      8  O2B       44.6880   55.3460   10.7630 O.2   200  GSP200     -0.5168
      9  PA        43.7740   57.4450    8.8500 P.3   200  GSP200      0.2189
     10  O1A       44.4460   58.2200    9.9160 O.3   200  GSP200     -0.4371
     11  O2A       44.7660   56.8170    7.9560 O.2   200  GSP200     -0.5170
     12  O3A       42.7330   56.3830    9.5010 O.3   200  GSP200     -0.2701
     13  O5'       42.7030   58.3170    8.0490 O.3   200  GSP200     -0.3112
     14  C5'       41.5800   57.6530    7.5020 C.3   200  GSP200      0.1813
     15  C4'       41.0940   58.4800    6.3200 C.3   200  GSP200      0.1799
     16  O4'       40.3120   59.5620    6.8060 O.3   200  GSP200     -0.3326
     17  C3'       42.2590   59.0690    5.5300 C.3   200  GSP200      0.2158
     18  O3'       42.0460   58.8800    4.1530 O.3   200  GSP200     -0.2175
     19  C2'       42.2350   60.5500    5.8280 C.3   200  GSP200      0.2310
     20  O2'       42.2760   61.2830    4.6320 O.3   200  GSP200     -0.2158
     21  C1'       40.8920   60.8110    6.4780 C.3   200  GSP200      0.2293
     22  N9        41.0980   61.6450    7.6780 N.pl3 200  GSP200     -0.2354
     23  C8        41.9260   61.3840    8.7260 C.3   200  GSP200      0.2246
     24  N7        41.8010   62.4190    9.5790 N.2   200  GSP200     -0.2322
     25  C5        40.9290   63.3240    9.1110 C.2   200  GSP200      0.2182
     26  C6        40.4500   64.5360    9.5770 C.1   200  GSP200      0.2372
     27  O6        40.8250   64.9920   10.6550 O.2   200  GSP200     -0.2069
     28  N1        39.5380   65.2400    8.8300 N.2   200  GSP200     -0.2485
     29  C2        39.0960   64.7410    7.6240 C.1   200  GSP200      0.2531
     30  N2        38.1950   65.4060    6.8830 N.pl3 200  GSP200     -0.0226
     31  N3        39.5840   63.5350    7.1850 N.2   200  GSP200     -0.3074
     32  C4        40.4810   62.8380    7.9120 C.2   200  GSP200      0.2300
@<TRIPOS>BOND
     1    18    17    1
     2    20    19    1
     3    17    19    1
     4    17    15    1
     5    19    21    1
     6    15    16    1
     7    15    14    1
     8    21    16    1
     9    21    22    1
    10    30    29    1
    11    31    29    2
    12    31    32    2
    13    14    13    1
    14    29    28    2
    15    22    32    1
    16    22    23    1
    17    32    25    1
    18    11     9    2
    19    13     9    1
    20    23    24    1
    21    28    26    2
    22     9    12    1
    23     9    10    1
    24     3     1    1
    25    25    26    1
    26    25    24    2
    27    12     6    1
    28    26    27    2
    29     2     1    1
    30     2     6    1
    31     4     1    2
    32     1     5    1
    33     6     8    2
    34     6     7    1
