@<TRIPOS>MOLECULE
4dvi_2IW_A_1.pdb
 32 37 0 0 0
SMALL
GASTEIGER

@<TRIPOS>ATOM
      1  C1        -4.0410   44.6030   26.7270 C.3   1402  2IW1402     0.0860
      2  N1        -6.0050   43.3070   26.9170 N.am  1402  2IW1402    -0.2081
      3  O1        -3.9120   42.1870   26.8600 O.2   1402  2IW1402    -0.2741
      4  C2        -3.3630   45.1160   28.0730 C.3   1402  2IW1402     0.0091
      5  N2       -13.0290   40.0250   29.3460 N.ar  1402  2IW1402    -0.2425
      6  O2        -7.6070   45.0120   27.0530 O.2   1402  2IW1402    -0.2741
      7  C3        -5.2680   45.5440   26.8410 C.3   1402  2IW1402     0.0860
      8  N3       -10.5210   39.0580   28.0520 N.am  1402  2IW1402    -0.1739
      9  O3        -9.1860   37.8050   26.6530 O.2   1402  2IW1402    -0.2680
     10  C4        -4.6250   43.1880   26.8460 C.2   1402  2IW1402     0.2351
     11  C5        -6.4600   44.6020   26.9500 C.2   1402  2IW1402     0.2351
     12  C6        -5.1390   46.4670   28.1660 C.3   1402  2IW1402     0.0091
     13  C7        -4.1390   44.5380   29.2590 C.3   1402  2IW1402     0.0005
     14  C8        -3.6140   46.5880   28.1720 C.3   1402  2IW1402     0.0010
     15  C9        -5.1400   45.4630   29.3620 C.3   1402  2IW1402     0.0005
     16  C10      -11.5650   38.1740   28.2460 C.ar  1402  2IW1402     0.0912
     17  C11       -9.4050   38.8610   27.2580 C.2   1402  2IW1402     0.2690
     18  C12      -15.3130   39.5990   30.1570 C.ar  1402  2IW1402     0.0164
     19  C13      -15.1940   38.2200   29.7200 C.ar  1402  2IW1402    -0.0188
     20  C14      -13.9770   37.7040   29.0700 C.ar  1402  2IW1402     0.0150
     21  C15      -12.8080   38.6700   28.8810 C.ar  1402  2IW1402     0.0962
     22  C16      -14.1910   40.5100   29.9650 C.ar  1402  2IW1402     0.0986
     23  C17      -13.7680   36.3300   28.6290 C.ar  1402  2IW1402     0.0013
     24  C18      -12.5340   35.8550   28.0140 C.ar  1402  2IW1402     0.0014
     25  C19      -11.4400   36.7710   27.8310 C.ar  1402  2IW1402     0.0181
     26  C20      -16.3850   37.3710   29.9340 C.3   1402  2IW1402     0.0311
     27  C21       -7.9910   40.5720   28.4090 C.ar  1402  2IW1402     0.0059
     28  C22       -7.1310   41.7170   28.2900 C.ar  1402  2IW1402     0.0155
     29  C23       -6.8200   42.2350   26.9700 C.ar  1402  2IW1402     0.0606
     30  C24       -7.3270   41.6750   25.7380 C.ar  1402  2IW1402     0.0155
     31  C25       -8.1920   40.5260   25.8480 C.ar  1402  2IW1402     0.0059
     32  C26       -8.4980   40.0150   27.1790 C.ar  1402  2IW1402     0.0555
@<TRIPOS>BOND
     1    30    31   ar
     2    30    29   ar
     3    31    32   ar
     4     9    17    2
     5     1     7    1
     6     1    10    1
     7     1     4    1
     8     7    11    1
     9     7    12    1
    10    10     3    2
    11    10     2   am
    12     2    11   am
    13     2    29    1
    14    11     6    2
    15    29    28   ar
    16    32    17    1
    17    32    27   ar
    18    17     8   am
    19    25    24   ar
    20    25    16   ar
    21    24    23   ar
    22     8    16    1
    23     4    14    1
    24     4    13    1
    25    12    14    1
    26    12    15    1
    27    16    21   ar
    28    28    27   ar
    29    23    20   ar
    30    21    20   ar
    31    21     5   ar
    32    20    19   ar
    33    13    15    1
    34     5    22   ar
    35    19    26    1
    36    19    18   ar
    37    22    18   ar
