@<TRIPOS>MOLECULE
4dvk_BMA_A_1.pdb
 11 11 0 0 0
SMALL
GASTEIGER

@<TRIPOS>ATOM
      1  C1       -21.3640   43.0800    0.1750 C.3   1103  BMA1103     0.1777
      2  C2       -22.6270   42.8690   -0.6910 C.3   1103  BMA1103     0.2141
      3  C3       -22.9390   41.3670   -0.8180 C.3   1103  BMA1103     0.2173
      4  C4       -21.7160   40.6290   -1.3960 C.3   1103  BMA1103     0.2142
      5  C5       -20.4970   40.9910   -0.5210 C.3   1103  BMA1103     0.1810
      6  C6       -19.1810   40.3770   -1.0070 C.3   1103  BMA1103     0.2141
      7  O2       -22.3420   43.4780   -1.9660 O.3   1103  BMA1103    -0.2176
      8  O3       -24.1700   41.1250   -1.5310 O.3   1103  BMA1103    -0.2175
      9  O4       -21.9640   39.2210   -1.3580 O.3   1103  BMA1103    -0.2176
     10  O5       -20.2370   42.4140   -0.3920 O.3   1103  BMA1103    -0.3481
     11  O6       -18.3680   40.4070    0.1750 O.3   1103  BMA1103    -0.2176
@<TRIPOS>BOND
     1     7     2    1
     2     8     3    1
     3     4     9    1
     4     4     3    1
     5     4     5    1
     6     6     5    1
     7     6    11    1
     8     3     2    1
     9     2     1    1
    10     5    10    1
    11    10     1    1
