@<TRIPOS>MOLECULE
4dvl_MAN_A_1.pdb
 11 11 0 0 0
SMALL
GASTEIGER

@<TRIPOS>ATOM
      1  C1        14.3060   28.2310   46.6140 C.3   1105  MAN1105     0.1777
      2  C2        13.3780   29.2010   47.3480 C.3   1105  MAN1105     0.2141
      3  C3        12.7280   30.0260   46.1850 C.3   1105  MAN1105     0.2173
      4  C4        13.8060   30.8250   45.3350 C.3   1105  MAN1105     0.2142
      5  C5        14.8430   29.8170   44.7990 C.3   1105  MAN1105     0.1810
      6  C6        16.0670   30.5600   44.2180 C.3   1105  MAN1105     0.2141
      7  O2        14.1030   29.8890   48.4500 O.3   1105  MAN1105    -0.2176
      8  O3        11.4880   30.7090   46.5960 O.3   1105  MAN1105    -0.2175
      9  O4        13.2440   31.5390   44.2190 O.3   1105  MAN1105    -0.2176
     10  O5        15.3010   28.8910   45.8290 O.3   1105  MAN1105    -0.3481
     11  O6        17.2530   30.3570   45.0530 O.3   1105  MAN1105    -0.2176
@<TRIPOS>BOND
     1     6     5    1
     2     6    11    1
     3     9     4    1
     4     5     4    1
     5     5    10    1
     6     4     3    1
     7    10     1    1
     8     3     8    1
     9     3     2    1
    10     1     2    1
    11     2     7    1
