@<TRIPOS>MOLECULE
4dvl_BMA_A_1.pdb
 11 11 0 0 0
SMALL
GASTEIGER

@<TRIPOS>ATOM
      1  C1        15.0790   24.7490   43.8800 C.3   1103  BMA1103     0.1777
      2  C2        14.3300   26.0680   43.9790 C.3   1103  BMA1103     0.2141
      3  C3        14.1180   26.2660   45.4890 C.3   1103  BMA1103     0.2173
      4  C4        13.3050   25.1740   46.1710 C.3   1103  BMA1103     0.2142
      5  C5        13.9810   23.8420   45.8760 C.3   1103  BMA1103     0.1810
      6  C6        13.0390   22.6960   46.3690 C.3   1103  BMA1103     0.2141
      7  O2        13.0580   25.9990   43.2760 O.3   1103  BMA1103    -0.2176
      8  O3        13.4940   27.4980   45.7280 O.3   1103  BMA1103    -0.2175
      9  O4        13.2840   25.4340   47.5640 O.3   1103  BMA1103    -0.2176
     10  O5        14.2140   23.7440   44.4360 O.3   1103  BMA1103    -0.3481
     11  O6        13.6560   21.3820   46.2970 O.3   1103  BMA1103    -0.2176
@<TRIPOS>BOND
     1     7     2    1
     2     1     2    1
     3     1    10    1
     4     2     3    1
     5    10     5    1
     6     3     8    1
     7     3     4    1
     8     5     4    1
     9     5     6    1
    10     4     9    1
    11    11     6    1
