@<TRIPOS>MOLECULE
4dvl_JKM_A_1.pdb
 20 22 0 0 0
SMALL
GASTEIGER

@<TRIPOS>ATOM
      1  P          9.8900   20.2490   12.6880 P.3   1117  JKM1117     0.2142
      2  N1        10.9130   24.2750   15.5760 N.am  1117  JKM1117    -0.1767
      3  C2        12.3970   24.4740   15.4660 C.1   1117  JKM1117     0.2845
      4  O2        13.0070   24.1880   14.4690 O.2   1117  JKM1117    -0.1918
      5  N3        13.0710   25.0270   16.5840 N.2   1117  JKM1117    -0.2452
      6  C4        12.3640   25.3260   17.7000 C.1   1117  JKM1117     0.2182
      7  O4        12.9500   25.8450   18.7850 O.2   1117  JKM1117    -0.2085
      8  C5        10.9520   25.1320   17.8670 C.2   1117  JKM1117     0.1242
      9  C6        10.2820   24.6350   16.7940 C.2   1117  JKM1117     0.0929
     10  C1'        9.9000   23.7480   14.5720 C.3   1117  JKM1117     0.2371
     11  C2'       10.1720   22.4940   13.7300 C.3   1117  JKM1117     0.1991
     12  O2'       10.0960   21.1760   14.1410 O.3   1117  JKM1117    -0.3096
     13  O20        8.9860   21.5090   11.9810 O.3   1117  JKM1117    -0.3113
     14  O2P        8.7960   19.1210   13.0200 O.3   1117  JKM1117    -0.4373
     15  C3'        8.8340   22.5590   12.8870 C.3   1117  JKM1117     0.1830
     16  O3P       11.1160   19.7220   12.0140 O.2   1117  JKM1117    -0.5172
     17  C4'        8.6930   24.0530   12.5550 C.3   1117  JKM1117     0.1799
     18  O4'        9.4370   24.7090   13.5890 O.3   1117  JKM1117    -0.3320
     19  C5'        7.1730   24.3500   12.6680 C.3   1117  JKM1117     0.2141
     20  O5'        6.5150   23.8210   11.5410 O.3   1117  JKM1117    -0.2176
@<TRIPOS>BOND
     1    20    19    1
     2    13     1    1
     3    13    15    1
     4    16     1    2
     5    17    19    1
     6    17    15    1
     7    17    18    1
     8     1    14    1
     9     1    12    1
    10    15    11    1
    11    18    10    1
    12    11    12    1
    13    11    10    1
    14     4     3    2
    15    10     2    1
    16     3     2   am
    17     3     5    2
    18     2     9    1
    19     5     6    2
    20     9     8    2
    21     6     8    1
    22     6     7    2
