@<TRIPOS>MOLECULE
4dvn_MAN_B_1.pdb
 11 11 0 0 0
SMALL
GASTEIGER

@<TRIPOS>ATOM
      1  C1       -17.3820  -59.3890   35.9370 C.3   1104  MAN1104     0.1777
      2  C2       -16.2530  -60.0930   36.6960 C.3   1104  MAN1104     0.2141
      3  C3       -15.2790  -60.7610   35.7280 C.3   1104  MAN1104     0.2173
      4  C4       -16.0040  -61.6550   34.7240 C.3   1104  MAN1104     0.2142
      5  C5       -17.1380  -60.8970   34.0360 C.3   1104  MAN1104     0.1810
      6  C6       -18.0090  -61.7930   33.1840 C.3   1104  MAN1104     0.2141
      7  O2       -16.7910  -61.0340   37.6180 O.3   1104  MAN1104    -0.2176
      8  O3       -14.3040  -61.5110   36.4430 O.3   1104  MAN1104    -0.2175
      9  O4       -15.0800  -62.1250   33.7460 O.3   1104  MAN1104    -0.2176
     10  O5       -18.0030  -60.2900   35.0150 O.3   1104  MAN1104    -0.3481
     11  O6       -19.1050  -61.0820   32.6220 O.3   1104  MAN1104    -0.2176
@<TRIPOS>BOND
     1    11     6    1
     2     6     5    1
     3     9     4    1
     4     5     4    1
     5     5    10    1
     6     4     3    1
     7    10     1    1
     8     3     8    1
     9     3     2    1
    10     1     2    1
    11     2     7    1
