@<TRIPOS>MOLECULE
4dvn_BMA_A_1.pdb
 11 11 0 0 0
SMALL
GASTEIGER

@<TRIPOS>ATOM
      1  C1       -20.4930  -28.4650   44.2040 C.3   1103  BMA1103     0.1777
      2  C2       -21.0130  -27.0310   44.3470 C.3   1103  BMA1103     0.2141
      3  C3       -21.2250  -26.6880   45.8190 C.3   1103  BMA1103     0.2173
      4  C4       -22.0880  -27.7390   46.5120 C.3   1103  BMA1103     0.2142
      5  C5       -21.4550  -29.1150   46.3240 C.3   1103  BMA1103     0.1810
      6  C6       -22.2640  -30.2360   46.9430 C.3   1103  BMA1103     0.2141
      7  O2       -22.2190  -26.8500   43.6110 O.3   1103  BMA1103    -0.2176
      8  O3       -21.7990  -25.3930   45.9320 O.3   1103  BMA1103    -0.2175
      9  O4       -22.2520  -27.4430   47.8960 O.3   1103  BMA1103    -0.2176
     10  O5       -21.3400  -29.3820   44.9150 O.3   1103  BMA1103    -0.3481
     11  O6       -21.8350  -31.5520   46.5640 O.3   1103  BMA1103    -0.2176
@<TRIPOS>BOND
     1     7     2    1
     2     1     2    1
     3     1    10    1
     4     2     3    1
     5    10     5    1
     6     3     8    1
     7     3     4    1
     8     5     4    1
     9     5     6    1
    10     4     9    1
    11    11     6    1
