@<TRIPOS>MOLECULE
4dvn_U2P_A_1.pdb
 21 22 0 0 0
SMALL
GASTEIGER

@<TRIPOS>ATOM
      1  O5'      -22.7320  -37.0450   19.5430 O.3   1118  U2P1118    -0.2176
      2  C5'      -23.8620  -36.3520   19.0430 C.3   1118  U2P1118     0.2142
      3  C4'      -24.4770  -35.4810   20.1320 C.3   1118  U2P1118     0.1828
      4  O4'      -24.8250  -36.3240   21.2420 O.3   1118  U2P1118    -0.3319
      5  C1'      -24.5690  -35.6620   22.5250 C.3   1118  U2P1118     0.2373
      6  N1       -23.5730  -36.3980   23.3690 N.am  1118  U2P1118    -0.1767
      7  C6       -22.4700  -37.0600   22.8040 C.2   1118  U2P1118     0.0929
      8  C5       -21.5520  -37.7440   23.5690 C.2   1118  U2P1118     0.1242
      9  C4       -21.7360  -37.7590   24.9980 C.1   1118  U2P1118     0.2182
     10  O4       -20.9280  -38.3410   25.7610 O.2   1118  U2P1118    -0.2085
     11  N3       -22.8320  -37.0960   25.5140 N.2   1118  U2P1118    -0.2452
     12  C2       -23.7390  -36.4430   24.7290 C.1   1118  U2P1118     0.2845
     13  O2       -24.7090  -35.9000   25.2650 O.2   1118  U2P1118    -0.1918
     14  C2'      -24.1170  -34.2100   22.1650 C.3   1118  U2P1118     0.2063
     15  O2'      -25.2440  -33.4130   21.9600 O.3   1118  U2P1118    -0.2656
     16  P        -25.7270  -32.5180   23.1840 P.3   1118  U2P1118     0.5327
     17  O1P      -25.9840  -33.3160   24.3640 O.3   1118  U2P1118    -0.1145
     18  O2P      -24.6800  -31.3650   23.5220 O.3   1118  U2P1118    -0.1145
     19  O3P      -26.9990  -31.8070   22.5940 O.2   1118  U2P1118    -0.2224
     20  C3'      -23.5180  -34.4060   20.7080 C.3   1118  U2P1118     0.2133
     21  O3'      -23.4940  -33.1940   19.8860 O.3   1118  U2P1118    -0.2176
@<TRIPOS>BOND
     1     2     1    1
     2     2     3    1
     3    21    20    1
     4     3    20    1
     5     3     4    1
     6    20    14    1
     7     4     5    1
     8    15    14    1
     9    15    16    1
    10    14     5    1
    11     5     6    1
    12    19    16    2
    13     7     6    1
    14     7     8    2
    15    16    18    1
    16    16    17    1
    17     6    12   am
    18     8     9    1
    19    12    13    2
    20    12    11    2
    21     9    11    2
    22     9    10    2
