@<TRIPOS>MOLECULE
4dvq_1CA_A_1.pdb
 24 27 0 0 0
SMALL
GASTEIGER

@<TRIPOS>ATOM
      1  C1       -34.3930   19.8290  -20.3910 C.3   602  1CA602      0.0118
      2  C2       -35.1870   18.7820  -21.1520 C.3   602  1CA602      0.0694
      3  C3       -34.3730   17.5580  -21.4250 C.2   602  1CA602      0.1725
      4  C4       -33.2950   17.1940  -20.4940 C.2   602  1CA602      0.0289
      5  C5       -32.9310   17.9950  -19.4910 C.2   602  1CA602     -0.0420
      6  C6       -31.8320   17.5370  -18.5730 C.3   602  1CA602      0.0221
      7  C7       -30.7600   18.6020  -18.4300 C.3   602  1CA602      0.0044
      8  C8       -31.3590   19.9460  -18.0530 C.3   602  1CA602      0.0006
      9  C9       -32.4260   20.3750  -19.0470 C.3   602  1CA602      0.0035
     10  C10      -33.5600   19.3360  -19.2220 C.3   602  1CA602      0.0157
     11  C11      -32.9500   21.7780  -18.7080 C.3   602  1CA602      0.0003
     12  C12      -31.9050   22.8550  -18.3710 C.3   602  1CA602      0.0004
     13  C13      -30.6700   22.3570  -17.6380 C.3   602  1CA602      0.0066
     14  C14      -30.2650   20.9880  -18.1200 C.3   602  1CA602      0.0004
     15  C15      -28.9680   20.7580  -17.3590 C.3   602  1CA602      0.0004
     16  C16      -28.3200   22.1530  -17.3630 C.3   602  1CA602      0.0074
     17  C17      -29.3730   23.1120  -17.9360 C.3   602  1CA602      0.0603
     18  C18      -30.8840   22.2920  -16.1540 C.3   602  1CA602      0.0004
     19  C19      -34.4400   19.1950  -17.9730 C.3   602  1CA602      0.0041
     20  C20      -29.2950   24.5230  -17.4370 C.2   602  1CA602      0.1834
     21  C21      -30.2910   25.5410  -17.9110 C.3   602  1CA602      0.2458
     22  O3       -34.5960   16.8880  -22.4230 O.2   602  1CA602     -0.2914
     23  O20      -28.4320   24.8840  -16.6730 O.2   602  1CA602     -0.2933
     24  O21      -29.9030   26.8390  -17.4950 O.3   602  1CA602     -0.2119
@<TRIPOS>BOND
     1    22     3    2
     2     3     2    1
     3     3     4    1
     4     2     1    1
     5     4     5    2
     6     1    10    1
     7     5    10    1
     8     5     6    1
     9    10     9    1
    10    10    19    1
    11     9    11    1
    12     9     8    1
    13    11    12    1
    14     6     7    1
    15     7     8    1
    16    12    13    1
    17    14     8    1
    18    14    13    1
    19    14    15    1
    20    17    13    1
    21    17    20    1
    22    17    16    1
    23    21    24    1
    24    21    20    1
    25    13    18    1
    26    20    23    2
    27    16    15    1
