@<TRIPOS>MOLECULE
4dvq_HEM_A_1.pdb
 43 50 0 0 0
SMALL
GASTEIGER

@<TRIPOS>ATOM
      1  CHA      -35.5000   24.5030  -17.9930 C.2   601  HEM601      0.0000
      2  CHB      -33.5070   23.8040  -13.6710 C.2   601  HEM601      0.0000
      3  CHC      -36.1070   19.7600  -13.1850 C.2   601  HEM601      0.0000
      4  CHD      -37.8770   20.2690  -17.6030 C.2   601  HEM601      0.0000
      5  C1A      -34.7190   24.6510  -16.8720 C.2   601  HEM601      0.0000
      6  C2A      -33.7680   25.7270  -16.6280 C.2   601  HEM601      0.0000
      7  C3A      -33.2390   25.5290  -15.4220 C.2   601  HEM601      0.0000
      8  C4A      -33.8300   24.3340  -14.8920 C.2   601  HEM601      0.0000
      9  CMA      -32.1630   26.3860  -14.7020 C.3   601  HEM601      0.0000
     10  CAA      -33.4630   26.9130  -17.5880 C.3   601  HEM601      0.0000
     11  CBA      -34.5020   27.9970  -17.2990 C.3   601  HEM601      0.0000
     12  CGA      -34.2160   29.3190  -17.9880 C.2   601  HEM601      0.0000
     13  O1A      -33.4180   29.3840  -18.9720 O.co2 601  HEM601      0.0000
     14  O2A      -34.8030   30.3340  -17.5230 O.co2 601  HEM601      0.0000
     15  C1B      -34.0560   22.6710  -13.1620 C.ar  601  HEM601      0.0000
     16  C2B      -33.8220   22.1640  -11.8400 C.ar  601  HEM601      0.0000
     17  C3B      -34.5560   21.0560  -11.7250 C.ar  601  HEM601      0.0000
     18  C4B      -35.2530   20.8290  -12.9560 C.ar  601  HEM601      0.0000
     19  CMB      -32.9070   22.8510  -10.7980 C.3   601  HEM601      0.0000
     20  CAB      -34.6940   20.1280  -10.5280 C.2   601  HEM601      0.0000
     21  CBB      -34.2190   20.5460   -9.3610 C.2   601  HEM601      0.0000
     22  C1C      -36.8130   19.5220  -14.3200 C.2   601  HEM601      0.0000
     23  C2C      -37.7320   18.4300  -14.5730 C.2   601  HEM601      0.0000
     24  C3C      -38.1850   18.6000  -15.7940 C.2   601  HEM601      0.0000
     25  C4C      -37.6140   19.7800  -16.3440 C.2   601  HEM601      0.0000
     26  CMC      -38.1410   17.2530  -13.6430 C.3   601  HEM601      0.0000
     27  CAC      -39.1640   17.6850  -16.5020 C.2   601  HEM601      0.0000
     28  CBC      -39.8760   16.8990  -15.7280 C.2   601  HEM601      0.0000
     29  C1D      -37.4040   21.4370  -18.1310 C.ar  601  HEM601      0.0000
     30  C2D      -37.6530   21.8610  -19.4930 C.ar  601  HEM601      0.0000
     31  C3D      -36.9020   23.1650  -19.6120 C.ar  601  HEM601      0.0000
     32  C4D      -36.2690   23.3990  -18.3200 C.ar  601  HEM601      0.0000
     33  CMD      -38.4830   21.1830  -20.6000 C.3   601  HEM601      0.0000
     34  CAD      -36.8800   24.0560  -20.8490 C.3   601  HEM601      0.0000
     35  CBD      -37.9510   25.1240  -20.6320 C.3   601  HEM601      0.0000
     36  CGD      -37.9220   26.1760  -21.7110 C.2   601  HEM601      0.0000
     37  O1D      -39.0120   26.6890  -22.0270 O.co2 601  HEM601      0.0000
     38  O2D      -36.8410   26.5160  -22.2670 O.co2 601  HEM601      0.0000
     39  NA       -34.7420   23.8410  -15.7840 N.2   601  HEM601      0.0000
     40  NB       -34.9360   21.8500  -13.8170 N.ar  601  HEM601      0.0000
     41  NC       -36.7960   20.3340  -15.4080 N.2   601  HEM601      0.0000
     42  ND       -36.5960   22.3570  -17.4640 N.ar  601  HEM601      0.0000
     43 FE        -35.7980   22.1400  -15.5980 Fe    601  HEM601      0.0000
@<TRIPOS>BOND
     1    38    36   ar
     2    37    36   ar
     3    36    35    1
     4    34    35    1
     5    34    31    1
     6    33    30    1
     7    31    30   ar
     8    31    32   ar
     9    30    29   ar
    10    13    12   ar
    11    32     1    2
    12    32    42   ar
    13    29     4    2
    14    29    42   ar
    15     1     5    1
    16    12    14   ar
    17    12    11    1
    18     4    25    1
    19    10    11    1
    20    10     6    1
    21    42    43    1
    22     5     6    1
    23     5    39    2
    24     6     7    2
    25    27    24    1
    26    27    28    2
    27    25    24    1
    28    25    41    2
    29    24    23    2
    30    39    43    1
    31    39     8    1
    32    43    41    1
    33    43    40    1
    34     7     8    1
    35     7     9    1
    36    41    22    1
    37     8     2    2
    38    23    22    1
    39    23    26    1
    40    22     3    2
    41    40    15   ar
    42    40    18   ar
    43     2    15    1
    44     3    18    1
    45    15    16   ar
    46    18    17   ar
    47    16    17   ar
    48    16    19    1
    49    17    20    1
    50    20    21    2
