@<TRIPOS>MOLECULE
4dvr_0LY_G_1.pdb
 47 48 0 0 0
SMALL
GASTEIGER

@<TRIPOS>ATOM
      1  C2        36.0950   21.1380   90.1280 C.ar  508  0LY508      0.0180
      2  C7        35.7490   21.6420   88.8970 C.ar  508  0LY508     -0.0460
      3  C6        36.7330   22.1950   88.0870 C.ar  508  0LY508     -0.0394
      4  C5        38.0760   22.2360   88.5130 C.ar  508  0LY508      0.0339
      5  N8        39.0520   22.8230   87.6330 N.am  508  0LY508     -0.2777
      6  C9        40.4010   22.4270   87.5440 C.2   508  0LY508      0.3031
      7  O23       40.9030   21.5490   88.2080 O.2   508  0LY508     -0.2648
      8  C10       41.2940   23.1850   86.5180 C.2   508  0LY508      0.2995
      9  O22       40.8170   24.0890   85.8220 O.2   508  0LY508     -0.2652
     10  N11       42.6090   22.8120   86.4410 N.am  508  0LY508     -0.3046
     11  C12       43.6060   23.3780   85.5310 C.3   508  0LY508      0.0269
     12  C17       44.9620   22.6460   85.6390 C.3   508  0LY508     -0.0166
     13  C16       46.0040   23.1370   84.5780 C.3   508  0LY508      0.0157
     14  C21       46.9730   22.0040   84.1750 C.3   508  0LY508     -0.0470
     15  C20       46.8650   24.2530   85.1840 C.3   508  0LY508     -0.0470
     16  N15       45.3690   23.6300   83.3390 N.3   508  0LY508     -0.3060
     17  C14       44.1020   22.9710   83.0120 C.3   508  0LY508      0.0157
     18  C19       44.3410   21.4720   82.7600 C.3   508  0LY508     -0.0470
     19  C18       43.5830   23.5410   81.6890 C.3   508  0LY508     -0.0470
     20  C13       43.0390   23.1960   84.1090 C.3   508  0LY508     -0.0166
     21  C4        38.3890   21.7130   89.7800 C.ar  508  0LY508     -0.0394
     22  C3        37.3970   21.1610   90.5850 C.ar  508  0LY508     -0.0460
     23 BR         34.7320   20.3710   91.2560 Br    508  0LY508     -0.0503
     24  H1        34.6990   21.6000   88.5790 H     508  0LY508      0.0629
     25  H2        36.4160   22.5840   87.1150 H     508  0LY508      0.0636
     26  H3        38.7240   23.5600   87.0380 H     508  0LY508      0.1553
     27  H4        42.9490   22.0470   87.0360 H     508  0LY508      0.1494
     28  H5        43.7360   24.4730   85.7720 H     508  0LY508      0.0499
     29  H6        45.3860   22.7320   86.6560 H     508  0LY508      0.0301
     30  H7        44.7900   21.5530   85.5270 H     508  0LY508      0.0301
     31  H8        47.2580   22.0500   83.1140 H     508  0LY508      0.0247
     32  H9        46.5780   20.9960   84.3490 H     508  0LY508      0.0247
     33  H10       47.9240   22.0350   84.7230 H     508  0LY508      0.0247
     34  H11       47.4010   23.9030   86.0780 H     508  0LY508      0.0247
     35  H12       47.6400   24.6050   84.4880 H     508  0LY508      0.0247
     36  H13       46.2930   25.1330   85.4970 H     508  0LY508      0.0247
     37  H14       45.2480   24.6500   83.3540 H     508  0LY508      0.1229
     38  H16       45.2600   21.2830   82.1880 H     508  0LY508      0.0247
     39  H17       44.4060   20.8810   83.6830 H     508  0LY508      0.0247
     40  H18       43.5380   21.0120   82.1680 H     508  0LY508      0.0247
     41  H19       42.6200   23.0930   81.4110 H     508  0LY508      0.0247
     42  H20       43.4260   24.6270   81.7080 H     508  0LY508      0.0247
     43  H21       44.2700   23.3420   80.8540 H     508  0LY508      0.0247
     44  H22       42.4000   24.0640   83.8550 H     508  0LY508      0.0301
     45  H23       42.3260   22.3450   84.0860 H     508  0LY508      0.0301
     46  H24       39.4100   21.7190   90.1650 H     508  0LY508      0.0636
     47  H25       37.6530   20.7540   91.5700 H     508  0LY508      0.0629
@<TRIPOS>BOND
     1    43    19    1
     2    41    19    1
     3    19    42    1
     4    19    17    1
     5    40    18    1
     6    38    18    1
     7    18    17    1
     8    18    39    1
     9    17    16    1
    10    17    20    1
    11    31    14    1
    12    16    37    1
    13    16    13    1
    14    44    20    1
    15    45    20    1
    16    20    11    1
    17    14    32    1
    18    14    13    1
    19    14    33    1
    20    35    15    1
    21    13    15    1
    22    13    12    1
    23    15    36    1
    24    15    34    1
    25    30    12    1
    26    11    12    1
    27    11    28    1
    28    11    10    1
    29    12    29    1
    30     9     8    2
    31    10     8   am
    32    10    27    1
    33     8     6    1
    34    26     5    1
    35    25     3    1
    36     6     5   am
    37     6     7    2
    38     5     4    1
    39     3     4   ar
    40     3     2   ar
    41     4    21   ar
    42    24     2    1
    43     2     1   ar
    44    21    46    1
    45    21    22   ar
    46     1    22   ar
    47     1    23    1
    48    22    47    1
