@<TRIPOS>MOLECULE
4dvs_0LY_A_1.pdb
 47 48 0 0 0
SMALL
GASTEIGER

@<TRIPOS>ATOM
      1  C2        25.4840  -15.1990   43.4050 C.ar  512  0LY512      0.0180
      2  C7        26.8580  -15.1850   43.3690 C.ar  512  0LY512     -0.0460
      3  C6        27.5050  -15.4390   42.1700 C.ar  512  0LY512     -0.0394
      4  C5        26.7680  -15.7180   41.0010 C.ar  512  0LY512      0.0339
      5  N8        27.4930  -15.9510   39.7920 N.am  512  0LY512     -0.2777
      6  C9        27.0070  -15.6610   38.5050 C.2   512  0LY512      0.3031
      7  O23       25.9080  -15.2130   38.2710 O.2   512  0LY512     -0.2648
      8  C10       27.9570  -15.9510   37.3210 C.2   512  0LY512      0.2995
      9  O22       29.0850  -16.4080   37.5370 O.2   512  0LY512     -0.2652
     10  N11       27.4940  -15.6930   36.0580 N.am  512  0LY512     -0.3046
     11  C12       28.2530  -15.8850   34.8120 C.3   512  0LY512      0.0269
     12  C17       27.4860  -15.3410   33.5870 C.3   512  0LY512     -0.0166
     13  C16       28.3180  -15.3750   32.2630 C.3   512  0LY512      0.0157
     14  C21       27.9970  -16.6600   31.4930 C.3   512  0LY512     -0.0470
     15  C20       27.9270  -14.2040   31.3390 C.3   512  0LY512     -0.0470
     16  N15       29.7750  -15.2860   32.4910 N.3   512  0LY512     -0.3060
     17  C14       30.1510  -14.4990   33.6720 C.3   512  0LY512      0.0157
     18  C19       29.6830  -13.0420   33.5020 C.3   512  0LY512     -0.0470
     19  C18       31.6840  -14.4560   33.7700 C.3   512  0LY512     -0.0470
     20  C13       29.5860  -15.1090   34.9750 C.3   512  0LY512     -0.0166
     21  C4        25.3670  -15.7100   41.0770 C.ar  512  0LY512     -0.0394
     22  C3        24.7270  -15.4560   42.2840 C.ar  512  0LY512     -0.0460
     23 BR         24.5830  -14.8410   45.0690 Br    512  0LY512     -0.0503
     24  H1        27.4160  -14.9740   44.2900 H     512  0LY512      0.0629
     25  H2        28.5990  -15.4200   42.1810 H     512  0LY512      0.0636
     26  H3        28.4240  -16.3090   39.8930 H     512  0LY512      0.1553
     27  H4        26.5510  -15.3060   35.9370 H     512  0LY512      0.1494
     28  H5        28.4520  -16.9890   34.6820 H     512  0LY512      0.0499
     29  H6        26.5280  -15.8750   33.4450 H     512  0LY512      0.0301
     30  H7        27.1630  -14.2990   33.8050 H     512  0LY512      0.0301
     31  H8        26.9270  -16.7250   31.2550 H     512  0LY512      0.0247
     32  H9        28.5240  -16.7100   30.5300 H     512  0LY512      0.0247
     33  H10       28.2440  -17.5770   32.0400 H     512  0LY512      0.0247
     34  H11       28.7840  -13.8060   30.7760 H     512  0LY512      0.0247
     35  H12       27.4770  -13.3530   31.8640 H     512  0LY512      0.0247
     36  H13       27.1940  -14.4850   30.5720 H     512  0LY512      0.0247
     37  H14       30.2120  -16.2140   32.5260 H     512  0LY512      0.1229
     38  H16       29.8410  -12.6670   32.4810 H     512  0LY512      0.0247
     39  H17       28.6210  -12.8950   33.7410 H     512  0LY512      0.0247
     40  H18       30.2330  -12.3460   34.1490 H     512  0LY512      0.0247
     41  H19       32.0120  -13.8960   34.6560 H     512  0LY512      0.0247
     42  H20       32.1490  -15.4460   33.8390 H     512  0LY512      0.0247
     43  H21       32.1400  -13.9590   32.9030 H     512  0LY512      0.0247
     44  H22       30.3380  -15.7680   35.4500 H     512  0LY512      0.0301
     45  H23       29.4640  -14.2930   35.7190 H     512  0LY512      0.0301
     46  H24       24.7450  -15.9120   40.2030 H     512  0LY512      0.0636
     47  H25       23.6320  -15.4600   42.3350 H     512  0LY512      0.0629
@<TRIPOS>BOND
     1    32    14    1
     2    36    15    1
     3    34    15    1
     4    31    14    1
     5    15    35    1
     6    15    13    1
     7    14    33    1
     8    14    13    1
     9    13    16    1
    10    13    12    1
    11    38    18    1
    12    16    37    1
    13    16    17    1
    14    43    19    1
    15    29    12    1
    16    18    17    1
    17    18    39    1
    18    18    40    1
    19    12    30    1
    20    12    11    1
    21    17    19    1
    22    17    20    1
    23    19    42    1
    24    19    41    1
    25    28    11    1
    26    11    20    1
    27    11    10    1
    28    20    44    1
    29    20    45    1
    30    27    10    1
    31    10     8   am
    32     8     9    2
    33     8     6    1
    34     7     6    2
    35     6     5   am
    36     5    26    1
    37     5     4    1
    38    46    21    1
    39     4    21   ar
    40     4     3   ar
    41    21    22   ar
    42     3    25    1
    43     3     2   ar
    44    22    47    1
    45    22     1   ar
    46     2     1   ar
    47     2    24    1
    48     1    23    1
