@<TRIPOS>MOLECULE
4dvt_0LZ_A_1.pdb
 42 44 0 0 0
SMALL
GASTEIGER

@<TRIPOS>ATOM
      1  N01       27.6350  -16.0480   36.1810 N.am  512  0LZ512     -0.3058
      2  C02       27.9810  -16.2660   37.5110 C.2   512  0LZ512      0.2994
      3  C03       26.9250  -15.9760   38.6540 C.2   512  0LZ512      0.3031
      4  N04       27.2430  -16.1920   40.0190 N.am  512  0LZ512     -0.2777
      5  C05       26.3890  -15.9690   41.1610 C.ar  512  0LZ512      0.0366
      6  O06       25.8330  -15.5610   38.3010 O.2   512  0LZ512     -0.2648
      7  O07       29.0890  -16.6860   37.8240 O.2   512  0LZ512     -0.2652
      8  C08       26.9130  -15.9050   42.4600 C.ar  512  0LZ512     -0.0389
      9  C09       26.1170  -15.6920   43.5780 C.ar  512  0LZ512     -0.0388
     10  C10       24.7490  -15.5330   43.4450 C.ar  512  0LZ512      0.0762
     11  C11       24.1930  -15.5910   42.1680 C.ar  512  0LZ512      0.1434
     12  C12       24.9870  -15.8060   41.0270 C.ar  512  0LZ512     -0.0037
     13 CL1        23.7880  -15.2730   44.8280 Cl    512  0LZ512     -0.0806
     14  F14       22.8820  -15.4380   42.0420 F     512  0LZ512     -0.2039
     15  C15       28.5900  -16.3030   35.0510 C.3   512  0LZ512      0.0316
     16  C16       27.9270  -16.7690   33.7000 C.3   512  0LZ512      0.0488
     17  N17       27.1300  -17.9840   33.9960 N.3   512  0LZ512     -0.3077
     18  C18       26.4450  -18.4820   32.7910 C.3   512  0LZ512      0.0005
     19  C19       25.4030  -17.4880   32.2800 C.3   512  0LZ512     -0.0148
     20  C20       25.9250  -16.0890   32.2640 C.ar  512  0LZ512     -0.0414
     21  C21       27.1110  -15.7190   32.9250 C.ar  512  0LZ512     -0.0258
     22  C22       25.1790  -15.1400   31.5550 C.ar  512  0LZ512     -0.0582
     23  C23       25.5900  -13.8140   31.4860 C.ar  512  0LZ512     -0.0615
     24  C24       26.7570  -13.4390   32.1330 C.ar  512  0LZ512     -0.0614
     25  C25       27.5030  -14.3820   32.8400 C.ar  512  0LZ512     -0.0568
     26  H1        26.7130  -15.7010   35.9390 H     512  0LZ512      0.1492
     27  H2        28.1720  -16.5370   40.2420 H     512  0LZ512      0.1553
     28  H3        27.9810  -16.0210   42.6440 H     512  0LZ512      0.0637
     29  H4        26.5590  -15.6480   44.5770 H     512  0LZ512      0.0634
     30  H5        24.4620  -15.8360   40.0700 H     512  0LZ512      0.0665
     31  H7        29.1920  -15.3860   34.8630 H     512  0LZ512      0.0481
     32  H6        29.3150  -17.0860   35.3620 H     512  0LZ512      0.0481
     33  H8        28.7470  -17.0760   32.9930 H     512  0LZ512      0.0526
     34  H9        26.4200  -17.7770   34.7140 H     512  0LZ512      0.1226
     35  H11       27.1890  -18.7260   31.9980 H     512  0LZ512      0.0427
     36  H12       25.9790  -19.4660   33.0290 H     512  0LZ512      0.0427
     37  H13       25.0380  -17.8070   31.2800 H     512  0LZ512      0.0326
     38  H14       24.4920  -17.5330   32.9150 H     512  0LZ512      0.0326
     39  H15       24.2540  -15.4120   31.0360 H     512  0LZ512      0.0620
     40  H16       25.0050  -13.0710   30.9310 H     512  0LZ512      0.0618
     41  H17       27.0820  -12.3950   32.0800 H     512  0LZ512      0.0618
     42  H18       28.4110  -14.0310   33.3290 H     512  0LZ512      0.0621
@<TRIPOS>BOND
     1    40    23    1
     2    39    22    1
     3    37    19    1
     4    23    22   ar
     5    23    24   ar
     6    22    20   ar
     7    35    18    1
     8    41    24    1
     9    24    25   ar
    10    20    19    1
    11    20    21   ar
    12    19    18    1
    13    19    38    1
    14    18    36    1
    15    18    17    1
    16    25    21   ar
    17    25    42    1
    18    21    16    1
    19    33    16    1
    20    16    17    1
    21    16    15    1
    22    17    34    1
    23    31    15    1
    24    15    32    1
    25    15     1    1
    26    26     1    1
    27     1     2   am
    28     2     7    2
    29     2     3    1
    30     6     3    2
    31     3     4   am
    32     4    27    1
    33     4     5    1
    34    30    12    1
    35    12     5   ar
    36    12    11   ar
    37     5     8   ar
    38    14    11    1
    39    11    10   ar
    40     8    28    1
    41     8     9   ar
    42    10     9   ar
    43    10    13    1
    44     9    29    1
