@<TRIPOS>MOLECULE
4dvv_0M1_A_1.pdb
 24 25 0 0 0
SMALL
GASTEIGER

@<TRIPOS>ATOM
      1  C01       25.3270  -14.4720   43.6730 C.ar  513  0M1513      0.0851
      2  C02       24.6420  -14.6220   42.4680 C.ar  513  0M1513      0.1519
      3  C03       25.3270  -14.9300   41.2930 C.ar  513  0M1513      0.0471
      4  C04       26.7120  -15.0900   41.3140 C.ar  513  0M1513      0.0761
      5  C05       27.3910  -14.9350   42.5440 C.ar  513  0M1513      0.0176
      6  C06       26.6980  -14.6300   43.7010 C.ar  513  0M1513      0.0150
      7 CL1        24.4770  -14.1010   45.0820 Cl    513  0M1513     -0.0799
      8  F08       23.3310  -14.4740   42.4230 F     513  0M1513     -0.2032
      9  N09       27.4380  -15.4010   40.1230 N.am  513  0M1513     -0.1714
     10  C10       27.0140  -15.1690   38.8050 C.2   513  0M1513      0.3243
     11  C11       27.9810  -15.5800   37.6660 C.2   513  0M1513      0.3205
     12  N12       27.5900  -15.3680   36.3550 N.am  513  0M1513     -0.1951
     13  O13       29.0620  -16.0800   37.9490 O.2   513  0M1513     -0.2633
     14  O14       25.9390  -14.6730   38.4960 O.2   513  0M1513     -0.2629
     15  C15       28.4990  -15.7550   35.2630 C.3   513  0M1513      0.1477
     16  C16       27.9250  -16.7980   34.2710 C.3   513  0M1513      0.1677
     17  C17       27.0210  -16.2080   33.1240 C.3   513  0M1513      0.1654
     18  O18       27.5520  -16.7470   31.9440 O.3   513  0M1513     -0.3327
     19  C19       28.5510  -17.6910   32.2530 C.3   513  0M1513      0.1874
     20  O20       28.9950  -17.3530   33.5450 O.3   513  0M1513     -0.3324
     21  C21       25.5370  -16.6440   33.2500 C.3   513  0M1513      0.1414
     22  N22       24.8440  -16.8160   31.9820 N.3   513  0M1513     -0.1286
     23  C23       27.9860  -19.1140   32.2060 C.3   513  0M1513      0.0612
     24  C24       29.6680  -17.5590   31.2220 C.3   513  0M1513      0.0612
@<TRIPOS>BOND
     1    24    19    1
     2    18    19    1
     3    18    17    1
     4    22    21    1
     5    23    19    1
     6    19    20    1
     7    17    21    1
     8    17    16    1
     9    20    16    1
    10    16    15    1
    11    15    12    1
    12    12    11   am
    13    11    13    2
    14    11    10    1
    15    14    10    2
    16    10     9   am
    17     9     4    1
    18     3     4   ar
    19     3     2   ar
    20     4     5   ar
    21     8     2    1
    22     2     1   ar
    23     5     6   ar
    24     1     6   ar
    25     1     7    1
