@<TRIPOS>MOLECULE
4dvw_0M4_A_1.pdb
 42 44 0 0 0
SMALL
GASTEIGER

@<TRIPOS>ATOM
      1  C01       25.4580  -14.4380   43.6260 C.ar  512  0M4512      0.0762
      2  C02       24.7870  -14.5420   42.4090 C.ar  512  0M4512      0.1434
      3  C03       25.4860  -14.8110   41.2280 C.ar  512  0M4512     -0.0037
      4  C04       26.8780  -14.9800   41.2700 C.ar  512  0M4512      0.0366
      5  C05       27.5410  -14.8670   42.5130 C.ar  512  0M4512     -0.0389
      6  C06       26.8300  -14.6000   43.6700 C.ar  512  0M4512     -0.0388
      7 CL1        24.5860  -14.1100   45.0450 Cl    512  0M4512     -0.0806
      8  F08       23.4770  -14.3880   42.3620 F     512  0M4512     -0.2039
      9  N09       27.6330  -15.2460   40.0850 N.am  512  0M4512     -0.2777
     10  C10       27.2100  -14.9880   38.7770 C.2   512  0M4512      0.3031
     11  C11       28.1760  -15.3250   37.6150 C.2   512  0M4512      0.2993
     12  N12       27.7110  -15.0610   36.3440 N.am  512  0M4512     -0.3070
     13  O13       29.2830  -15.8000   37.8450 O.2   512  0M4512     -0.2652
     14  O14       26.1110  -14.5160   38.5080 O.2   512  0M4512     -0.2648
     15  C15       28.5180  -15.3200   35.1320 C.3   512  0M4512      0.0191
     16  C16       28.1720  -16.6330   34.4040 C.3   512  0M4512      0.0027
     17  C17       28.7090  -17.8430   35.1860 C.3   512  0M4512      0.0033
     18  N18       30.1050  -17.9690   34.7070 N.3   512  0M4512     -0.3151
     19  C19       30.0630  -17.7400   33.2410 C.3   512  0M4512     -0.0007
     20  C20       28.9250  -16.7120   33.0450 C.3   512  0M4512     -0.0203
     21  C21       26.6750  -16.7360   34.0500 C.3   512  0M4512     -0.0445
     22  C22       27.9210  -17.1670   31.9910 C.3   512  0M4512     -0.0484
     23  C23       26.5690  -16.7080   32.5170 C.3   512  0M4512     -0.0521
     24  H1        24.9160  -14.8830   40.2970 H     512  0M4512      0.0665
     25  H2        28.6250  -14.9860   42.6020 H     512  0M4512      0.0637
     26  H3        27.3280  -14.5120   44.6410 H     512  0M4512      0.0634
     27  H4        28.5620  -15.6320   40.2200 H     512  0M4512      0.1553
     28  H5        26.7870  -14.6690   36.2120 H     512  0M4512      0.1492
     29  H6        28.3780  -14.4740   34.4160 H     512  0M4512      0.0468
     30  H7        29.6010  -15.3090   35.3930 H     512  0M4512      0.0468
     31  H9        28.0860  -18.7530   35.0080 H     512  0M4512      0.0430
     32  H8        28.7110  -17.7090   36.2850 H     512  0M4512      0.0430
     33  H10       30.5210  -18.8740   34.9460 H     512  0M4512      0.1220
     34  H12       29.8870  -18.6640   32.6370 H     512  0M4512      0.0427
     35  H13       31.0470  -17.3760   32.8800 H     512  0M4512      0.0427
     36  H14       29.3540  -15.7250   32.7590 H     512  0M4512      0.0319
     37  H15       26.2250  -17.6660   34.4500 H     512  0M4512      0.0272
     38  H16       26.0550  -15.9360   34.4940 H     512  0M4512      0.0272
     39  H18       28.1510  -16.7630   30.9880 H     512  0M4512      0.0269
     40  H17       27.9360  -18.2660   31.8390 H     512  0M4512      0.0269
     41  H20       25.7390  -17.3370   32.1440 H     512  0M4512      0.0266
     42  H19       26.3270  -15.6920   32.1500 H     512  0M4512      0.0266
@<TRIPOS>BOND
     1    39    22    1
     2    40    22    1
     3    22    23    1
     4    22    20    1
     5    41    23    1
     6    42    23    1
     7    23    21    1
     8    34    19    1
     9    36    20    1
    10    35    19    1
    11    20    19    1
    12    20    16    1
    13    19    18    1
    14    21    16    1
    15    21    37    1
    16    21    38    1
    17    16    15    1
    18    16    17    1
    19    29    15    1
    20    18    33    1
    21    18    17    1
    22    31    17    1
    23    15    30    1
    24    15    12    1
    25    17    32    1
    26    28    12    1
    27    12    11   am
    28    11    13    2
    29    11    10    1
    30    14    10    2
    31    10     9   am
    32     9    27    1
    33     9     4    1
    34    24     3    1
    35     3     4   ar
    36     3     2   ar
    37     4     5   ar
    38     8     2    1
    39     2     1   ar
    40     5    25    1
    41     5     6   ar
    42     1     6   ar
    43     1     7    1
    44     6    26    1
