@<TRIPOS>MOLECULE
4dvx_0M5_A_1.pdb
 42 44 0 0 0
SMALL
GASTEIGER

@<TRIPOS>ATOM
      1  C01       24.4140  -15.4120   42.4660 C.ar  512  0M5512      0.1434
      2  C02       25.0580  -15.1850   43.6980 C.ar  512  0M5512      0.0762
      3  C03       26.4600  -15.1880   43.7320 C.ar  512  0M5512     -0.0388
      4  C04       27.2280  -15.4170   42.5490 C.ar  512  0M5512     -0.0389
      5  C05       26.6000  -15.6560   41.2890 C.ar  512  0M5512      0.0366
      6  C06       25.1780  -15.6380   41.2950 C.ar  512  0M5512     -0.0037
      7  C10       29.0400  -14.5910   34.5710 C.3   512  0M5512     -0.0115
      8  C11       30.4340  -14.7880   33.9530 C.3   512  0M5512     -0.0348
      9  C15       30.0440  -10.3550   32.4470 C.3   512  0M5512     -0.0359
     10 CL         24.1700  -14.8940   45.2020 Cl    512  0M5512     -0.0806
     11  F         23.0830  -15.4230   42.3530 F     512  0M5512     -0.2039
     12  N01       27.4220  -15.8810   40.0720 N.am  512  0M5512     -0.2777
     13  C07       27.0000  -15.6750   38.7140 C.2   512  0M5512      0.3031
     14  O01       25.8570  -15.2870   38.4680 O.2   512  0M5512     -0.2648
     15  C08       27.9040  -15.9150   37.4120 C.2   512  0M5512      0.2993
     16  N02       27.4240  -15.7060   36.1070 N.am  512  0M5512     -0.3073
     17  O         29.0640  -16.3050   37.6110 O.2   512  0M5512     -0.2652
     18  C09       28.2560  -15.9040   34.8810 C.3   512  0M5512      0.0161
     19  C12       30.6380  -13.5900   32.9570 C.3   512  0M5512     -0.0005
     20  N         29.4030  -12.7610   33.0500 N.3   512  0M5512     -0.2991
     21  C13       28.3480  -13.6570   33.5520 C.3   512  0M5512      0.0035
     22  C14       29.4580  -11.3590   33.4730 C.3   512  0M5512      0.0105
     23  C         28.5430  -10.3510   32.7350 C.3   512  0M5512     -0.0359
     24  H01       26.9400  -15.0090   44.7030 H     512  0M5512      0.0634
     25  H02       28.3120  -15.4090   42.6340 H     512  0M5512      0.0637
     26  H03       24.6430  -15.8070   40.3790 H     512  0M5512      0.0665
     27  H08       29.1670  -14.0590   35.5090 H     512  0M5512      0.0329
     28  H09       30.5650  -15.7550   33.4740 H     512  0M5512      0.0281
     29  H10       31.2150  -14.7740   34.7150 H     512  0M5512      0.0281
     30  H17       30.3670  -10.7170   31.5010 H     512  0M5512      0.0281
     31  H16       30.5920   -9.4950   32.7770 H     512  0M5512      0.0281
     32  H04       28.3740  -16.1950   40.1680 H     512  0M5512      0.1553
     33  H05       26.5090  -15.3830   35.9090 H     512  0M5512      0.1491
     34  H06       27.6440  -16.1440   33.9980 H     512  0M5512      0.0465
     35  H07       28.9230  -16.7520   34.9980 H     512  0M5512      0.0465
     36  H11       30.8460  -13.9980   31.9690 H     512  0M5512      0.0427
     37  H12       31.5040  -13.0070   33.2410 H     512  0M5512      0.0427
     38  H13       27.8400  -14.2640   32.8040 H     512  0M5512      0.0430
     39  H14       27.6070  -13.0830   34.0920 H     512  0M5512      0.0430
     40  H15       29.6630  -11.0640   34.4940 H     512  0M5512      0.0462
     41  H         27.8900  -10.7060   31.9730 H     512  0M5512      0.0281
     42  H18       28.1660   -9.4810   33.2400 H     512  0M5512      0.0281
@<TRIPOS>BOND
     1    30     9    1
     2    36    19    1
     3    41    23    1
     4     9    23    1
     5     9    31    1
     6     9    22    1
     7    23    42    1
     8    23    22    1
     9    38    21    1
    10    19    20    1
    11    19    37    1
    12    19     8    1
    13    20    22    1
    14    20    21    1
    15    22    40    1
    16    28     8    1
    17    21    39    1
    18    21     7    1
    19     8     7    1
    20     8    29    1
    21    34    18    1
    22     7    18    1
    23     7    27    1
    24    18    35    1
    25    18    16    1
    26    33    16    1
    27    16    15   am
    28    15    17    2
    29    15    13    1
    30    14    13    2
    31    13    12   am
    32    12    32    1
    33    12     5    1
    34    26     6    1
    35     5     6   ar
    36     5     4   ar
    37     6     1   ar
    38    11     1    1
    39     1     2   ar
    40     4    25    1
    41     4     3   ar
    42     2     3   ar
    43     2    10    1
    44     3    24    1
