@<TRIPOS>MOLECULE
4dw1_MAN_A_1.pdb
 11 11 0 0 0
SMALL
GASTEIGER

@<TRIPOS>ATOM
      1  C1         8.5020  -35.2120   59.3290 C.3   506  MAN506      0.1777
      2  C2         8.4610  -33.8410   58.6580 C.3   506  MAN506      0.2141
      3  C3         7.2350  -33.6470   57.7770 C.3   506  MAN506      0.2173
      4  C4         7.0980  -34.8130   56.8100 C.3   506  MAN506      0.2142
      5  C5         7.2410  -36.1360   57.5520 C.3   506  MAN506      0.1810
      6  C6         7.2840  -37.2970   56.5700 C.3   506  MAN506      0.2141
      7  O2         9.5930  -33.6560   57.8450 O.3   506  MAN506     -0.2176
      8  O3         7.3990  -32.4430   57.0500 O.3   506  MAN506     -0.2175
      9  O4         5.8340  -34.7670   56.1820 O.3   506  MAN506     -0.2176
     10  O5         8.4400  -36.1680   58.2910 O.3   506  MAN506     -0.3481
     11  O6         7.4410  -38.4850   57.3060 O.3   506  MAN506     -0.2176
@<TRIPOS>BOND
     1     9     4    1
     2     6    11    1
     3     6     5    1
     4     4     5    1
     5     4     3    1
     6     8     3    1
     7     5    10    1
     8     3     2    1
     9     7     2    1
    10    10     1    1
    11     2     1    1
