@<TRIPOS>MOLECULE
4dw1_ATP_A_1.pdb
 31 33 0 0 0
SMALL
GASTEIGER

@<TRIPOS>ATOM
      1  PG       -20.9620   -0.8960   46.9500 P.3   508  ATP508      0.5373
      2  O1G      -21.0230   -1.9800   45.8860 O.2   508  ATP508     -0.2221
      3  O2G      -19.6100   -0.2480   47.1510 O.3   508  ATP508     -0.1143
      4  O3G      -22.0950    0.1060   46.7950 O.3   508  ATP508     -0.1143
      5  PB       -21.1450   -3.0970   48.7750 P.3   508  ATP508      0.2277
      6  O1B      -19.7460   -3.5920   48.5820 O.3   508  ATP508     -0.4368
      7  O2B      -22.2580   -3.7870   48.0190 O.2   508  ATP508     -0.5168
      8  O3B      -21.2400   -1.5290   48.4150 O.3   508  ATP508     -0.2258
      9  PA       -20.6060   -2.4040   51.5110 P.3   508  ATP508      0.2189
     10  O1A      -19.3570   -1.8510   50.8840 O.2   508  ATP508     -0.5170
     11  O2A      -20.5060   -3.4300   52.6080 O.3   508  ATP508     -0.4371
     12  O3A      -21.5370   -3.0290   50.3450 O.3   508  ATP508     -0.2700
     13  O5'      -21.4970   -1.1750   52.0300 O.3   508  ATP508     -0.3112
     14  C5'      -22.8150   -1.3740   52.5460 C.3   508  ATP508      0.1813
     15  C4'      -23.7470   -0.2890   52.0100 C.3   508  ATP508      0.1821
     16  O4'      -23.1930    0.9980   52.2750 O.3   508  ATP508     -0.3135
     17  C3'      -23.8760   -0.4030   50.5000 C.3   508  ATP508      0.2184
     18  O3'      -25.2230   -0.1240   50.1080 O.3   508  ATP508     -0.2174
     19  C2'      -22.9450    0.6710   49.9800 C.3   508  ATP508      0.2570
     20  O2'      -23.3560    1.2200   48.7420 O.3   508  ATP508     -0.2130
     21  C1'      -22.9850    1.7210   51.0600 C.3   508  ATP508      0.3186
     22  N9       -21.6840    2.4290   51.1210 N.pl3 508  ATP508     -0.1439
     23  C8       -20.4710    1.8430   51.2750 C.3   508  ATP508      0.3377
     24  N7       -19.4820    2.7750   51.3040 N.2   508  ATP508     -0.2095
     25  C5       -20.0550    3.9840   51.1560 C.2   508  ATP508      0.2526
     26  C6       -19.5890    5.3880   51.0990 C.2   508  ATP508      0.4393
     27  N6       -18.2820    5.7050   51.2020 N.pl3 508  ATP508      0.2180
     28  N1       -20.5280    6.3530   50.9510 N.2   508  ATP508      0.0021
     29  C2       -21.8470    6.0670   50.8440 C.3   508  ATP508      0.5254
     30  N3       -22.3350    4.8140   50.8860 N.2   508  ATP508     -0.0055
     31  C4       -21.5090    3.7520   51.0380 C.2   508  ATP508      0.3518
@<TRIPOS>BOND
     1     2     1    2
     2     4     1    1
     3     1     3    1
     4     1     8    1
     5     7     5    2
     6     8     5    1
     7     6     5    1
     8    20    19    1
     9     5    12    1
    10    19    17    1
    11    19    21    1
    12    18    17    1
    13    12     9    1
    14    17    15    1
    15    29    30    1
    16    29    28    1
    17    10     9    2
    18    30    31    2
    19    28    26    2
    20    31    22    1
    21    31    25    1
    22    21    22    1
    23    21    16    1
    24    26    25    1
    25    26    27    1
    26    22    23    1
    27    25    24    2
    28    23    24    1
    29     9    13    1
    30     9    11    1
    31    15    16    1
    32    15    14    1
    33    13    14    1
