@<TRIPOS>MOLECULE
4dw3_BMA_A_1.pdb
 11 11 0 0 0
SMALL
GASTEIGER

@<TRIPOS>ATOM
      1  C1        15.1940   24.7650   43.9830 C.3   1103  BMA1103     0.1777
      2  C2        14.6410   26.2050   44.0770 C.3   1103  BMA1103     0.2141
      3  C3        14.3120   26.4680   45.5630 C.3   1103  BMA1103     0.2173
      4  C4        13.3770   25.4150   46.1690 C.3   1103  BMA1103     0.2142
      5  C5        13.9980   24.0200   45.9300 C.3   1103  BMA1103     0.1810
      6  C6        13.0760   22.8850   46.4150 C.3   1103  BMA1103     0.2141
      7  O2        13.4320   26.3560   43.3100 O.3   1103  BMA1103    -0.2176
      8  O3        13.7200   27.7520   45.7490 O.3   1103  BMA1103    -0.2175
      9  O4        13.2280   25.7010   47.5610 O.3   1103  BMA1103    -0.2176
     10  O5        14.2510   23.8480   44.5250 O.3   1103  BMA1103    -0.3481
     11  O6        13.8510   21.6560   46.5630 O.3   1103  BMA1103    -0.2176
@<TRIPOS>BOND
     1     7     2    1
     2     1     2    1
     3     1    10    1
     4     2     3    1
     5    10     5    1
     6     3     8    1
     7     3     4    1
     8     5     4    1
     9     5     6    1
    10     4     9    1
    11     6    11    1
