@<TRIPOS>MOLECULE
4dw3_C5P_A_1.pdb
 21 22 0 0 0
SMALL
GASTEIGER

@<TRIPOS>ATOM
      1  O3P        8.9230   19.2870   24.3000 O.3   1117  C5P1117    -0.1145
      2  P          9.2610   20.3930   23.1750 P.3   1117  C5P1117     0.5327
      3  O1P        7.8600   20.9220   22.5740 O.2   1117  C5P1117    -0.2224
      4  O2P       10.1730   21.5510   23.5350 O.3   1117  C5P1117    -0.1145
      5  O5'        9.9330   19.5200   22.0320 O.3   1117  C5P1117    -0.2675
      6  C5'       10.1110   20.2930   20.8620 C.3   1117  C5P1117     0.1859
      7  C4'       11.0010   19.4630   19.9610 C.3   1117  C5P1117     0.1801
      8  O4'       12.2740   19.3990   20.6330 O.3   1117  C5P1117    -0.3320
      9  C3'       10.5180   17.9710   19.8270 C.3   1117  C5P1117     0.2158
     10  O3'        9.5430   17.7540   18.7830 O.3   1117  C5P1117    -0.2175
     11  C2'       11.8420   17.2960   19.5120 C.3   1117  C5P1117     0.2319
     12  O2'       12.2820   17.7230   18.1940 O.3   1117  C5P1117    -0.2157
     13  C1'       12.7020   18.0160   20.5750 C.3   1117  C5P1117     0.2400
     14  N1        12.8650   17.3070   21.8730 N.am  1117  C5P1117    -0.1778
     15  C2        13.6900   16.2050   21.9290 C.1   1117  C5P1117     0.2756
     16  N3        13.8370   15.5530   23.0970 N.2   1117  C5P1117    -0.3024
     17  C4        13.2560   15.9060   24.2430 C.2   1117  C5P1117     0.2346
     18  C5        12.3890   17.0520   24.2390 C.2   1117  C5P1117     0.0687
     19  C6        12.2190   17.7230   23.0400 C.2   1117  C5P1117     0.0836
     20  O2        14.2830   15.7700   20.9260 O.2   1117  C5P1117    -0.1925
     21  N4        13.5190   15.1580   25.3910 N.pl3 1117  C5P1117    -0.0921
@<TRIPOS>BOND
     1    12    11    1
     2    10     9    1
     3    11     9    1
     4    11    13    1
     5     9     7    1
     6     7     8    1
     7     7     6    1
     8    13     8    1
     9    13    14    1
    10     6     5    1
    11    20    15    2
    12    14    15   am
    13    14    19    1
    14    15    16    2
    15     5     2    1
    16     3     2    2
    17    19    18    2
    18    16    17    2
    19     2     4    1
    20     2     1    1
    21    18    17    1
    22    17    21    1
