@<TRIPOS>MOLECULE
4dw4_MAN_A_1.pdb
 11 11 0 0 0
SMALL
GASTEIGER

@<TRIPOS>ATOM
      1  C1       -21.6230  -24.7230   46.5820 C.3   1105  MAN1105     0.1777
      2  C2       -22.7350  -23.8400   47.1530 C.3   1105  MAN1105     0.2141
      3  C3       -23.3140  -22.9290   46.0700 C.3   1105  MAN1105     0.2173
      4  C4       -22.2220  -22.1790   45.3090 C.3   1105  MAN1105     0.2142
      5  C5       -21.1440  -23.1420   44.8130 C.3   1105  MAN1105     0.1810
      6  C6       -19.9430  -22.4410   44.2200 C.3   1105  MAN1105     0.2141
      7  O2       -22.2520  -23.1020   48.2700 O.3   1105  MAN1105    -0.2176
      8  O3       -24.2640  -22.0280   46.6250 O.3   1105  MAN1105    -0.2175
      9  O4       -22.7820  -21.4860   44.1990 O.3   1105  MAN1105    -0.2176
     10  O5       -20.6460  -23.9250   45.9120 O.3   1105  MAN1105    -0.3481
     11  O6       -18.8940  -23.3670   43.9660 O.3   1105  MAN1105    -0.2176
@<TRIPOS>BOND
     1    11     6    1
     2     9     4    1
     3     6     5    1
     4     5     4    1
     5     5    10    1
     6     4     3    1
     7    10     1    1
     8     3     8    1
     9     3     2    1
    10     1     2    1
    11     2     7    1
