@<TRIPOS>MOLECULE
4dw4_U5P_A_1.pdb
 21 22 0 0 0
SMALL
GASTEIGER

@<TRIPOS>ATOM
      1  N1       -23.1430  -36.6250   22.0570 N.am  1118  U5P1118    -0.1766
      2  C2       -22.2270  -37.6280   22.2580 C.1   1118  U5P1118     0.2845
      3  N3       -21.9630  -38.0430   23.5310 N.2   1118  U5P1118    -0.2452
      4  C4       -22.5890  -37.5440   24.6410 C.1   1118  U5P1118     0.2182
      5  C5       -23.5680  -36.4970   24.4590 C.2   1118  U5P1118     0.1242
      6  C6       -23.8110  -36.0870   23.1820 C.2   1118  U5P1118     0.0929
      7  O2       -21.6380  -38.1630   21.3290 O.2   1118  U5P1118    -0.1918
      8  O4       -22.3060  -38.0010   25.7950 O.2   1118  U5P1118    -0.2085
      9  C1'      -23.4610  -36.1330   20.6890 C.3   1118  U5P1118     0.2401
     10  C2'      -24.9450  -36.4850   20.4160 C.3   1118  U5P1118     0.2319
     11  O2'      -24.9360  -37.7220   19.7020 O.3   1118  U5P1118    -0.2157
     12  C3'      -25.4250  -35.3430   19.5510 C.3   1118  U5P1118     0.2158
     13  C4'      -24.5050  -34.1590   19.9270 C.3   1118  U5P1118     0.1801
     14  O3'      -25.2540  -35.6450   18.1830 O.3   1118  U5P1118    -0.2175
     15  O4'      -23.3360  -34.7000   20.5630 O.3   1118  U5P1118    -0.3320
     16  C5'      -25.2860  -33.2390   20.8750 C.3   1118  U5P1118     0.1859
     17  O5'      -25.1570  -33.6310   22.2230 O.3   1118  U5P1118    -0.2675
     18  P        -25.9800  -32.5620   23.0610 P.3   1118  U5P1118     0.5327
     19  O1P      -26.6160  -33.4040   24.0030 O.3   1118  U5P1118    -0.1145
     20  O2P      -27.1410  -31.7300   22.3950 O.2   1118  U5P1118    -0.2224
     21  O3P      -24.9230  -31.5340   23.7320 O.3   1118  U5P1118    -0.1145
@<TRIPOS>BOND
     1    14    12    1
     2    12    13    1
     3    12    10    1
     4    11    10    1
     5    13    15    1
     6    13    16    1
     7    10     9    1
     8    15     9    1
     9     9     1    1
    10    16    17    1
    11     7     2    2
    12     1     2   am
    13     1     6    1
    14    17    18    1
    15     2     3    2
    16    20    18    2
    17    18    21    1
    18    18    19    1
    19     6     5    2
    20     3     4    2
    21     5     4    1
    22     4     8    2
