@<TRIPOS>MOLECULE
4dw4_BMA_A_1.pdb
 11 11 0 0 0
SMALL
GASTEIGER

@<TRIPOS>ATOM
      1  C1       -20.8060  -28.7070   44.0340 C.3   1103  BMA1103     0.1777
      2  C2       -21.3560  -27.2870   44.1400 C.3   1103  BMA1103     0.2141
      3  C3       -21.5910  -26.9300   45.6040 C.3   1103  BMA1103     0.2173
      4  C4       -22.4460  -27.9830   46.3070 C.3   1103  BMA1103     0.2142
      5  C5       -21.8230  -29.3640   46.1280 C.3   1103  BMA1103     0.1810
      6  C6       -22.6770  -30.4810   46.6900 C.3   1103  BMA1103     0.2141
      7  O2       -22.5690  -27.1900   43.3970 O.3   1103  BMA1103    -0.2176
      8  O3       -22.2050  -25.6540   45.6990 O.3   1103  BMA1103    -0.2175
      9  O4       -22.5880  -27.6760   47.6880 O.3   1103  BMA1103    -0.2176
     10  O5       -21.6600  -29.6220   44.7250 O.3   1103  BMA1103    -0.3481
     11  O6       -22.2820  -31.7910   46.2660 O.3   1103  BMA1103    -0.2176
@<TRIPOS>BOND
     1     7     2    1
     2     1     2    1
     3     1    10    1
     4     2     3    1
     5    10     5    1
     6     3     8    1
     7     3     4    1
     8     5     4    1
     9     5     6    1
    10    11     6    1
    11     4     9    1
