@<TRIPOS>MOLECULE
4dw5_BMA_A_1.pdb
 11 11 0 0 0
SMALL
GASTEIGER

@<TRIPOS>ATOM
      1  C1       -46.1590   57.0000   -2.5730 C.3   1103  BMA1103     0.1777
      2  C2       -44.8350   57.0460   -3.3670 C.3   1103  BMA1103     0.2141
      3  C3       -44.4840   58.5210   -3.6300 C.3   1103  BMA1103     0.2173
      4  C4       -45.6310   59.2640   -4.3430 C.3   1103  BMA1103     0.2142
      5  C5       -46.9570   59.0080   -3.5950 C.3   1103  BMA1103     0.1810
      6  C6       -48.2080   59.5740   -4.2780 C.3   1103  BMA1103     0.2141
      7  O2       -44.9430   56.3430   -4.6270 O.3   1103  BMA1103    -0.2176
      8  O3       -43.1310   58.6880   -4.1210 O.3   1103  BMA1103    -0.2175
      9  O4       -45.3700   60.6690   -4.2680 O.3   1103  BMA1103    -0.2176
     10  O5       -47.2440   57.6260   -3.2730 O.3   1103  BMA1103    -0.3481
     11  O6       -49.2750   59.4920   -3.3080 O.3   1103  BMA1103    -0.2176
@<TRIPOS>BOND
     1     7     2    1
     2     4     9    1
     3     4     3    1
     4     4     5    1
     5     6     5    1
     6     6    11    1
     7     8     3    1
     8     3     2    1
     9     5    10    1
    10     2     1    1
    11    10     1    1
