@<TRIPOS>MOLECULE
4dw5_CSV_A_1.pdb
 37 40 0 0 0
SMALL
GASTEIGER

@<TRIPOS>ATOM
      1  O1       -45.5680   28.1760  -13.0220 O.3   1118  CSV1118    -0.2176
      2  C2       -45.9120   28.3670  -11.6390 C.3   1118  CSV1118     0.2141
      3  C3       -46.2930   29.8160  -11.4000 C.3   1118  CSV1118     0.1801
      4  O4       -45.2580   30.7420  -11.8860 O.3   1118  CSV1118    -0.3320
      5  C5       -47.5660   30.2690  -12.1030 C.3   1118  CSV1118     0.1888
      6  O6       -48.7260   29.7300  -11.4230 O.3   1118  CSV1118    -0.2834
      7  C7       -47.3430   31.7990  -12.0910 C.3   1118  CSV1118     0.2292
      8  O8       -47.5830   32.4840  -10.8630 O.3   1118  CSV1118    -0.2158
      9  C9       -45.8430   31.9000  -12.4480 C.3   1118  CSV1118     0.2399
     10  N10      -45.5790   31.9930  -14.0020 N.am  1118  CSV1118    -0.1778
     11  C11      -45.7620   33.2240  -14.6390 C.1   1118  CSV1118     0.2756
     12  N12      -45.6260   33.3020  -15.9860 N.2   1118  CSV1118    -0.3024
     13  C13      -45.3550   32.2060  -16.7040 C.2   1118  CSV1118     0.2346
     14  C14      -45.2040   30.9220  -16.0870 C.2   1118  CSV1118     0.0687
     15  C15      -45.3280   30.8570  -14.7440 C.2   1118  CSV1118     0.0836
     16  O16      -46.0130   34.2210  -13.9400 O.2   1118  CSV1118    -0.1925
     17  N17      -45.2580   32.3540  -18.0270 N.pl3 1118  CSV1118    -0.0921
     18  P18      -50.1780   30.0710  -12.0400 P.3   1118  CSV1118     0.4035
     19  O19      -50.8040   31.3770  -11.7580 O.2   1118  CSV1118    -0.2449
     20  S20      -50.2280   29.4920  -13.4480 S.3   1118  CSV1118     0.0393
     21  O21      -50.8680   29.0530  -11.0280 O.3   1118  CSV1118    -0.2836
     22  C22      -50.5130   27.6790  -10.8640 C.3   1118  CSV1118     0.1843
     23  C23      -50.8710   27.2510   -9.4510 C.3   1118  CSV1118     0.1800
     24  O24      -49.7660   27.5120   -8.5170 O.3   1118  CSV1118    -0.3320
     25  C25      -52.1100   27.9200   -8.8260 C.3   1118  CSV1118     0.2158
     26  O26      -52.8530   26.9630   -8.0800 O.3   1118  CSV1118    -0.2175
     27  C27      -51.4830   29.0060   -7.9480 C.3   1118  CSV1118     0.2319
     28  O28      -52.2680   29.3520   -6.7990 O.3   1118  CSV1118    -0.2157
     29  C29      -50.2240   28.3050   -7.4400 C.3   1118  CSV1118     0.2401
     30  N30      -49.0950   29.2540   -6.9010 N.am  1118  CSV1118    -0.1766
     31  C31      -48.4740   28.9340   -5.7070 C.1   1118  CSV1118     0.2845
     32  N32      -47.4970   29.8350   -5.2970 N.2   1118  CSV1118    -0.2452
     33  C33      -47.0910   30.9630   -5.9730 C.1   1118  CSV1118     0.2182
     34  C34      -47.7880   31.2070   -7.2240 C.2   1118  CSV1118     0.1242
     35  C35      -48.7580   30.3690   -7.6450 C.2   1118  CSV1118     0.0929
     36  O36      -48.7800   27.9410   -5.0610 O.2   1118  CSV1118    -0.1918
     37  O37      -46.1940   31.6770   -5.5190 O.2   1118  CSV1118    -0.2085
@<TRIPOS>BOND
     1    17    13    1
     2    13    14    1
     3    13    12    2
     4    14    15    2
     5    12    11    2
     6    15    10    1
     7    11    10   am
     8    11    16    2
     9    10     9    1
    10    20    18    1
    11     1     2    1
    12     9     7    1
    13     9     4    1
    14     5     7    1
    15     5     6    1
    16     5     3    1
    17     7     8    1
    18    18    19    2
    19    18     6    1
    20    18    21    1
    21     4     3    1
    22     2     3    1
    23    21    22    1
    24    22    23    1
    25    23    25    1
    26    23    24    1
    27    25    26    1
    28    25    27    1
    29    24    29    1
    30    27    29    1
    31    27    28    1
    32    35    34    2
    33    35    30    1
    34    29    30    1
    35    34    33    1
    36    30    31   am
    37    33    37    2
    38    33    32    2
    39    31    32    2
    40    31    36    2
