@<TRIPOS>MOLECULE
4dw5_CSQ_A_1.pdb
 37 40 0 0 0
SMALL
GASTEIGER

@<TRIPOS>ATOM
      1  O1       -45.5810   28.7180  -13.4990 O.3   1117  CSQ1117    -0.2176
      2  C2       -45.4880   28.6620  -12.0610 C.3   1117  CSQ1117     0.2141
      3  C3       -45.8640   30.0030  -11.4330 C.3   1117  CSQ1117     0.1801
      4  O4       -44.8730   31.0580  -11.7090 O.3   1117  CSQ1117    -0.3320
      5  C5       -47.1970   30.5930  -11.8730 C.3   1117  CSQ1117     0.1888
      6  O6       -48.2660   29.9720  -11.1420 O.3   1117  CSQ1117    -0.2834
      7  C7       -46.9470   32.0880  -11.5810 C.3   1117  CSQ1117     0.2292
      8  O8       -46.9930   32.4710  -10.2120 O.3   1117  CSQ1117    -0.2158
      9  C9       -45.5160   32.2600  -12.0940 C.3   1117  CSQ1117     0.2399
     10  N10      -45.4130   32.4700  -13.6510 N.am  1117  CSQ1117    -0.1778
     11  C11      -46.0540   33.5580  -14.2690 C.1   1117  CSQ1117     0.2756
     12  N12      -45.9640   33.6960  -15.6160 N.2   1117  CSQ1117    -0.3024
     13  C13      -45.2970   32.7900  -16.3440 C.2   1117  CSQ1117     0.2346
     14  C14      -44.6510   31.6660  -15.7360 C.2   1117  CSQ1117     0.0687
     15  C15      -44.7340   31.5480  -14.4070 C.2   1117  CSQ1117     0.0836
     16  O16      -46.6890   34.3660  -13.5680 O.2   1117  CSQ1117    -0.1925
     17  N17      -45.2350   32.9750  -17.6660 N.pl3 1117  CSQ1117    -0.0921
     18  P18      -49.7290   30.5370  -11.4630 P.3   1117  CSQ1117     0.4035
     19  O19      -49.8970   30.3620  -12.9420 O.2   1117  CSQ1117    -0.2449
     20  S20      -50.2390   31.7340  -10.7740 S.3   1117  CSQ1117     0.0393
     21  O21      -50.4260   29.2820  -10.7630 O.3   1117  CSQ1117    -0.2836
     22  C22      -50.2630   27.9230  -11.1850 C.3   1117  CSQ1117     0.1843
     23  C23      -50.2100   27.0110   -9.9670 C.3   1117  CSQ1117     0.1800
     24  O24      -49.1490   27.4210   -9.0350 O.3   1117  CSQ1117    -0.3320
     25  C25      -51.4750   26.9670   -9.1040 C.3   1117  CSQ1117     0.2158
     26  O26      -51.5850   25.6900   -8.4570 O.3   1117  CSQ1117    -0.2175
     27  C27      -51.1820   28.1170   -8.1320 C.3   1117  CSQ1117     0.2319
     28  O28      -51.9380   28.0630   -6.9290 O.3   1117  CSQ1117    -0.2157
     29  C29      -49.7130   27.8260   -7.7990 C.3   1117  CSQ1117     0.2401
     30  N30      -48.8960   29.0180   -7.1700 N.am  1117  CSQ1117    -0.1766
     31  C31      -48.4010   28.9040   -5.8790 C.1   1117  CSQ1117     0.2845
     32  N32      -47.6750   30.0090   -5.4290 N.2   1117  CSQ1117    -0.2452
     33  C33      -47.4240   31.1650   -6.1510 C.1   1117  CSQ1117     0.2182
     34  C34      -47.9750   31.1780   -7.4910 C.2   1117  CSQ1117     0.1242
     35  C35      -48.6750   30.1290   -7.9570 C.2   1117  CSQ1117     0.0929
     36  O36      -48.5970   27.9100   -5.1920 O.2   1117  CSQ1117    -0.1918
     37  O37      -46.7820   32.0960   -5.6620 O.2   1117  CSQ1117    -0.2085
@<TRIPOS>BOND
     1    17    13    1
     2    13    14    1
     3    13    12    2
     4    14    15    2
     5    12    11    2
     6    15    10    1
     7    11    10   am
     8    11    16    2
     9    10     9    1
    10     1     2    1
    11    19    18    2
    12     9     4    1
    13     9     7    1
    14     2     3    1
    15     5     7    1
    16     5     3    1
    17     5     6    1
    18     4     3    1
    19     7     8    1
    20    18     6    1
    21    18    20    1
    22    18    21    1
    23    22    21    1
    24    22    23    1
    25    23    25    1
    26    23    24    1
    27    25    26    1
    28    25    27    1
    29    24    29    1
    30    27    29    1
    31    27    28    1
    32    35    34    2
    33    35    30    1
    34    29    30    1
    35    34    33    1
    36    30    31   am
    37    33    37    2
    38    33    32    2
    39    31    32    2
    40    31    36    2
