@<TRIPOS>MOLECULE
4dw7_BMA_A_1.pdb
 11 11 0 0 0
SMALL
GASTEIGER

@<TRIPOS>ATOM
      1  C1       -45.9600   57.0880   -2.4100 C.3   1103  BMA1103     0.1777
      2  C2       -44.5280   57.0620   -2.9300 C.3   1103  BMA1103     0.2141
      3  C3       -43.9530   58.4790   -2.9980 C.3   1103  BMA1103     0.2173
      4  C4       -44.9210   59.4640   -3.6760 C.3   1103  BMA1103     0.2142
      5  C5       -46.3630   59.3010   -3.1810 C.3   1103  BMA1103     0.1810
      6  C6       -47.3920   60.1000   -3.9570 C.3   1103  BMA1103     0.2141
      7  O2       -44.5050   56.4310   -4.2080 O.3   1103  BMA1103    -0.2176
      8  O3       -42.6950   58.4340   -3.6800 O.3   1103  BMA1103    -0.2175
      9  O4       -44.4840   60.7980   -3.4390 O.3   1103  BMA1103    -0.2176
     10  O5       -46.7610   57.9200   -3.2550 O.3   1103  BMA1103    -0.3481
     11  O6       -48.7100   60.0110   -3.3970 O.3   1103  BMA1103    -0.2176
@<TRIPOS>BOND
     1     7     2    1
     2     6    11    1
     3     6     5    1
     4     8     3    1
     5     4     9    1
     6     4     5    1
     7     4     3    1
     8    10     5    1
     9    10     1    1
    10     3     2    1
    11     2     1    1
