@<TRIPOS>MOLECULE
4dw7_C_A_1.pdb
 17 18 0 0 0
SMALL
GASTEIGER

@<TRIPOS>ATOM
      1  O5'      -46.4740   28.6350  -12.8730 O.3   1111  C1111      -0.2176
      2  C5'      -46.3310   28.7940  -11.4760 C.3   1111  C1111       0.2142
      3  C4'      -46.5520   30.2290  -11.0700 C.3   1111  C1111       0.1829
      4  O4'      -45.5130   31.0460  -11.6720 O.3   1111  C1111      -0.3318
      5  C3'      -47.8210   30.8610  -11.6230 C.3   1111  C1111       0.2159
      6  O3'      -48.9870   30.5860  -10.9130 O.3   1111  C1111      -0.2175
      7  C2'      -47.5140   32.3430  -11.6010 C.3   1111  C1111       0.2319
      8  O2'      -47.7670   32.8970  -10.2990 O.3   1111  C1111      -0.2157
      9  C1'      -46.0520   32.3020  -12.0840 C.3   1111  C1111       0.2400
     10  N1       -45.9390   32.4070  -13.6020 N.am  1111  C1111      -0.1778
     11  C2       -46.2190   33.6100  -14.3060 C.1   1111  C1111       0.2756
     12  O2       -46.5440   34.6510  -13.7100 O.2   1111  C1111      -0.1925
     13  N3       -46.1020   33.6170  -15.6730 N.2   1111  C1111      -0.3024
     14  C4       -45.7410   32.5170  -16.3470 C.2   1111  C1111       0.2346
     15  N4       -45.6480   32.5760  -17.6750 N.pl3 1111  C1111      -0.0921
     16  C5       -45.4550   31.2980  -15.6640 C.2   1111  C1111       0.0687
     17  C6       -45.5620   31.2980  -14.3250 C.2   1111  C1111       0.0836
@<TRIPOS>BOND
     1    15    14    1
     2    14    13    2
     3    14    16    1
     4    13    11    2
     5    16    17    2
     6    17    10    1
     7    11    12    2
     8    11    10   am
     9    10     9    1
    10     1     2    1
    11     9     4    1
    12     9     7    1
    13     4     3    1
    14     5     7    1
    15     5     3    1
    16     5     6    1
    17     7     8    1
    18     2     3    1
