@<TRIPOS>MOLECULE
4dw7_U_A_1.pdb
 20 21 0 0 0
SMALL
GASTEIGER

@<TRIPOS>ATOM
      1  P        -50.0850   29.7370  -11.6840 P.3   1110  U1110       0.3942
      2  OP1      -49.6100   29.3710  -13.0540 O.3   1110  U1110      -0.1425
      3  OP2      -51.3400   30.4710  -11.4390 O.3   1110  U1110      -0.1425
      4  O5'      -49.9830   28.4470  -10.7410 O.3   1110  U1110      -0.2926
      5  C5'      -50.8180   27.3080  -10.6500 C.3   1110  U1110       0.1830
      6  C4'      -50.8690   26.8530   -9.1940 C.3   1110  U1110       0.1800
      7  O4'      -49.6190   27.1980   -8.5280 O.3   1110  U1110      -0.3320
      8  C3'      -52.0150   27.4230   -8.3310 C.3   1110  U1110       0.2158
      9  O3'      -52.4930   26.5180   -7.2940 O.3   1110  U1110      -0.2175
     10  C2'      -51.3340   28.5950   -7.6710 C.3   1110  U1110       0.2319
     11  O2'      -52.0410   29.1400   -6.5700 O.3   1110  U1110      -0.2157
     12  C1'      -49.9740   27.9300   -7.3870 C.3   1110  U1110       0.2401
     13  N1       -48.9140   28.8200   -6.9770 N.am  1110  U1110      -0.1766
     14  C2       -48.4830   28.6190   -5.6920 C.1   1110  U1110       0.2845
     15  O2       -48.8710   27.6940   -4.9850 O.2   1110  U1110      -0.1918
     16  N3       -47.5560   29.5430   -5.2790 N.2   1110  U1110      -0.2452
     17  C4       -47.1020   30.6300   -5.9980 C.1   1110  U1110       0.2182
     18  O4       -46.2850   31.3420   -5.4550 O.2   1110  U1110      -0.2085
     19  C5       -47.6380   30.8090   -7.3300 C.2   1110  U1110       0.1242
     20  C6       -48.5020   29.8950   -7.7660 C.2   1110  U1110       0.0929
@<TRIPOS>BOND
     1     2     1    1
     2     1     3    1
     3     1     4    1
     4     4     5    1
     5     5     6    1
     6     6     7    1
     7     6     8    1
     8     7    12    1
     9     8    10    1
    10     8     9    1
    11    20    19    2
    12    20    13    1
    13    10    12    1
    14    10    11    1
    15    12    13    1
    16    19    17    1
    17    13    14   am
    18    17    18    2
    19    17    16    2
    20    14    16    2
    21    14    15    2
