@<TRIPOS>MOLECULE
4dwa_BMA_A_1.pdb
 11 11 0 0 0
SMALL
GASTEIGER

@<TRIPOS>ATOM
      1  C1       -45.9990   56.9950   -2.8030 C.3   1103  BMA1103     0.1777
      2  C2       -44.6370   56.9690   -3.4620 C.3   1103  BMA1103     0.2141
      3  C3       -44.1020   58.3950   -3.5190 C.3   1103  BMA1103     0.2173
      4  C4       -45.0900   59.3310   -4.2310 C.3   1103  BMA1103     0.2142
      5  C5       -46.4810   59.1940   -3.6040 C.3   1103  BMA1103     0.1810
      6  C6       -47.5840   59.9310   -4.3270 C.3   1103  BMA1103     0.2141
      7  O2       -44.7830   56.4440   -4.7800 O.3   1103  BMA1103    -0.2176
      8  O3       -42.7990   58.3830   -4.0960 O.3   1103  BMA1103    -0.2175
      9  O4       -44.6580   60.6810   -4.1090 O.3   1103  BMA1103    -0.2176
     10  O5       -46.8750   57.8120   -3.5760 O.3   1103  BMA1103    -0.3481
     11  O6       -48.8650   59.4490   -3.9090 O.3   1103  BMA1103    -0.2176
@<TRIPOS>BOND
     1     7     2    1
     2     6    11    1
     3     6     5    1
     4     4     9    1
     5     4     5    1
     6     4     3    1
     7     8     3    1
     8     5    10    1
     9    10     1    1
    10     3     2    1
    11     2     1    1
