@<TRIPOS>MOLECULE
4dwb_0M7_A_1.pdb
 16 15 0 0 0
SMALL
GASTEIGER

@<TRIPOS>ATOM
      1  O11       13.1500   13.2480  177.6410 O.3   509  0M7509     -0.3568
      2  P3        12.8000   14.0940  176.4560 P.3   509  0M7509      0.1250
      3  O13       13.9690   14.3150  175.4870 O.2   509  0M7509     -0.4596
      4  O12       11.5200   13.6490  175.8060 O.3   509  0M7509     -0.3568
      5  C2        12.3270   15.7180  177.0850 C.3   509  0M7509      0.1212
      6  P1        13.6660   16.5560  177.9900 P.3   509  0M7509      0.1250
      7  O15       14.0210   15.5500  179.0580 O.3   509  0M7509     -0.3568
      8  O14       14.7090   16.7620  176.9020 O.2   509  0M7509     -0.4596
      9  O16       13.1300   17.8490  178.4860 O.3   509  0M7509     -0.3568
     10  C4        11.9670   16.5080  175.8390 C.3   509  0M7509      0.1032
     11  N5        10.7570   17.2520  176.1600 N.3   509  0M7509     -0.2171
     12  C6        10.2870   18.2640  175.2400 C.3   509  0M7509      0.0887
     13  C7        11.3190   19.3850  175.1320 C.3   509  0M7509      0.0188
     14  C8        11.2510   20.0400  173.7650 C.3   509  0M7509      0.0015
     15  C9        10.4080   21.2840  173.8490 C.3   509  0M7509      0.0000
     16  C10        8.9970   20.9520  173.3720 C.3   509  0M7509      0.0000
@<TRIPOS>BOND
     1    16    15    1
     2    14    15    1
     3    14    13    1
     4    13    12    1
     5    12    11    1
     6     3     2    2
     7     4     2    1
     8    10    11    1
     9    10     5    1
    10     2     5    1
    11     2     1    1
    12     8     6    2
    13     5     6    1
    14     6     9    1
    15     6     7    1
