@<TRIPOS>MOLECULE
4dwb_IPR_A_1.pdb
 14 13 0 0 0
SMALL
GASTEIGER

@<TRIPOS>ATOM
      1  P11        2.9190   11.5430  174.3130 P.3   501  IPR501      0.5373
      2  O14        2.9660   10.0460  174.1720 O.3   501  IPR501     -0.1143
      3  O12        1.5560   11.9900  174.7220 O.3   501  IPR501     -0.1143
      4  O13        3.5010   12.3130  173.1230 O.2   501  IPR501     -0.2221
      5  O10        3.8590   11.9560  175.6110 O.3   501  IPR501     -0.2261
      6  P7         5.4340   12.4770  175.6370 P.3   501  IPR501      0.2230
      7  O8         5.4610   13.9260  176.0840 O.3   501  IPR501     -0.4370
      8  O9         6.1330   12.0940  174.3290 O.2   501  IPR501     -0.5169
      9  O6         6.2170   11.6700  176.8010 O.3   501  IPR501     -0.3135
     10  C5         7.1660   12.3110  177.6680 C.3   501  IPR501      0.1535
     11  C4         8.4470   12.6940  176.9200 C.3   501  IPR501      0.0545
     12  C2         8.5150   14.1790  176.6480 C.2   501  IPR501     -0.0414
     13  C1         8.6150   15.1810  177.7720 C.3   501  IPR501      0.0264
     14  C3         8.4960   14.5920  175.3940 C.2   501  IPR501     -0.0090
@<TRIPOS>BOND
     1     4     1    2
     2     2     1    1
     3     1     3    1
     4     1     5    1
     5     8     6    2
     6    14    12    2
     7     5     6    1
     8     6     7    1
     9     6     9    1
    10    12    11    1
    11    12    13    1
    12     9    10    1
    13    11    10    1
