@<TRIPOS>MOLECULE
4dwc_BMA_A_1.pdb
 11 11 0 0 0
SMALL
GASTEIGER

@<TRIPOS>ATOM
      1  C1       -32.0780   48.9450    0.0440 C.3   1103  BMA1103     0.1777
      2  C2       -30.8570   49.0810   -0.8600 C.3   1103  BMA1103     0.2141
      3  C3       -30.4250   50.5450   -0.8910 C.3   1103  BMA1103     0.2173
      4  C4       -31.5770   51.4250   -1.3760 C.3   1103  BMA1103     0.2142
      5  C5       -32.8020   51.1810   -0.4920 C.3   1103  BMA1103     0.1810
      6  C6       -34.0540   51.8930   -0.9450 C.3   1103  BMA1103     0.2141
      7  O2       -31.2340   48.6630   -2.1690 O.3   1103  BMA1103    -0.2176
      8  O3       -29.2200   50.7270   -1.6350 O.3   1103  BMA1103    -0.2175
      9  O4       -31.2030   52.7960   -1.3160 O.3   1103  BMA1103    -0.2176
     10  O5       -33.1220   49.7780   -0.4610 O.3   1103  BMA1103    -0.3481
     11  O6       -35.1330   51.5720   -0.0750 O.3   1103  BMA1103    -0.2176
@<TRIPOS>BOND
     1     7     2    1
     2     8     3    1
     3     4     9    1
     4     4     3    1
     5     4     5    1
     6     6     5    1
     7     6    11    1
     8     3     2    1
     9     2     1    1
    10     5    10    1
    11    10     1    1
