@<TRIPOS>MOLECULE
4dwg_0M8_A_1.pdb
 18 17 0 0 0
SMALL
GASTEIGER

@<TRIPOS>ATOM
      1  O1        11.0810   14.1310  175.5230 O.3   404  0M8404     -0.3568
      2  P1        12.4360   14.6220  175.9920 P.3   404  0M8404      0.1250
      3  O2        13.5350   14.5040  175.0030 O.2   404  0M8404     -0.4596
      4  O3        12.7710   14.1420  177.4000 O.3   404  0M8404     -0.3568
      5  C9        12.3670   16.4370  175.9770 C.3   404  0M8404      0.1212
      6  P2        13.4480   17.1260  177.2950 P.3   404  0M8404      0.1250
      7  O5        14.5950   17.1090  176.3180 O.2   404  0M8404     -0.4596
      8  O4        13.7070   16.2610  178.5000 O.3   404  0M8404     -0.3568
      9  O6        13.0130   18.5030  177.7630 O.3   404  0M8404     -0.3568
     10  C8        11.0050   17.1250  175.8130 C.3   404  0M8404      0.1032
     11  N1        11.2440   18.5640  175.7210 N.3   404  0M8404     -0.2171
     12  C7        11.0330   19.3740  174.5500 C.3   404  0M8404      0.0887
     13  C6        10.8510   20.8640  174.9590 C.3   404  0M8404      0.0188
     14  C5        10.4370   21.7200  173.7430 C.3   404  0M8404      0.0015
     15  C4        11.5680   21.7790  172.7050 C.3   404  0M8404      0.0000
     16  C3        11.5700   23.0730  171.8960 C.3   404  0M8404      0.0000
     17  C2        12.4650   23.0120  170.6520 C.3   404  0M8404      0.0000
     18  C1        12.4430   24.3110  169.8460 C.3   404  0M8404      0.0000
@<TRIPOS>BOND
     1    18    17    1
     2    17    16    1
     3    16    15    1
     4    15    14    1
     5    14    13    1
     6    12    13    1
     7    12    11    1
     8     3     2    2
     9     1     2    1
    10    11    10    1
    11    10     5    1
    12     5     2    1
    13     5     6    1
    14     2     4    1
    15     7     6    2
    16     6     9    1
    17     6     8    1
