@<TRIPOS>MOLECULE
4dwj_TMP_A_1.pdb
 21 22 0 0 0
SMALL
GASTEIGER

@<TRIPOS>ATOM
      1  P         -5.3010  -33.1860  -12.5620 P.3   301  TMP301      0.5327
      2  O1P       -6.7720  -33.3630  -12.2780 O.3   301  TMP301     -0.1145
      3  O2P       -4.8550  -31.7540  -12.3650 O.3   301  TMP301     -0.1145
      4  O3P       -4.7900  -33.8370  -13.8360 O.2   301  TMP301     -0.2224
      5  O5'       -4.5640  -34.0480  -11.4030 O.3   301  TMP301     -0.2675
      6  C5'       -5.1790  -35.1140  -10.6730 C.3   301  TMP301      0.1858
      7  C4'       -5.0160  -34.9150   -9.1760 C.3   301  TMP301      0.1774
      8  O4'       -4.2540  -35.9680   -8.5930 O.3   301  TMP301     -0.3339
      9  C3'       -4.2320  -33.6710   -8.8440 C.3   301  TMP301      0.1857
     10  O3'       -4.5880  -33.2800   -7.5130 O.3   301  TMP301     -0.2203
     11  C2'       -2.7950  -34.1320   -8.9330 C.3   301  TMP301      0.0874
     12  C1'       -2.8830  -35.5660   -8.4450 C.3   301  TMP301      0.2090
     13  N1        -2.0450  -36.5830   -9.1220 N.am  301  TMP301     -0.1794
     14  C2        -1.2490  -37.4060   -8.2900 C.1   301  TMP301      0.2844
     15  O2        -1.2140  -37.2210   -7.0440 O.2   301  TMP301     -0.1918
     16  N3        -0.5010  -38.3890   -8.8090 N.2   301  TMP301     -0.2455
     17  C4        -0.4700  -38.6580  -10.1180 C.1   301  TMP301      0.2134
     18  O4         0.2440  -39.5940  -10.5600 O.2   301  TMP301     -0.2088
     19  C5        -1.2990  -37.8330  -11.0180 C.2   301  TMP301      0.0891
     20  C5M       -1.2490  -38.1450  -12.4980 C.3   301  TMP301      0.0462
     21  C6        -2.0780  -36.8110  -10.4560 C.2   301  TMP301      0.0877
@<TRIPOS>BOND
     1     4     1    2
     2     1     3    1
     3     1     2    1
     4     1     5    1
     5    20    19    1
     6     5     6    1
     7    19    21    2
     8    19    17    1
     9     6     7    1
    10    18    17    2
    11    21    13    1
    12    17    16    2
    13     7     9    1
    14     7     8    1
    15    13    12    1
    16    13    14   am
    17    11     9    1
    18    11    12    1
    19     9    10    1
    20    16    14    2
    21     8    12    1
    22    14    15    2
