@<TRIPOS>MOLECULE
4dwm_NAG_A_1.pdb
 14 14 0 0 0
SMALL
GASTEIGER

@<TRIPOS>ATOM
      1  C1        31.4520   29.3280   -5.0240 C.3   301  NAG301      0.1665
      2  C2        31.5110   29.7890   -6.4820 C.3   301  NAG301      0.1576
      3  C3        30.7190   31.1030   -6.6450 C.3   301  NAG301      0.2069
      4  C4        29.3010   30.7270   -6.2680 C.3   301  NAG301      0.2134
      5  C5        29.2290   30.3830   -4.7790 C.3   301  NAG301      0.1809
      6  C6        27.8220   29.8490   -4.5160 C.3   301  NAG301      0.2141
      7  C7        33.7310   28.9180   -7.1790 C.2   301  NAG301      0.2420
      8  C8        35.1820   29.3290   -7.3570 C.3   301  NAG301      0.0964
      9  N2        32.9420   29.9250   -6.7550 N.am  301  NAG301     -0.2019
     10  O3        30.7740   31.8070   -7.9020 O.3   301  NAG301     -0.2184
     11  O4        28.4550   31.8260   -6.5570 O.3   301  NAG301     -0.2176
     12  O5        30.1800   29.3910   -4.3630 O.3   301  NAG301     -0.3489
     13  O6        27.6430   29.7900   -3.1380 O.3   301  NAG301     -0.2176
     14  O7        33.3380   27.7270   -7.3920 O.2   301  NAG301     -0.2733
@<TRIPOS>BOND
     1    10     3    1
     2    14     7    2
     3     8     7    1
     4     7     9   am
     5     9     2    1
     6     3     2    1
     7     3     4    1
     8    11     4    1
     9     2     1    1
    10     4     5    1
    11     1    12    1
    12     5     6    1
    13     5    12    1
    14     6    13    1
