@<TRIPOS>MOLECULE
4dwt_HEM_A_1.pdb
 43 50 0 0 0
SMALL
GASTEIGER

@<TRIPOS>ATOM
      1  CHA        7.2610   -4.6440   12.3380 C.2   201  HEM201      0.0000
      2  CHB        8.4890   -0.0770   10.5790 C.2   201  HEM201      0.0000
      3  CHC        4.4870    1.7810   12.6050 C.2   201  HEM201      0.0000
      4  CHD        3.0720   -2.8210   14.0110 C.2   201  HEM201      0.0000
      5  C1A        7.9080   -3.5000   11.6940 C.ar  201  HEM201      0.0000
      6  C2A        9.1810   -3.6960   10.9590 C.ar  201  HEM201      0.0000
      7  C3A        9.5550   -2.3700   10.4490 C.ar  201  HEM201      0.0000
      8  C4A        8.4600   -1.4870   10.9180 C.ar  201  HEM201      0.0000
      9  CMA       10.7530   -2.0000    9.6130 C.3   201  HEM201      0.0000
     10  CAA        9.9130   -4.9950   10.7910 C.3   201  HEM201      0.0000
     11  CBA       10.7700   -5.0940   12.0490 C.3   201  HEM201      0.0000
     12  CGA       11.5640   -6.3780   12.1050 C.2   201  HEM201      0.0000
     13  O1A       12.7080   -6.3260   12.5980 O.co2 201  HEM201      0.0000
     14  O2A       11.0550   -7.4420   11.6840 O.co2 201  HEM201      0.0000
     15  C1B        7.4850    0.8610   11.0190 C.2   201  HEM201      0.0000
     16  C2B        7.6840    2.3080   10.8130 C.2   201  HEM201      0.0000
     17  C3B        6.4690    2.8410   11.4240 C.2   201  HEM201      0.0000
     18  C4B        5.7470    1.6410   11.8820 C.2   201  HEM201      0.0000
     19  CMB        8.8150    3.0220   10.1660 C.3   201  HEM201      0.0000
     20  CAB        6.0610    4.2690   11.5690 C.2   201  HEM201      0.0000
     21  CBB        6.1480    5.0930   10.5370 C.2   201  HEM201      0.0000
     22  C1C        3.7250    0.6900   13.1800 C.ar  201  HEM201      0.0000
     23  C2C        2.4170    0.9020   13.8340 C.ar  201  HEM201      0.0000
     24  C3C        2.0250   -0.4620   14.2430 C.ar  201  HEM201      0.0000
     25  C4C        3.0970   -1.3840   13.8020 C.ar  201  HEM201      0.0000
     26  CMC        1.6960    2.2110   14.0090 C.3   201  HEM201      0.0000
     27  CAC        0.7750   -0.8640   14.9290 C.2   201  HEM201      0.0000
     28  CBC        0.3370   -0.1620   15.9530 C.2   201  HEM201      0.0000
     29  C1D        4.1540   -3.7320   13.6680 C.2   201  HEM201      0.0000
     30  C2D        4.0710   -5.1100   14.1660 C.2   201  HEM201      0.0000
     31  C3D        5.3180   -5.6770   13.6670 C.2   201  HEM201      0.0000
     32  C4D        5.9490   -4.5330   12.9560 C.2   201  HEM201      0.0000
     33  CMD        2.9820   -5.7660   14.9680 C.3   201  HEM201      0.0000
     34  CAD        5.8020   -7.0780   13.8620 C.3   201  HEM201      0.0000
     35  CBD        6.6460   -7.0570   15.1180 C.3   201  HEM201      0.0000
     36  CGD        8.0470   -7.4720   14.7510 C.2   201  HEM201      0.0000
     37  O1D        8.2970   -8.0250   13.6540 O.co2 201  HEM201      0.0000
     38  O2D        8.9130   -7.2440   15.6040 O.co2 201  HEM201      0.0000
     39  NA         7.4730   -2.1140   11.7960 N.ar  201  HEM201      0.0000
     40  NB         6.3740    0.4670   11.6720 N.2   201  HEM201      0.0000
     41  NC         4.2280   -0.6710   13.2500 N.ar  201  HEM201      0.0000
     42  ND         5.2680   -3.3680   12.9780 N.2   201  HEM201      0.0000
     43 FE          5.6230   -1.4600   12.1110 Fe    201  HEM201      0.0000
@<TRIPOS>BOND
     1     9     7    1
     2    19    16    1
     3     7     8   ar
     4     7     6   ar
     5    21    20    2
     6     2     8    2
     7     2    15    1
     8    10     6    1
     9    10    11    1
    10    16    15    1
    11    16    17    2
    12     8    39   ar
    13     6     5   ar
    14    15    40    2
    15    17    20    1
    16    17    18    1
    17    40    18    1
    18    40    43    1
    19    14    12   ar
    20     5    39   ar
    21     5     1    2
    22    39    43    1
    23    18     3    2
    24    11    12    1
    25    12    13   ar
    26    43    42    1
    27    43    41    1
    28     1    32    1
    29     3    22    1
    30    32    42    2
    31    32    31    1
    32    42    29    1
    33    22    41   ar
    34    22    23   ar
    35    41    25   ar
    36    37    36   ar
    37    31    34    1
    38    31    30    2
    39    29     4    2
    40    29    30    1
    41    25     4    1
    42    25    24   ar
    43    23    26    1
    44    23    24   ar
    45    34    35    1
    46    30    33    1
    47    24    27    1
    48    36    35    1
    49    36    38   ar
    50    27    28    2
