@<TRIPOS>MOLECULE
4dwu_HEM_A_1.pdb
 43 50 0 0 0
SMALL
GASTEIGER

@<TRIPOS>ATOM
      1  CHA        7.2350   -4.6570   12.0470 C.2   201  HEM201      0.0000
      2  CHB        8.5140   -0.0660   10.4340 C.2   201  HEM201      0.0000
      3  CHC        4.4370    1.7680   12.4250 C.2   201  HEM201      0.0000
      4  CHD        3.0620   -2.8410   13.8170 C.2   201  HEM201      0.0000
      5  C1A        7.9590   -3.5440   11.4620 C.ar  201  HEM201      0.0000
      6  C2A        9.2790   -3.6700   10.8300 C.ar  201  HEM201      0.0000
      7  C3A        9.6470   -2.3480   10.3370 C.ar  201  HEM201      0.0000
      8  C4A        8.5180   -1.4830   10.7280 C.ar  201  HEM201      0.0000
      9  CMA       10.9100   -1.9590    9.6170 C.3   201  HEM201      0.0000
     10  CAA       10.0830   -4.9110   10.6690 C.3   201  HEM201      0.0000
     11  CBA       10.7810   -5.1490   12.0000 C.3   201  HEM201      0.0000
     12  CGA       11.6060   -6.4160   11.9220 C.2   201  HEM201      0.0000
     13  O1A       12.8040   -6.3870   12.2280 O.co2 201  HEM201      0.0000
     14  O2A       11.0360   -7.4740   11.5920 O.co2 201  HEM201      0.0000
     15  C1B        7.4850    0.8400   10.8480 C.2   201  HEM201      0.0000
     16  C2B        7.6280    2.2640   10.6040 C.2   201  HEM201      0.0000
     17  C3B        6.4410    2.7750   11.2410 C.2   201  HEM201      0.0000
     18  C4B        5.7080    1.6110   11.7140 C.2   201  HEM201      0.0000
     19  CMB        8.7520    2.9510    9.9560 C.3   201  HEM201      0.0000
     20  CAB        5.9360    4.1580   11.2880 C.2   201  HEM201      0.0000
     21  CBB        6.3870    5.1360   10.5140 C.2   201  HEM201      0.0000
     22  C1C        3.6990    0.6820   13.0180 C.ar  201  HEM201      0.0000
     23  C2C        2.4540    0.8960   13.7510 C.ar  201  HEM201      0.0000
     24  C3C        2.0610   -0.4660   14.1150 C.ar  201  HEM201      0.0000
     25  C4C        3.0680   -1.4120   13.6090 C.ar  201  HEM201      0.0000
     26  CMC        1.7990    2.2310   13.9840 C.3   201  HEM201      0.0000
     27  CAC        0.9310   -0.8940   14.9720 C.2   201  HEM201      0.0000
     28  CBC        0.3190   -0.0670   15.7800 C.2   201  HEM201      0.0000
     29  C1D        4.1330   -3.7070   13.4290 C.2   201  HEM201      0.0000
     30  C2D        4.0480   -5.0980   13.8180 C.2   201  HEM201      0.0000
     31  C3D        5.2670   -5.6380   13.3030 C.2   201  HEM201      0.0000
     32  C4D        5.9350   -4.4930   12.6640 C.2   201  HEM201      0.0000
     33  CMD        2.9620   -5.8050   14.5710 C.3   201  HEM201      0.0000
     34  CAD        5.7330   -7.0500   13.4090 C.3   201  HEM201      0.0000
     35  CBD        6.6130   -7.1720   14.6420 C.3   201  HEM201      0.0000
     36  CGD        8.0810   -7.3200   14.3090 C.2   201  HEM201      0.0000
     37  O1D        8.4630   -7.5770   13.1430 O.co2 201  HEM201      0.0000
     38  O2D        8.8880   -7.1880   15.2510 O.co2 201  HEM201      0.0000
     39  NA         7.5060   -2.1720   11.5100 N.ar  201  HEM201      0.0000
     40  NB         6.3900    0.4550   11.5360 N.2   201  HEM201      0.0000
     41  NC         4.1340   -0.6870   12.9980 N.ar  201  HEM201      0.0000
     42  ND         5.2450   -3.3380   12.7530 N.2   201  HEM201      0.0000
     43 FE          5.7210   -1.4440   12.0500 Fe    201  HEM201      0.0000
@<TRIPOS>BOND
     1     9     7    1
     2    19    16    1
     3     7     8   ar
     4     7     6   ar
     5     2     8    2
     6     2    15    1
     7    21    20    2
     8    16    15    1
     9    16    17    2
    10    10     6    1
    11    10    11    1
    12     8    39   ar
    13     6     5   ar
    14    15    40    2
    15    17    20    1
    16    17    18    1
    17     5    39   ar
    18     5     1    2
    19    39    43    1
    20    40    18    1
    21    40    43    1
    22    14    12   ar
    23    18     3    2
    24    12    11    1
    25    12    13   ar
    26     1    32    1
    27    43    42    1
    28    43    41    1
    29     3    22    1
    30    32    42    2
    31    32    31    1
    32    42    29    1
    33    41    22   ar
    34    41    25   ar
    35    22    23   ar
    36    37    36   ar
    37    31    34    1
    38    31    30    2
    39    34    35    1
    40    29     4    2
    41    29    30    1
    42    25     4    1
    43    25    24   ar
    44    23    26    1
    45    23    24   ar
    46    30    33    1
    47    24    27    1
    48    36    35    1
    49    36    38   ar
    50    27    28    2
