@<TRIPOS>MOLECULE
4dwv_PFB_A_1.pdb
 13 13 0 0 0
SMALL
GASTEIGER

@<TRIPOS>ATOM
      1  C1        17.7090  -14.5180   -0.5030 C.ar  378  PFB378      0.0701
      2  C2        18.2140  -14.2350   -1.7580 C.ar  378  PFB378      0.1704
      3  C3        19.5280  -13.9140   -1.9610 C.ar  378  PFB378      0.1968
      4  C4        20.3790  -13.8210   -0.8970 C.ar  378  PFB378      0.1991
      5  C5        19.9220  -14.1120    0.3530 C.ar  378  PFB378      0.1968
      6  C6        18.5790  -14.4380    0.5480 C.ar  378  PFB378      0.1704
      7  C7        16.2590  -14.8810   -0.2260 C.3   378  PFB378      0.2132
      8  F2        17.4270  -14.2710   -2.8220 F     378  PFB378     -0.2019
      9  F3        19.9760  -13.6350   -3.1930 F     378  PFB378     -0.1993
     10  F4        21.6570  -13.4810   -1.0800 F     378  PFB378     -0.1993
     11  F5        20.7640  -14.0020    1.4140 F     378  PFB378     -0.1993
     12  F6        18.1950  -14.7140    1.7930 F     378  PFB378     -0.2019
     13  O1        16.0440  -16.2430    0.0890 O.3   378  PFB378     -0.2150
@<TRIPOS>BOND
     1     9     3    1
     2     8     2    1
     3     3     2   ar
     4     3     4   ar
     5     2     1   ar
     6    10     4    1
     7     4     5   ar
     8     1     7    1
     9     1     6   ar
    10     7    13    1
    11     5     6   ar
    12     5    11    1
    13     6    12    1
