@<TRIPOS>MOLECULE
4dwv_NAJ_A_1.pdb
 44 48 0 0 0
SMALL
GASTEIGER

@<TRIPOS>ATOM
      1  PA        14.5800  -26.0460   -1.4300 P.3   377  NAJ377      0.2189
      2  O1A       15.8880  -26.6260   -1.1310 O.2   377  NAJ377     -0.5170
      3  O2A       13.3920  -26.3450   -0.5860 O.3   377  NAJ377     -0.4371
      4  O5B       14.1320  -26.4950   -2.8950 O.3   377  NAJ377     -0.3112
      5  C5B       15.0840  -26.7670   -3.9450 C.3   377  NAJ377      0.1813
      6  C4B       14.5790  -27.9890   -4.6820 C.3   377  NAJ377      0.1821
      7  O4B       15.5380  -28.2250   -5.7320 O.3   377  NAJ377     -0.3135
      8  C3B       14.5190  -29.2800   -3.8490 C.3   377  NAJ377      0.2184
      9  O3B       13.2230  -29.8290   -3.8130 O.3   377  NAJ377     -0.2174
     10  C2B       15.5430  -30.2050   -4.5290 C.3   377  NAJ377      0.2570
     11  O2B       15.2640  -31.5760   -4.5260 O.3   377  NAJ377     -0.2130
     12  C1B       15.6230  -29.6210   -5.9430 C.3   377  NAJ377      0.3186
     13  N9A       16.8290  -29.9310   -6.6540 N.pl3 377  NAJ377     -0.1439
     14  C8A       18.1150  -29.9470   -6.1660 C.3   377  NAJ377      0.3377
     15  N7A       18.9690  -30.2330   -7.1360 N.2   377  NAJ377     -0.2095
     16  C5A       18.2410  -30.3980   -8.2830 C.2   377  NAJ377      0.2526
     17  C6A       18.6200  -30.7240   -9.6100 C.2   377  NAJ377      0.4393
     18  N6A       19.8830  -30.9370   -9.9780 N.pl3 377  NAJ377      0.2180
     19  N1A       17.5280  -30.7630  -10.4480 N.2   377  NAJ377      0.0021
     20  C2A       16.2350  -30.5440  -10.1090 C.3   377  NAJ377      0.5254
     21  N3A       15.8460  -30.2850   -8.8630 N.2   377  NAJ377     -0.0055
     22  C4A       16.8860  -30.2470   -7.9990 C.2   377  NAJ377      0.3518
     23  O3        14.8130  -24.4570   -1.5590 O.3   377  NAJ377     -0.2703
     24  PN        13.8480  -23.1800   -1.5660 P.3   377  NAJ377      0.2189
     25  O1N       13.7300  -22.6280   -0.1960 O.3   377  NAJ377     -0.4371
     26  O2N       12.6330  -23.5220   -2.3750 O.2   377  NAJ377     -0.5170
     27  O5D       14.8190  -22.2310   -2.3520 O.3   377  NAJ377     -0.3112
     28  C5D       15.1460  -22.5290   -3.7340 C.3   377  NAJ377      0.1813
     29  C4D       16.2700  -21.6250   -4.1870 C.3   377  NAJ377      0.1799
     30  O4D       15.7740  -20.2740   -4.3130 O.3   377  NAJ377     -0.3327
     31  C3D       17.4960  -21.5470   -3.2590 C.3   377  NAJ377      0.2158
     32  O3D       18.6810  -21.3940   -4.0090 O.3   377  NAJ377     -0.2175
     33  C2D       17.2650  -20.2370   -2.5230 C.3   377  NAJ377      0.2309
     34  O2D       18.4500  -19.7120   -1.9880 O.3   377  NAJ377     -0.2158
     35  C1D       16.6190  -19.3950   -3.6030 C.3   377  NAJ377      0.2263
     36  N1N       15.8510  -18.2400   -3.1560 N.pl3 377  NAJ377     -0.2787
     37  C2N       15.9250  -17.0980   -3.8660 C.3   377  NAJ377      0.1244
     38  C3N       15.1130  -16.0420   -3.6120 C.2   377  NAJ377      0.0544
     39  C7N       15.1160  -14.7880   -4.3860 C.2   377  NAJ377      0.2818
     40  O7N       14.6610  -13.7450   -3.9510 O.2   377  NAJ377     -0.2670
     41  N7N       15.5960  -14.8800   -5.6770 N.am  377  NAJ377     -0.0839
     42  C4N       14.1610  -16.1420   -2.5250 C.2   377  NAJ377      0.0033
     43  C5N       14.0580  -17.3800   -1.8510 C.2   377  NAJ377      0.0157
     44  C6N       14.8890  -18.4200   -2.1680 C.2   377  NAJ377      0.0633
@<TRIPOS>BOND
     1    19    20    1
     2    19    17    2
     3    20    21    1
     4    18    17    1
     5    17    16    1
     6    21    22    2
     7    16    22    1
     8    16    15    2
     9    22    13    1
    10    15    14    1
    11    13    14    1
    12    13    12    1
    13    12     7    1
    14    12    10    1
    15     7     6    1
    16    41    39   am
    17     6     5    1
    18     6     8    1
    19    10    11    1
    20    10     8    1
    21    39    40    2
    22    39    38    1
    23    30    29    1
    24    30    35    1
    25    29    28    1
    26    29    31    1
    27    32    31    1
    28     5     4    1
    29    37    38    1
    30    37    36    1
    31     8     9    1
    32    28    27    1
    33    38    42    2
    34    35    36    1
    35    35    33    1
    36    31    33    1
    37    36    44    1
    38     4     1    1
    39    42    43    1
    40    33    34    1
    41    26    24    2
    42    27    24    1
    43    44    43    2
    44    24    23    1
    45    24    25    1
    46    23     1    1
    47     1     2    2
    48     1     3    1
