@<TRIPOS>MOLECULE
4dx0_0MT_A_1.pdb
 33 37 0 0 0
SMALL
GASTEIGER

@<TRIPOS>ATOM
      1  CAO       -1.6950  -32.5530   10.2510 C.ar  301  0MT301      0.0151
      2  CAI       -0.7590  -33.4680    9.7700 C.ar  301  0MT301      0.0079
      3  CAW       -0.6650  -33.7070    8.4000 C.ar  301  0MT301      0.0799
      4  CAU        0.3630  -34.7090    7.8730 C.2   301  0MT301      0.3878
      5  OAD        0.1550  -35.9220    8.0900 O.co2 301  0MT301     -0.2406
      6  OAA        1.3530  -34.2570    7.2580 O.co2 301  0MT301     -0.2406
      7  CAJ       -1.5050  -33.0350    7.5120 C.ar  301  0MT301      0.0079
      8  CAP       -2.4440  -32.1230    7.9940 C.ar  301  0MT301      0.0151
      9  CAZ       -2.5500  -31.8840    9.3680 C.ar  301  0MT301      0.0544
     10  NBF       -3.4370  -30.9980    9.8410 N.am  301  0MT301     -0.2511
     11  CAV       -4.3660  -31.2210   10.7790 C.2   301  0MT301      0.2688
     12  OAB       -4.5680  -32.3010   11.3340 O.2   301  0MT301     -0.2682
     13  CBC       -5.0760  -30.0610   11.0840 C.2   301  0MT301      0.1413
     14  NAT       -6.0410  -29.5440   11.8480 N.2   301  0MT301     -0.1476
     15  NAS       -6.1900  -28.3360   11.6230 N.2   301  0MT301     -0.1521
     16  CBB       -5.3310  -27.9260   10.6890 C.2   301  0MT301      0.0879
     17  CAX       -5.1700  -26.6510   10.1520 C.ar  301  0MT301      0.0157
     18  CAK       -5.7970  -26.3140    8.9520 C.ar  301  0MT301      0.0012
     19  CAG       -5.6420  -25.0370    8.4100 C.ar  301  0MT301      0.0000
     20  CAF       -4.8600  -24.0920    9.0740 C.ar  301  0MT301      0.0000
     21  CAH       -4.2340  -24.4250   10.2760 C.ar  301  0MT301      0.0000
     22  CAL       -4.3900  -25.7030   10.8160 C.ar  301  0MT301      0.0012
     23  CBD       -4.5780  -29.0230   10.3160 C.3   301  0MT301      0.1112
     24  CBE       -3.4690  -29.5860    9.4280 C.3   301  0MT301      0.1138
     25  CAY       -2.0960  -28.9790    9.7230 C.ar  301  0MT301     -0.0031
     26  CAM       -1.2480  -28.6830    8.6550 C.ar  301  0MT301     -0.0009
     27  CAQ        0.0130  -28.1440    8.8970 C.ar  301  0MT301      0.0238
     28  CBA        0.4220  -27.9140   10.2100 C.ar  301  0MT301      0.1429
     29  NBG        1.6240  -27.4070   10.4530 N.pl3 301  0MT301      0.0577
     30  OAE        1.7480  -26.1950   11.1690 O.2   301  0MT301     -0.1261
     31  OAC        2.7850  -28.1050   10.0240 O.2   301  0MT301     -0.1261
     32  CAR       -0.4200  -28.2200   11.2790 C.ar  301  0MT301      0.0238
     33  CAN       -1.6810  -28.7580   11.0370 C.ar  301  0MT301     -0.0009
@<TRIPOS>BOND
     1     6     4   ar
     2     7     8   ar
     3     7     3   ar
     4     4     5   ar
     5     4     3    1
     6     8     9   ar
     7     3     2   ar
     8    19    18   ar
     9    19    20   ar
    10    26    27   ar
    11    26    25   ar
    12    27    28   ar
    13    18    17   ar
    14    20    21   ar
    15     9    10    1
    16     9     1   ar
    17    24    25    1
    18    24    10    1
    19    24    23    1
    20    25    33   ar
    21     2     1   ar
    22    10    11   am
    23    31    29    2
    24    17    16    1
    25    17    22   ar
    26    28    29    1
    27    28    32   ar
    28    21    22   ar
    29    23    16    1
    30    23    13    1
    31    29    30    2
    32    16    15    2
    33    11    13    1
    34    11    12    2
    35    33    32   ar
    36    13    14    2
    37    15    14    1
