@<TRIPOS>MOLECULE
4dx2_BGC_A_1.pdb
 12 12 0 0 0
SMALL
GASTEIGER

@<TRIPOS>ATOM
      1  C2       -30.7530   61.9640   34.1460 C.3   501  BGC501      0.2434
      2  C3       -31.0950   62.2150   35.6430 C.3   501  BGC501      0.2199
      3  C4       -32.4000   61.4750   36.0940 C.3   501  BGC501      0.2144
      4  C5       -32.5530   60.0270   35.5410 C.3   501  BGC501      0.1836
      5  C6       -34.0210   59.5850   35.4880 C.3   501  BGC501      0.2142
      6  C1       -30.7650   60.4130   33.8410 C.3   501  BGC501      0.3024
      7  O1       -30.5870   60.0110   32.4830 O.3   501  BGC501     -0.1869
      8  O2       -29.5900   62.7350   33.7720 O.3   501  BGC501     -0.2148
      9  O3       -31.1040   63.6180   35.9090 O.3   501  BGC501     -0.2174
     10  O4       -32.5590   61.4250   37.5090 O.3   501  BGC501     -0.2176
     11  O5       -31.9940   59.7800   34.2420 O.3   501  BGC501     -0.3236
     12  O6       -34.8570   60.3770   34.6380 O.3   501  BGC501     -0.2176
@<TRIPOS>BOND
     1     7     6    1
     2     8     1    1
     3     6     1    1
     4     6    11    1
     5     1     2    1
     6    11     4    1
     7    12     5    1
     8     5     4    1
     9     4     3    1
    10     2     9    1
    11     2     3    1
    12     3    10    1
