@<TRIPOS>MOLECULE
4dx2_ATP_A_1.pdb
 31 33 0 0 0
SMALL
GASTEIGER

@<TRIPOS>ATOM
      1  PG       -61.8070   51.6960   23.0110 P.3   502  ATP502      0.5373
      2  O1G      -61.9650   50.7760   21.8110 O.2   502  ATP502     -0.2221
      3  O2G      -62.9240   52.7030   23.0510 O.3   502  ATP502     -0.1143
      4  O3G      -61.4340   51.0840   24.3530 O.3   502  ATP502     -0.1143
      5  PB       -59.4840   52.1040   21.6380 P.3   502  ATP502      0.2277
      6  O1B      -60.2880   51.6460   20.4290 O.2   502  ATP502     -0.5168
      7  O2B      -58.2750   53.0370   21.5790 O.3   502  ATP502     -0.4368
      8  O3B      -60.5190   52.6130   22.7420 O.3   502  ATP502     -0.2258
      9  PA       -57.8120   50.0080   21.8100 P.3   502  ATP502      0.2189
     10  O1A      -57.9460   49.9850   20.3080 O.2   502  ATP502     -0.5170
     11  O2A      -57.7790   48.7530   22.6430 O.3   502  ATP502     -0.4371
     12  O3A      -59.0270   50.8090   22.4180 O.3   502  ATP502     -0.2700
     13  O5'      -56.5400   50.8740   22.2790 O.3   502  ATP502     -0.3112
     14  C5'      -55.7940   50.4170   23.4230 C.3   502  ATP502      0.1813
     15  C4'      -55.1430   51.5640   24.1890 C.3   502  ATP502      0.1821
     16  O4'      -53.9370   52.0130   23.5400 O.3   502  ATP502     -0.3135
     17  C3'      -56.0950   52.7530   24.3010 C.3   502  ATP502      0.2184
     18  O3'      -56.5850   52.9030   25.6400 O.3   502  ATP502     -0.2174
     19  C2'      -55.2780   53.9640   23.9190 C.3   502  ATP502      0.2570
     20  O2'      -54.9180   54.6350   25.1290 O.3   502  ATP502     -0.2130
     21  C1'      -54.0230   53.4240   23.2420 C.3   502  ATP502      0.3186
     22  N9       -54.0890   53.5970   21.7690 N.pl3 502  ATP502     -0.1439
     23  C8       -55.2050   53.7420   21.0360 C.3   502  ATP502      0.3377
     24  N7       -54.9020   53.8420   19.7180 N.2   502  ATP502     -0.2095
     25  C5       -53.5800   53.7650   19.5990 C.2   502  ATP502      0.2526
     26  C6       -52.6310   53.7870   18.4850 C.2   502  ATP502      0.4393
     27  N6       -53.1190   53.9420   17.2550 N.pl3 502  ATP502      0.2180
     28  N1       -51.3110   53.6590   18.7160 N.2   502  ATP502      0.0021
     29  C2       -50.8740   53.5150   19.9830 C.3   502  ATP502      0.5254
     30  N3       -51.6870   53.4660   21.0740 N.2   502  ATP502     -0.0055
     31  C4       -53.0370   53.5870   20.9460 C.2   502  ATP502      0.3518
@<TRIPOS>BOND
     1    27    26    1
     2    26    28    2
     3    26    25    1
     4    28    29    1
     5    25    24    2
     6    25    31    1
     7    24    23    1
     8    29    30    1
     9    10     9    2
    10     6     5    2
    11    31    30    2
    12    31    22    1
    13    23    22    1
    14     7     5    1
    15     5    12    1
    16     5     8    1
    17    22    21    1
    18     9    13    1
    19     9    12    1
    20     9    11    1
    21     2     1    2
    22    13    14    1
    23     8     1    1
    24     1     3    1
    25     1     4    1
    26    21    16    1
    27    21    19    1
    28    14    15    1
    29    16    15    1
    30    19    17    1
    31    19    20    1
    32    15    17    1
    33    17    18    1
