@<TRIPOS>MOLECULE
4dx7_DM2_A_1.pdb
 39 43 0 0 0
SMALL
GASTEIGER

@<TRIPOS>ATOM
      1  C1        34.5610  -15.7660    1.1770 C.ar  1105  DM21105     0.0035
      2  C2        35.0230  -14.4900    0.9280 C.ar  1105  DM21105     0.0032
      3  C3        35.3940  -14.1450   -0.3810 C.ar  1105  DM21105     0.0370
      4  C4        35.2970  -15.0940   -1.4340 C.ar  1105  DM21105     0.1418
      5  O4        35.6780  -14.7020   -2.7260 O.3   1105  DM21105    -0.4713
      6  C5        34.8180  -16.4200   -1.1680 C.ar  1105  DM21105     0.0760
      7  C6        34.6490  -17.5670   -2.1970 C.ar  1105  DM21105     0.2019
      8  O6        34.9840  -17.3190   -3.5090 O.3   1105  DM21105    -0.2864
      9  C7        34.1300  -18.9350   -1.7710 C.ar  1105  DM21105     0.0838
     10  C8        33.9780  -19.9750   -2.6760 C.ar  1105  DM21105     0.1970
     11  O8        34.3080  -19.7700   -4.0270 O.3   1105  DM21105    -0.2867
     12  C9        33.4600  -21.3340   -2.2540 C.ar  1105  DM21105     0.0430
     13  C10       33.2940  -22.4810   -3.2710 C.3   1105  DM21105     0.1457
     14  O10       34.5130  -22.7980   -3.8970 O.3   1105  DM21105    -0.3283
     15  C11       32.7060  -23.7450   -2.6270 C.3   1105  DM21105     0.0723
     16  C12       33.1150  -24.0340   -1.1710 C.3   1105  DM21105     0.1865
     17  O12       34.5110  -24.1020   -1.1060 O.3   1105  DM21105    -0.2176
     18  C13       32.4480  -25.3370   -0.6690 C.2   1105  DM21105     0.2114
     19  O13       32.6140  -25.7090    0.4690 O.2   1105  DM21105    -0.2907
     20  C14       31.5780  -26.1420   -1.6220 C.3   1105  DM21105     0.2484
     21  O14       31.0870  -27.2630   -1.0160 O.3   1105  DM21105    -0.2118
     22  C15       32.6070  -22.8560   -0.4090 C.3   1105  DM21105     0.0672
     23  C16       33.1400  -21.5160   -0.9570 C.ar  1105  DM21105     0.0211
     24  C17       33.2890  -20.4590    0.0220 C.ar  1105  DM21105     0.1949
     25  O17       32.9460  -20.7230    1.3260 O.3   1105  DM21105    -0.2868
     26  C18       33.7820  -19.1790   -0.4080 C.ar  1105  DM21105     0.0837
     27  C19       33.9420  -18.0660    0.5820 C.ar  1105  DM21105     0.1990
     28  O19       33.6200  -18.2770    1.8870 O.3   1105  DM21105    -0.2865
     29  C20       34.4570  -16.7260    0.1620 C.ar  1105  DM21105     0.0451
     30  C21       35.8920  -13.3360   -2.9930 C.3   1105  DM21105     0.2525
     31  C1'       34.5840  -22.4760   -5.2770 C.3   1105  DM21105     0.2369
     32  C2'       35.6640  -21.3780   -5.4920 C.3   1105  DM21105     0.0830
     33  C3'       36.7350  -21.9960   -4.6100 C.3   1105  DM21105     0.1295
     34  N3'       37.9180  -21.1330   -4.4220 N.3   1105  DM21105    -0.1300
     35  C4'       37.1280  -23.3880   -5.1090 C.3   1105  DM21105     0.1965
     36  O4'       38.5110  -23.4350   -5.3550 O.3   1105  DM21105    -0.2190
     37  C5'       36.3220  -23.7810   -6.2690 C.3   1105  DM21105     0.1495
     38  O5'       34.9310  -23.6100   -6.0650 O.3   1105  DM21105    -0.3303
     39  C6'       36.7420  -23.0100   -7.5220 C.3   1105  DM21105     0.0349
@<TRIPOS>BOND
     1    39    37    1
     2    37    38    1
     3    37    35    1
     4    38    31    1
     5    32    31    1
     6    32    33    1
     7    36    35    1
     8    31    14    1
     9    35    33    1
    10    33    34    1
    11    11    10    1
    12    14    13    1
    13     8     7    1
    14    13    15    1
    15    13    12    1
    16    30     5    1
    17     5     4    1
    18    10    12   ar
    19    10     9   ar
    20    15    16    1
    21    12    23   ar
    22     7     9   ar
    23     7     6   ar
    24     9    26   ar
    25    20    21    1
    26    20    18    1
    27     4     6   ar
    28     4     3   ar
    29    16    17    1
    30    16    18    1
    31    16    22    1
    32     6    29   ar
    33    23    22    1
    34    23    24   ar
    35    18    19    2
    36    26    24   ar
    37    26    27   ar
    38     3     2   ar
    39    24    25    1
    40    29    27   ar
    41    29     1   ar
    42    27    28    1
    43     2     1   ar
