@<TRIPOS>MOLECULE
4dx9_III_j_1.pdb
 27 26 0 0 0
SMALL
GASTEIGER

@<TRIPOS>ATOM
      1  N         -3.6420   22.5650   31.5140 N.3   784  LYS784     -0.1231
      2  CA        -4.5230   21.5590   30.8550 C.3   784  LYS784      0.1693
      3  C         -3.8390   20.9760   29.6160 C.2   784  LYS784      0.2593
      4  O         -4.0980   21.4040   28.4880 O.2   784  LYS784     -0.2718
      5  CB        -5.8730   22.1930   30.4890 C.3   784  LYS784      0.0285
      6  CG        -7.0510   21.2280   30.4810 C.3   784  LYS784      0.0035
      7  CD        -7.5870   20.9820   31.8870 C.3   784  LYS784      0.0206
      8  CE        -8.7670   20.0240   31.8780 C.3   784  LYS784      0.1093
      9  NZ        -9.2810   19.7670   33.2520 N.3   784  LYS784     -0.1314
     10  N         -2.9630   19.9970   29.8410 N.am  785  SER785     -0.1938
     11  CA        -2.1810   19.3730   28.7690 C.3   785  SER785      0.2055
     12  C         -3.0610   18.6190   27.7720 C.2   785  SER785      0.2643
     13  O         -3.7910   17.6990   28.1470 O.2   785  SER785     -0.2714
     14  CB        -1.1190   18.4340   29.3530 C.3   785  SER785      0.2130
     15  OG        -0.1660   19.1500   30.1200 O.3   785  SER785     -0.2179
     16  N         -2.9850   19.0220   26.5050 N.am  786  ALA786     -0.1963
     17  CA        -3.7590   18.3830   25.4380 C.3   786  ALA786      0.1728
     18  C         -2.9050   17.4730   24.5510 C.2   786  ALA786      0.2616
     19  O         -3.3840   16.4400   24.0750 O.2   786  ALA786     -0.2715
     20  CB        -4.4890   19.4240   24.6050 C.3   786  ALA786      0.0334
     21  N         -1.6510   17.8630   24.3230 N.am  787  VAL787     -0.1977
     22  CA        -0.6910   17.0140   23.6140 C.3   787  VAL787      0.1596
     23  C          0.6110   16.9100   24.4050 C.2   787  VAL787      0.2287
     24  O          1.0210   15.8180   24.8010 O.2   787  VAL787     -0.2864
     25  CB        -0.4020   17.5150   22.1800 C.3   787  VAL787      0.0276
     26  CG1        0.7160   16.7010   21.5420 C.3   787  VAL787      0.0022
     27  CG2       -1.6540   17.4420   21.3160 C.3   787  VAL787      0.0022
@<TRIPOS>BOND
     1    27    25    1
     2    26    25    1
     3    25    22    1
     4    22    21    1
     5    22    23    1
     6    19    18    2
     7    21    18   am
     8    23    24    2
     9    18    17    1
    10    20    17    1
    11    17    16    1
    12    16    12   am
    13    12    13    2
    14    12    11    1
    15     4     3    2
    16    11    14    1
    17    11    10    1
    18    14    15    1
    19     3    10   am
    20     3     2    1
    21     6     5    1
    22     6     7    1
    23     5     2    1
    24     2     1    1
    25     8     7    1
    26     8     9    1
