@<TRIPOS>MOLECULE
4dxa_GSP_A_1.pdb
 32 34 0 0 0
SMALL
GASTEIGER

@<TRIPOS>ATOM
      1  PG        31.7670    6.1430   30.9300 P.3   201  GSP201      0.4340
      2  O3B       31.2490    4.9060   30.0160 O.3   201  GSP201     -0.2405
      3  S1G       33.0090    5.3360   32.1870 S.3   201  GSP201      0.0416
      4  O2G       30.5830    6.9380   31.6770 O.3   201  GSP201     -0.1305
      5  O3G       32.7110    7.2040   30.2040 O.2   201  GSP201     -0.2423
      6  PB        30.1900    4.8130   28.8040 P.3   201  GSP201      0.2262
      7  O1B       28.7730    4.9850   29.3280 O.3   201  GSP201     -0.4369
      8  O2B       30.4480    5.5270   27.5220 O.2   201  GSP201     -0.5168
      9  PA        31.1770    2.8650   26.9400 P.3   201  GSP201      0.2189
     10  O1A       32.6490    3.1330   27.1500 O.3   201  GSP201     -0.4371
     11  O2A       30.4780    3.3420   25.6950 O.2   201  GSP201     -0.5170
     12  O3A       30.4030    3.2970   28.3030 O.3   201  GSP201     -0.2701
     13  O5'       30.9170    1.2750   27.0070 O.3   201  GSP201     -0.3112
     14  C5'       31.4440    0.4740   28.0700 C.3   201  GSP201      0.1813
     15  C4'       31.6000   -0.9610   27.5890 C.3   201  GSP201      0.1799
     16  O4'       30.3230   -1.5150   27.2840 O.3   201  GSP201     -0.3326
     17  C3'       32.4010   -1.0300   26.3040 C.3   201  GSP201      0.2158
     18  O3'       33.1940   -2.2140   26.3880 O.3   201  GSP201     -0.2175
     19  C2'       31.3710   -1.2280   25.2170 C.3   201  GSP201      0.2310
     20  O2'       31.8940   -1.9650   24.1060 O.3   201  GSP201     -0.2158
     21  C1'       30.2690   -1.9770   25.9450 C.3   201  GSP201      0.2293
     22  N9        28.9420   -1.6650   25.3700 N.pl3 201  GSP201     -0.2354
     23  C8        28.4040   -0.4390   25.2550 C.3   201  GSP201      0.2246
     24  N7        27.1910   -0.5140   24.6600 N.2   201  GSP201     -0.2322
     25  C5        26.9300   -1.8030   24.3930 C.2   201  GSP201      0.2182
     26  C6        25.8170   -2.5730   23.7910 C.1   201  GSP201      0.2372
     27  O6        24.7790   -2.0120   23.3670 O.2   201  GSP201     -0.2069
     28  N1        25.9660   -3.9010   23.7040 N.2   201  GSP201     -0.2485
     29  C2        27.0670   -4.5530   24.1400 C.1   201  GSP201      0.2531
     30  N2        27.1240   -5.9120   24.0140 N.pl3 201  GSP201     -0.0226
     31  N3        28.1130   -3.9060   24.7120 N.2   201  GSP201     -0.3074
     32  C4        28.0970   -2.5610   24.8610 C.2   201  GSP201      0.2300
@<TRIPOS>BOND
     1    27    26    2
     2    28    26    2
     3    28    29    2
     4    26    25    1
     5    30    29    1
     6    20    19    1
     7    29    31    2
     8    25    24    2
     9    25    32    1
    10    24    23    1
    11    31    32    2
    12    32    22    1
    13    19    21    1
    14    19    17    1
    15    23    22    1
    16    22    21    1
    17    11     9    2
    18    21    16    1
    19    17    18    1
    20    17    15    1
    21     9    13    1
    22     9    10    1
    23     9    12    1
    24    13    14    1
    25    16    15    1
    26     8     6    2
    27    15    14    1
    28    12     6    1
    29     6     7    1
    30     6     2    1
    31     2     1    1
    32     5     1    2
    33     1     4    1
    34     1     3    1
