@<TRIPOS>MOLECULE
4dxd_GDP_A_1.pdb
 28 30 0 0 0
SMALL
GASTEIGER

@<TRIPOS>ATOM
      1  PB         6.6830   19.0580   26.6550 P.3   401  GDP401      0.5373
      2  O1B        7.6480   20.2800   26.8380 O.2   401  GDP401     -0.2221
      3  O2B        5.2450   19.3320   27.2210 O.3   401  GDP401     -0.1143
      4  O3B        7.0420   17.9030   27.4300 O.3   401  GDP401     -0.1143
      5  O3A        6.4540   18.5120   25.1390 O.3   401  GDP401     -0.2261
      6  PA         6.3420   19.4690   23.8840 P.3   401  GDP401      0.2231
      7  O1A        7.6570   19.9080   23.4340 O.2   401  GDP401     -0.5169
      8  O2A        5.4970   20.8230   24.1010 O.3   401  GDP401     -0.4370
      9  O5'        5.7700   18.4780   22.8060 O.3   401  GDP401     -0.3111
     10  C5'        4.5090   17.9350   23.0600 C.3   401  GDP401      0.1813
     11  C4'        3.7930   17.8460   21.6890 C.3   401  GDP401      0.1799
     12  O4'        3.6610   19.1840   21.1910 O.3   401  GDP401     -0.3326
     13  C3'        4.7300   17.1690   20.6050 C.3   401  GDP401      0.2158
     14  O3'        4.3450   15.8180   20.7360 O.3   401  GDP401     -0.2175
     15  C2'        4.2590   17.8180   19.2580 C.3   401  GDP401      0.2310
     16  O2'        3.0070   17.3050   18.8660 O.3   401  GDP401     -0.2158
     17  C1'        3.8790   19.2190   19.7240 C.3   401  GDP401      0.2293
     18  N9         4.7170   20.3820   19.5030 N.pl3 401  GDP401     -0.2354
     19  C8         5.8970   20.7400   20.1050 C.3   401  GDP401      0.2246
     20  N7         6.3180   21.9010   19.6690 N.2   401  GDP401     -0.2322
     21  C5         5.3700   22.4090   18.8260 C.2   401  GDP401      0.2182
     22  C6         5.1790   23.6040   18.0890 C.1   401  GDP401      0.2372
     23  O6         5.9710   24.4980   18.0990 O.2   401  GDP401     -0.2069
     24  N1         4.0780   23.7360   17.3320 N.2   401  GDP401     -0.2485
     25  C2         3.1160   22.7890   17.2370 C.1   401  GDP401      0.2531
     26  N2         2.0110   23.0480   16.4010 N.pl3 401  GDP401     -0.0226
     27  N3         3.2570   21.6500   17.8980 N.2   401  GDP401     -0.3074
     28  C4         4.3310   21.4270   18.6960 C.2   401  GDP401      0.2300
@<TRIPOS>BOND
     1    26    25    1
     2    25    24    2
     3    25    27    2
     4    24    22    2
     5    27    28    2
     6    22    23    2
     7    22    21    1
     8    28    21    1
     9    28    18    1
    10    21    20    2
    11    16    15    1
    12    15    17    1
    13    15    13    1
    14    18    17    1
    15    18    19    1
    16    20    19    1
    17    17    12    1
    18    13    14    1
    19    13    11    1
    20    12    11    1
    21    11    10    1
    22     9    10    1
    23     9     6    1
    24     7     6    2
    25     6     8    1
    26     6     5    1
    27     5     1    1
    28     1     2    2
    29     1     3    1
    30     1     4    1
