@<TRIPOS>MOLECULE
4dxd_9PC_A_1.pdb
 23 25 0 0 0
SMALL
GASTEIGER

@<TRIPOS>ATOM
      1  C11      -11.1610   36.1750   16.8720 C.2   402  9PC402      0.0616
      2  C12      -10.8750   37.4870   16.5310 C.3   402  9PC402      0.1005
      3  N        -18.1270   45.6960   18.9560 N.am  402  9PC402     -0.0836
      4  C13      -15.4390   44.2120   18.8750 C.ar  402  9PC402      0.1804
      5  C1       -15.6880   45.5480   19.1890 C.ar  402  9PC402      0.1144
      6  C2       -14.6860   46.4970   18.9940 C.ar  402  9PC402      0.1470
      7  C3       -13.4300   46.1210   18.4750 C.ar  402  9PC402      0.0331
      8  F1       -16.4020   43.3010   19.0800 F     402  9PC402     -0.2007
      9  C        -17.0480   45.9660   19.7010 C.2   402  9PC402      0.2887
     10  O        -17.1430   46.5390   20.7700 O.2   402  9PC402     -0.2665
     11  C5       -14.2060   43.8160   18.3550 C.ar  402  9PC402      0.1667
     12  C4       -13.1940   44.7820   18.1490 C.ar  402  9PC402      0.0416
     13  F        -14.9530   47.7850   19.2820 F     402  9PC402     -0.2039
     14  O1       -14.0180   42.4800   18.0710 O.3   402  9PC402     -0.4650
     15  C6       -12.7250   42.0000   17.6900 C.3   402  9PC402      0.2704
     16  C7       -12.5440   40.4990   17.6310 C.2   402  9PC402      0.1835
     17  S        -13.5630   39.4700   18.6260 S.3   402  9PC402     -0.0349
     18  C9       -12.6600   38.1850   17.9940 C.2   402  9PC402      0.1385
     19  N2       -12.9260   36.8850   18.3000 N.2   402  9PC402     -0.2344
     20  C10      -12.1970   35.8860   17.7610 C.2   402  9PC402      0.1069
     21 CL        -10.1730   34.8830   16.1490 Cl    402  9PC402     -0.0849
     22  C8       -11.6310   38.5000   17.1130 C.2   402  9PC402      0.1383
     23  N1       -11.6020   39.8370   16.9240 N.2   402  9PC402     -0.3978
@<TRIPOS>BOND
     1    21     1    1
     2     2     1    1
     3     2    22    1
     4     1    20    2
     5    23    22    2
     6    23    16    2
     7    22    18    1
     8    16    15    1
     9    16    17    1
    10    15    14    1
    11    20    19    1
    12    18    19    2
    13    18    17    1
    14    14    11    1
    15    12    11   ar
    16    12     7   ar
    17    11     4   ar
    18     7     6   ar
    19     4     8    1
    20     4     5   ar
    21     3     9   am
    22     6     5   ar
    23     6    13    1
    24     5     9    1
    25     9    10    2
