@<TRIPOS>MOLECULE
4dxg_SIA_A_1.pdb
 20 20 0 0 0
SMALL
GASTEIGER

@<TRIPOS>ATOM
      1  C1       -12.2810  -23.6900   22.7400 C.2   301  SIA301      0.3914
      2  C2       -13.3160  -24.5740   23.4700 C.3   301  SIA301      0.2203
      3  C3       -12.8440  -26.0370   23.4110 C.3   301  SIA301      0.0760
      4  C4       -11.6560  -26.3200   24.3400 C.3   301  SIA301      0.1773
      5  C5       -11.8650  -25.7830   25.7670 C.3   301  SIA301      0.1552
      6  C6       -12.3390  -24.3310   25.6730 C.3   301  SIA301      0.1710
      7  C7       -12.6660  -23.6710   27.0150 C.3   301  SIA301      0.2134
      8  C8       -13.2410  -22.2800   26.7960 C.3   301  SIA301      0.2173
      9  C9       -13.3040  -21.4520   28.0920 C.3   301  SIA301      0.2175
     10  C10      -10.3170  -26.5690   27.5640 C.2   301  SIA301      0.2420
     11  C11       -8.9070  -26.4770   28.0370 C.3   301  SIA301      0.0964
     12  N5       -10.5720  -25.8630   26.4550 N.am  301  SIA301     -0.2020
     13  O1A      -11.7570  -24.1400   21.6750 O.co2 301  SIA301     -0.2430
     14  O1B      -12.0170  -22.5440   23.2050 O.co2 301  SIA301     -0.2430
     15  O4       -11.3680  -27.7270   24.4740 O.3   301  SIA301     -0.2211
     16  O6       -13.5240  -24.2720   24.8540 O.3   301  SIA301     -0.3429
     17  O7       -13.6800  -24.4290   27.6390 O.3   301  SIA301     -0.2176
     18  O8       -12.4300  -21.6490   25.7830 O.3   301  SIA301     -0.2175
     19  O9       -13.7700  -20.1240   27.7720 O.3   301  SIA301     -0.2175
     20  O10      -11.1520  -27.2280   28.1770 O.2   301  SIA301     -0.2733
@<TRIPOS>BOND
     1    13     1   ar
     2     1    14   ar
     3     1     2    1
     4     3     2    1
     5     3     4    1
     6     2    16    1
     7     4    15    1
     8     4     5    1
     9    16     6    1
    10     6     5    1
    11     6     7    1
    12     5    12    1
    13    18     8    1
    14    12    10   am
    15     8     7    1
    16     8     9    1
    17     7    17    1
    18    10    11    1
    19    10    20    2
    20    19     9    1
