@<TRIPOS>MOLECULE
4dxg_FUC_A_1.pdb
 10 10 0 0 0
SMALL
GASTEIGER

@<TRIPOS>ATOM
      1  C1       -21.1040  -20.7100   21.7360 C.3   304  FUC304      0.1776
      2  C2       -21.0070  -19.8270   20.5000 C.3   304  FUC304      0.2141
      3  C3       -19.7900  -20.1120   19.6870 C.3   304  FUC304      0.2172
      4  C4       -19.7480  -21.5700   19.3470 C.3   304  FUC304      0.2116
      5  C5       -19.7800  -22.3830   20.6550 C.3   304  FUC304      0.1483
      6  C6       -19.7640  -23.8920   20.5170 C.3   304  FUC304      0.0349
      7  O2       -20.8780  -18.4670   20.8370 O.3   304  FUC304     -0.2176
      8  O3       -19.9490  -19.3360   18.5200 O.3   304  FUC304     -0.2175
      9  O4       -20.8630  -21.7420   18.4540 O.3   304  FUC304     -0.2177
     10  O5       -20.9460  -22.0850   21.3980 O.3   304  FUC304     -0.3508
@<TRIPOS>BOND
     1     9     4    1
     2     8     3    1
     3     4     3    1
     4     4     5    1
     5     3     2    1
     6     2     7    1
     7     2     1    1
     8     6     5    1
     9     5    10    1
    10    10     1    1
