@<TRIPOS>MOLECULE
4dxg_GAL_A_1.pdb
 11 11 0 0 0
SMALL
GASTEIGER

@<TRIPOS>ATOM
      1  C1       -17.1260  -21.8970   23.4290 C.3   303  GAL303      0.1777
      2  C2       -16.5200  -23.2770   23.2890 C.3   303  GAL303      0.2141
      3  C3       -15.0980  -23.1870   22.8180 C.3   303  GAL303      0.2173
      4  C4       -15.0410  -22.4230   21.4820 C.3   303  GAL303      0.2142
      5  C5       -15.6720  -21.0430   21.6940 C.3   303  GAL303      0.1810
      6  C6       -15.7800  -20.3680   20.3500 C.3   303  GAL303      0.2141
      7  O2       -16.5070  -23.8710   24.5450 O.3   303  GAL303     -0.2176
      8  O3       -14.5830  -24.4960   22.7590 O.3   303  GAL303     -0.2175
      9  O4       -15.7310  -23.1090   20.4240 O.3   303  GAL303     -0.2176
     10  O5       -16.9890  -21.1600   22.2200 O.3   303  GAL303     -0.3481
     11  O6       -16.3050  -19.0670   20.5350 O.3   303  GAL303     -0.2176
@<TRIPOS>BOND
     1     6    11    1
     2     6     5    1
     3     9     4    1
     4     4     5    1
     5     4     3    1
     6     5    10    1
     7    10     1    1
     8     8     3    1
     9     3     2    1
    10     2     1    1
    11     2     7    1
