@<TRIPOS>MOLECULE
4dxg_PIN_A_1.pdb
 18 18 0 0 0
SMALL
GASTEIGER

@<TRIPOS>ATOM
      1  C1        -6.2850    8.9460   36.9830 C.3   305  PIN305      0.1225
      2  C2        -7.6660    8.5970   36.4280 C.3   305  PIN305      0.0939
      3  N1        -7.5910    8.1850   35.0280 N.3   305  PIN305     -0.2689
      4  C3        -8.6090    8.8010   34.1790 C.3   305  PIN305      0.0897
      5  C4        -6.6060    7.2140   34.4780 C.3   305  PIN305      0.0897
      6  C1'       -8.3940    5.8440   30.5040 C.3   305  PIN305      0.1225
      7  C2'       -9.1980    6.4910   31.6450 C.3   305  PIN305      0.0939
      8  N1'       -8.2500    7.0680   32.6270 N.3   305  PIN305     -0.2689
      9  C3'       -7.3460    6.2730   33.5000 C.3   305  PIN305      0.0897
     10  C4'       -8.2010    8.5220   32.7460 C.3   305  PIN305      0.0897
     11  S1        -6.4080    9.6120   38.5210 S.3   305  PIN305     -0.1946
     12  S1'       -9.2820    5.2630   29.1880 S.3   305  PIN305     -0.1946
     13  O1        -5.0840    9.4030   39.1390 O.3   305  PIN305     -0.3074
     14  O2        -6.6750   11.0580   38.3930 O.3   305  PIN305     -0.3074
     15  O3        -7.5450    9.0540   39.3130 O.3   305  PIN305     -0.3074
     16  O1'       -8.9790    3.8120   29.0720 O.3   305  PIN305     -0.3074
     17  O2'       -8.8150    6.0160   27.9830 O.3   305  PIN305     -0.3074
     18  O3'      -10.7530    5.4680   29.3410 O.3   305  PIN305     -0.3074
@<TRIPOS>BOND
     1    17    12    1
     2    16    12    1
     3    12    18    1
     4    12     6    1
     5     6     7    1
     6     7     8    1
     7     8    10    1
     8     8     9    1
     9    10     4    1
    10     9     5    1
    11     4     3    1
    12     5     3    1
    13     3     2    1
    14     2     1    1
    15     1    11    1
    16    14    11    1
    17    11    13    1
    18    11    15    1
