@<TRIPOS>MOLECULE
4dxh_NAJ_A_1.pdb
 44 48 0 0 0
SMALL
GASTEIGER

@<TRIPOS>ATOM
      1  PA        14.5220  -25.9430   -1.4270 P.3   377  NAJ377      0.2189
      2  O1A       15.8780  -26.4950   -1.1120 O.2   377  NAJ377     -0.5170
      3  O2A       13.3930  -26.2320   -0.5590 O.3   377  NAJ377     -0.4371
      4  O5B       14.0720  -26.3970   -2.8620 O.3   377  NAJ377     -0.3112
      5  C5B       15.0060  -26.6650   -3.9250 C.3   377  NAJ377      0.1813
      6  C4B       14.5320  -27.8960   -4.6840 C.3   377  NAJ377      0.1821
      7  O4B       15.4770  -28.1170   -5.7530 O.3   377  NAJ377     -0.3135
      8  C3B       14.4550  -29.2030   -3.8700 C.3   377  NAJ377      0.2184
      9  O3B       13.1320  -29.7180   -3.8480 O.3   377  NAJ377     -0.2174
     10  C2B       15.4870  -30.1100   -4.5500 C.3   377  NAJ377      0.2570
     11  O2B       15.2020  -31.4920   -4.5520 O.3   377  NAJ377     -0.2130
     12  C1B       15.5410  -29.5090   -5.9540 C.3   377  NAJ377      0.3186
     13  N9A       16.7420  -29.8080   -6.6790 N.pl3 377  NAJ377     -0.1439
     14  C8A       18.0300  -29.8930   -6.2040 C.3   377  NAJ377      0.3377
     15  N7A       18.8760  -30.1460   -7.1740 N.2   377  NAJ377     -0.2095
     16  C5A       18.1480  -30.2900   -8.3190 C.2   377  NAJ377      0.2526
     17  C6A       18.5140  -30.6180   -9.6490 C.2   377  NAJ377      0.4393
     18  N6A       19.7380  -30.8290  -10.0850 N.pl3 377  NAJ377      0.2180
     19  N1A       17.4270  -30.6270  -10.4890 N.2   377  NAJ377      0.0021
     20  C2A       16.1420  -30.3930  -10.1340 C.3   377  NAJ377      0.5254
     21  N3A       15.7660  -30.1370   -8.8840 N.2   377  NAJ377     -0.0055
     22  C4A       16.8070  -30.1000   -8.0250 C.2   377  NAJ377      0.3518
     23  O3        14.7650  -24.3800   -1.5650 O.3   377  NAJ377     -0.2703
     24  PN        13.7880  -23.0660   -1.5630 P.3   377  NAJ377      0.2189
     25  O1N       13.6930  -22.5170   -0.1970 O.3   377  NAJ377     -0.4371
     26  O2N       12.5830  -23.3620   -2.3490 O.2   377  NAJ377     -0.5170
     27  O5D       14.7350  -22.0890   -2.3640 O.3   377  NAJ377     -0.3112
     28  C5D       15.0760  -22.3850   -3.7290 C.3   377  NAJ377      0.1813
     29  C4D       16.1860  -21.5090   -4.1930 C.3   377  NAJ377      0.1799
     30  O4D       15.7110  -20.1340   -4.3210 O.3   377  NAJ377     -0.3327
     31  C3D       17.4190  -21.4510   -3.2900 C.3   377  NAJ377      0.2158
     32  O3D       18.6380  -21.3300   -4.0100 O.3   377  NAJ377     -0.2175
     33  C2D       17.2400  -20.1420   -2.5160 C.3   377  NAJ377      0.2309
     34  O2D       18.3970  -19.5950   -2.0090 O.3   377  NAJ377     -0.2158
     35  C1D       16.5810  -19.2890   -3.6040 C.3   377  NAJ377      0.2263
     36  N1N       15.8090  -18.1370   -3.1530 N.pl3 377  NAJ377     -0.2787
     37  C2N       15.9060  -16.9800   -3.8750 C.3   377  NAJ377      0.1244
     38  C3N       15.1050  -15.8720   -3.5700 C.2   377  NAJ377      0.0544
     39  C7N       15.1710  -14.6410   -4.3950 C.2   377  NAJ377      0.2818
     40  O7N       14.7690  -13.5880   -3.8900 O.2   377  NAJ377     -0.2670
     41  N7N       15.6190  -14.7270   -5.6380 N.am  377  NAJ377     -0.0839
     42  C4N       14.2050  -16.0000   -2.4980 C.2   377  NAJ377      0.0033
     43  C5N       14.0180  -17.2150   -1.8340 C.2   377  NAJ377      0.0157
     44  C6N       14.8390  -18.2850   -2.1920 C.2   377  NAJ377      0.0633
@<TRIPOS>BOND
     1    19    20    1
     2    19    17    2
     3    20    21    1
     4    18    17    1
     5    17    16    1
     6    21    22    2
     7    16    22    1
     8    16    15    2
     9    22    13    1
    10    15    14    1
    11    13    14    1
    12    13    12    1
    13    12     7    1
    14    12    10    1
    15     7     6    1
    16    41    39   am
    17     6     5    1
    18     6     8    1
    19    11    10    1
    20    10     8    1
    21    39    40    2
    22    39    38    1
    23    30    29    1
    24    30    35    1
    25    29    28    1
    26    29    31    1
    27    32    31    1
    28     5     4    1
    29    37    38    1
    30    37    36    1
    31     8     9    1
    32    28    27    1
    33    35    36    1
    34    35    33    1
    35    38    42    2
    36    31    33    1
    37    36    44    1
    38     4     1    1
    39    33    34    1
    40    42    43    1
    41    27    24    1
    42    26    24    2
    43    44    43    2
    44    23    24    1
    45    23     1    1
    46    24    25    1
    47     1     2    2
    48     1     3    1
