@<TRIPOS>MOLECULE
4dxj_0M9_A_1.pdb
 14 13 0 0 0
SMALL
GASTEIGER

@<TRIPOS>ATOM
      1  O1        48.2890   47.3460  204.0600 O.3   404  0M9404     -0.3568
      2  P1        49.3070   48.3620  204.5060 P.3   404  0M9404      0.1250
      3  O3        49.9070   48.0410  205.8550 O.3   404  0M9404     -0.3568
      4  O2        50.3420   48.6620  203.4550 O.2   404  0M9404     -0.4596
      5  C9        48.4800   49.9900  204.6040 C.3   404  0M9404      0.1212
      6  P2        49.1440   51.0860  205.9120 P.3   404  0M9404      0.1250
      7  O4        48.0300   52.0390  206.2950 O.3   404  0M9404     -0.3568
      8  O5        49.6170   50.2070  207.0530 O.3   404  0M9404     -0.3568
      9  O6        50.2180   51.7710  205.1060 O.2   404  0M9404     -0.4596
     10  C8        46.9630   50.0830  204.7380 C.3   404  0M9404      0.1032
     11  N1        46.5820   51.3090  204.0700 N.3   404  0M9404     -0.2171
     12  C7        45.1930   51.5970  203.8350 C.3   404  0M9404      0.0887
     13  C6        45.0690   52.8950  203.0590 C.3   404  0M9404      0.0188
     14  C5        43.9570   53.7070  203.6470 C.3   404  0M9404      0.0015
@<TRIPOS>BOND
     1    13    14    1
     2    13    12    1
     3     4     2    2
     4    12    11    1
     5     1     2    1
     6    11    10    1
     7     2     5    1
     8     2     3    1
     9     5    10    1
    10     5     6    1
    11     9     6    2
    12     6     7    1
    13     6     8    1
