@<TRIPOS>MOLECULE
4dxj_IPR_A_1.pdb
 14 13 0 0 0
SMALL
GASTEIGER

@<TRIPOS>ATOM
      1  P11       43.0750   42.7330  201.7280 P.3   405  IPR405      0.5373
      2  O14       42.2540   41.8500  202.6570 O.3   405  IPR405     -0.1143
      3  O12       44.3060   42.1060  201.1220 O.3   405  IPR405     -0.1143
      4  O13       42.2490   43.4850  200.7130 O.2   405  IPR405     -0.2221
      5  O10       43.7670   43.9080  202.6130 O.3   405  IPR405     -0.2261
      6  P7        43.6120   44.1820  204.2090 P.3   405  IPR405      0.2230
      7  O8        44.7810   43.5170  204.9230 O.3   405  IPR405     -0.4370
      8  O9        42.1890   43.9380  204.6430 O.2   405  IPR405     -0.5169
      9  O6        43.8750   45.7680  204.2660 O.3   405  IPR405     -0.3135
     10  C5        45.1820   46.2890  204.5080 C.3   405  IPR405      0.1535
     11  C4        45.0980   47.8080  204.5340 C.3   405  IPR405      0.0545
     12  C2        44.3790   48.3250  205.7660 C.2   405  IPR405     -0.0414
     13  C1        44.9280   48.0670  207.1400 C.3   405  IPR405      0.0264
     14  C3        43.2660   49.0230  205.6270 C.2   405  IPR405     -0.0090
@<TRIPOS>BOND
     1     4     1    2
     2     3     1    1
     3     1     5    1
     4     1     2    1
     5     5     6    1
     6     6     9    1
     7     6     8    2
     8     6     7    1
     9     9    10    1
    10    10    11    1
    11    11    12    1
    12    14    12    2
    13    12    13    1
