@<TRIPOS>MOLECULE
4dxj_PGE_B_1.pdb
 10 9 0 0 0
SMALL
GASTEIGER

@<TRIPOS>ATOM
      1  C1        39.0630   61.2180  193.7580 C.3   409  PGE409      0.2140
      2  O1        40.0800   61.5380  194.7170 O.3   409  PGE409     -0.2176
      3  C2        37.6380   61.4650  194.2740 C.3   409  PGE409      0.1777
      4  O2        36.6820   61.3620  193.2100 O.3   409  PGE409     -0.3483
      5  C3        35.9690   60.1130  193.1620 C.3   409  PGE409      0.1742
      6  C4        35.7140   59.7050  191.7090 C.3   409  PGE409      0.1742
      7  O4        40.1250   58.6270  190.3360 O.3   409  PGE409     -0.2176
      8  C6        38.7990   58.0960  190.3760 C.3   409  PGE409      0.2140
      9  C5        37.7620   59.1810  190.6360 C.3   409  PGE409      0.1777
     10  O3        36.5910   58.6550  191.2520 O.3   409  PGE409     -0.3483
@<TRIPOS>BOND
     1     7     8    1
     2     8     9    1
     3     9    10    1
     4    10     6    1
     5     6     5    1
     6     5     4    1
     7     4     3    1
     8     1     3    1
     9     1     2    1
