@<TRIPOS>MOLECULE
4dxl_ATP_A_1.pdb
 31 33 0 0 0
SMALL
GASTEIGER

@<TRIPOS>ATOM
      1  PG       -12.1270   18.5860   -6.7380 P.3   402  ATP402      0.5373
      2  O1G      -11.2100   18.9580   -7.8580 O.2   402  ATP402     -0.2221
      3  O2G      -13.6130   18.6480   -7.0240 O.3   402  ATP402     -0.1143
      4  O3G      -11.7220   17.3680   -5.9250 O.3   402  ATP402     -0.1143
      5  PB       -11.1800   21.2290   -6.0170 P.3   402  ATP402      0.2277
      6  O1B       -9.7010   21.2110   -5.5200 O.3   402  ATP402     -0.4368
      7  O2B      -11.6380   21.8180   -7.3280 O.2   402  ATP402     -0.5168
      8  O3B      -11.9010   19.8240   -5.7030 O.3   402  ATP402     -0.2258
      9  PA       -11.0710   22.1950   -3.4210 P.3   402  ATP402      0.2189
     10  O1A      -10.7550   20.8220   -2.8250 O.3   402  ATP402     -0.4371
     11  O2A      -10.1670   23.3950   -3.2410 O.2   402  ATP402     -0.5170
     12  O3A      -11.7990   22.1740   -4.8640 O.3   402  ATP402     -0.2700
     13  O5'      -12.4450   22.5770   -2.6410 O.3   402  ATP402     -0.3112
     14  C5'      -13.0790   23.8650   -2.8230 C.3   402  ATP402      0.1813
     15  C4'      -14.4070   23.9670   -2.0500 C.3   402  ATP402      0.1821
     16  O4'      -14.3870   23.2830   -0.7660 O.3   402  ATP402     -0.3135
     17  C3'      -14.7210   25.4020   -1.6730 C.3   402  ATP402      0.2184
     18  O3'      -16.1350   25.4700   -1.5200 O.3   402  ATP402     -0.2174
     19  C2'      -13.9990   25.5920   -0.3350 C.3   402  ATP402      0.2570
     20  O2'      -14.5470   26.6130    0.5120 O.3   402  ATP402     -0.2130
     21  C1'      -14.1910   24.2330    0.3020 C.3   402  ATP402      0.3186
     22  N9       -13.0740   23.7270    1.1340 N.pl3 402  ATP402     -0.1439
     23  C8       -13.2990   23.0410    2.2800 C.3   402  ATP402      0.3377
     24  N7       -12.1230   22.6290    2.8060 N.2   402  ATP402     -0.2095
     25  C5       -11.1220   23.0680    2.0050 C.2   402  ATP402      0.2526
     26  C6        -9.6530   22.9330    2.0090 C.2   402  ATP402      0.4393
     27  N6        -9.0280   22.2900    3.0530 N.pl3 402  ATP402      0.2180
     28  N1        -8.9750   23.4830    0.9760 N.2   402  ATP402      0.0021
     29  C2        -9.5980   24.1380   -0.0370 C.3   402  ATP402      0.5254
     30  N3       -10.9440   24.2890   -0.0950 N.2   402  ATP402     -0.0055
     31  C4       -11.7500   23.7820    0.8910 C.2   402  ATP402      0.3518
@<TRIPOS>BOND
     1     2     1    2
     2     7     5    2
     3     3     1    1
     4     1     4    1
     5     1     8    1
     6     5     8    1
     7     5     6    1
     8     5    12    1
     9    12     9    1
    10     9    11    2
    11     9    10    1
    12     9    13    1
    13    14    13    1
    14    14    15    1
    15    15    17    1
    16    15    16    1
    17    17    18    1
    18    17    19    1
    19    16    21    1
    20    19    21    1
    21    19    20    1
    22    30    29    1
    23    30    31    2
    24    29    28    1
    25    21    22    1
    26    31    22    1
    27    31    25    1
    28    28    26    2
    29    22    23    1
    30    25    26    1
    31    25    24    2
    32    26    27    1
    33    23    24    1
