@<TRIPOS>MOLECULE
4dxl_C5P_A_1.pdb
 21 22 0 0 0
SMALL
GASTEIGER

@<TRIPOS>ATOM
      1  O3P      -17.8980   15.3980   -2.6420 O.3   401  C5P401     -0.1145
      2  P        -17.3340   14.8460   -3.9300 P.3   401  C5P401      0.5327
      3  O1P      -16.0520   15.5000   -4.3430 O.2   401  C5P401     -0.2224
      4  O2P      -17.3370   13.3340   -4.0710 O.3   401  C5P401     -0.1145
      5  O5'      -18.4270   15.3380   -5.0100 O.3   401  C5P401     -0.2675
      6  C5'      -18.8080   16.7150   -5.0490 C.3   401  C5P401      0.1859
      7  C4'      -19.9330   16.8870   -6.0400 C.3   401  C5P401      0.1801
      8  O4'      -19.4400   16.7420   -7.3820 O.3   401  C5P401     -0.3320
      9  C3'      -21.0760   15.8910   -5.8830 C.3   401  C5P401      0.2158
     10  O3'      -22.0840   16.3020   -4.9490 O.3   401  C5P401     -0.2175
     11  C2'      -21.5970   15.8570   -7.2980 C.3   401  C5P401      0.2319
     12  O2'      -22.4730   16.9720   -7.5220 O.3   401  C5P401     -0.2157
     13  C1'      -20.3550   16.0220   -8.1660 C.3   401  C5P401      0.2400
     14  N1       -19.7760   14.7100   -8.5220 N.am  401  C5P401     -0.1778
     15  C2       -20.4860   13.9240   -9.4140 C.1   401  C5P401      0.2756
     16  N3       -20.0210   12.7090   -9.7790 N.2   401  C5P401     -0.3024
     17  C4       -18.8330   12.2530   -9.2980 C.2   401  C5P401      0.2346
     18  C5       -18.0940   13.0290   -8.4130 C.2   401  C5P401      0.0687
     19  C6       -18.5870   14.2700   -8.0300 C.2   401  C5P401      0.0836
     20  O2       -21.5710   14.3600   -9.8520 O.2   401  C5P401     -0.1925
     21  N4       -18.3990   11.0320   -9.6670 N.pl3 401  C5P401     -0.0921
@<TRIPOS>BOND
     1    20    15    2
     2    16    15    2
     3    16    17    2
     4    21    17    1
     5    15    14   am
     6    17    18    1
     7    14    13    1
     8    14    19    1
     9    18    19    2
    10    13     8    1
    11    13    11    1
    12    12    11    1
    13     8     7    1
    14    11     9    1
    15     7     9    1
    16     7     6    1
    17     9    10    1
    18     6     5    1
    19     5     2    1
    20     3     2    2
    21     4     2    1
    22     2     1    1
