@<TRIPOS>MOLECULE
4dxr_DMU_A_1.pdb
 25 26 0 0 0
SMALL
GASTEIGER

@<TRIPOS>ATOM
      1  C1         2.6720   41.7080   28.9030 C.3   801  DMU801      0.2404
      2  C2         2.9150   41.3480   27.5030 C.3   801  DMU801      0.2167
      3  C3         4.3190   41.0750   27.2160 C.3   801  DMU801      0.1804
      4  C4         5.0250   40.2400   28.2680 C.3   801  DMU801      0.1803
      5  O5         4.7740   40.8090   29.5870 O.3   801  DMU801     -0.3257
      6  C6         3.3660   40.7610   29.8880 C.3   801  DMU801      0.2695
      7  O7         4.4000   40.3260   25.9820 O.3   801  DMU801     -0.3257
      8  O16        3.1650   41.0000   31.2580 O.3   801  DMU801     -0.3286
      9  C18        3.3660   39.9620   32.2320 C.3   801  DMU801      0.1450
     10  C19        3.1750   40.2450   33.7050 C.3   801  DMU801      0.0347
     11  O49        1.3060   41.7800   29.1400 O.3   801  DMU801     -0.2149
     12  O55        2.6310   42.4820   26.6840 O.3   801  DMU801     -0.2175
     13  C57        6.4780   40.1090   28.0060 C.3   801  DMU801      0.2141
     14  O61        7.1610   41.3210   27.9040 O.3   801  DMU801     -0.2176
     15  C5         3.8660   40.8350   23.9220 C.3   801  DMU801      0.2406
     16  C7         3.9890   39.7650   22.8910 C.3   801  DMU801      0.2198
     17  C8         5.3510   39.3710   22.4960 C.3   801  DMU801      0.2144
     18  C9         6.4850   40.0960   23.2200 C.3   801  DMU801      0.1835
     19  O1         6.2560   40.4000   24.6380 O.3   801  DMU801     -0.3256
     20  C10        4.9710   40.9980   24.9320 C.3   801  DMU801      0.2695
     21  O2         5.4330   37.9520   22.5730 O.3   801  DMU801     -0.2176
     22  O3         3.6180   42.0890   23.4380 O.3   801  DMU801     -0.2149
     23  O4         3.1050   39.9410   21.7500 O.3   801  DMU801     -0.2174
     24  C11        7.8270   39.4590   23.0820 C.3   801  DMU801      0.2142
     25  O6         7.8880   38.3390   23.8520 O.3   801  DMU801     -0.2176
@<TRIPOS>BOND
     1    23    16    1
     2    17    21    1
     3    17    16    1
     4    17    18    1
     5    16    15    1
     6    24    18    1
     7    24    25    1
     8    18    19    1
     9    22    15    1
    10    15    20    1
    11    19    20    1
    12    20     7    1
    13     7     3    1
    14    12     2    1
    15     3     2    1
    16     3     4    1
    17     2     1    1
    18    14    13    1
    19    13     4    1
    20     4     5    1
    21     1    11    1
    22     1     6    1
    23     5     6    1
    24     6     8    1
    25     8     9    1
    26     9    10    1
