@<TRIPOS>MOLECULE
4dxs_DMU_A_1.pdb
 25 26 0 0 0
SMALL
GASTEIGER

@<TRIPOS>ATOM
      1  C1         2.1690   41.5940   28.7820 C.3   801  DMU801      0.2404
      2  C2         2.7660   41.8060   27.4550 C.3   801  DMU801      0.2167
      3  C3         4.1120   41.2690   27.1640 C.3   801  DMU801      0.1804
      4  C4         4.7850   40.5220   28.3080 C.3   801  DMU801      0.1803
      5  O5         4.3910   41.0330   29.6320 O.3   801  DMU801     -0.3257
      6  C6         2.9770   40.7420   29.7650 C.3   801  DMU801      0.2695
      7  O7         4.0080   40.3600   26.0130 O.3   801  DMU801     -0.3257
      8  O16        2.4590   40.7660   31.0800 O.3   801  DMU801     -0.3286
      9  C18        1.5770   39.7350   31.5710 C.3   801  DMU801      0.1450
     10  C19        0.3690   40.1090   32.3910 C.3   801  DMU801      0.0347
     11  O49        0.9000   41.0220   28.6190 O.3   801  DMU801     -0.2149
     12  O55        2.7440   43.2140   27.1680 O.3   801  DMU801     -0.2175
     13  C57        6.2540   40.3970   28.1230 C.3   801  DMU801      0.2141
     14  O61        7.0340   41.5210   28.3560 O.3   801  DMU801     -0.2176
     15  C5         3.5970   40.7600   23.7260 C.3   801  DMU801      0.2406
     16  C7         3.8120   39.6710   22.7240 C.3   801  DMU801      0.2198
     17  C8         5.1930   39.2960   22.4280 C.3   801  DMU801      0.2144
     18  C9         6.1930   40.1290   23.1750 C.3   801  DMU801      0.1835
     19  O1         5.8640   40.1790   24.6210 O.3   801  DMU801     -0.3256
     20  C10        4.5980   40.8510   24.8680 C.3   801  DMU801      0.2695
     21  O2         5.3790   37.9150   22.7200 O.3   801  DMU801     -0.2176
     22  O3         3.5270   42.0130   23.0890 O.3   801  DMU801     -0.2149
     23  O4         3.1770   39.9850   21.4780 O.3   801  DMU801     -0.2174
     24  C11        7.5860   39.6940   22.9040 C.3   801  DMU801      0.2142
     25  O6         7.9470   38.4340   23.3480 O.3   801  DMU801     -0.2176
@<TRIPOS>BOND
     1    23    16    1
     2    17    21    1
     3    17    16    1
     4    17    18    1
     5    16    15    1
     6    24    18    1
     7    24    25    1
     8    22    15    1
     9    18    19    1
    10    15    20    1
    11    19    20    1
    12    20     7    1
    13     7     3    1
    14     3     2    1
    15     3     4    1
    16    12     2    1
    17     2     1    1
    18    13     4    1
    19    13    14    1
    20     4     5    1
    21    11     1    1
    22     1     6    1
    23     5     6    1
    24     6     8    1
    25     8     9    1
    26     9    10    1
