@<TRIPOS>MOLECULE
4dxu_III_B_1.pdb
 44 44 0 0 0
SMALL
GASTEIGER

@<TRIPOS>ATOM
      1  N          3.6620   10.5130   32.4360 N.3   681  LEU681     -0.1231
      2  CA         4.4880   11.2270   33.4020 C.3   681  LEU681      0.1693
      3  C          4.9880   10.2910   34.4980 C.2   681  LEU681      0.2592
      4  O          4.4900   10.3170   35.6240 O.2   681  LEU681     -0.2718
      5  CB         3.7090   12.3900   34.0180 C.3   681  LEU681      0.0284
      6  CG         2.4390   12.0230   34.7890 C.3   681  LEU681      0.0019
      7  CD1        2.0480   13.1400   35.7440 C.3   681  LEU681      0.0001
      8  CD2        1.3010   11.7080   33.8310 C.3   681  LEU681      0.0001
      9  N          5.9730    9.4660   34.1610 N.am  682  GLU682     -0.1966
     10  CA         6.5420    8.5220   35.1150 C.3   682  GLU682      0.1733
     11  C          8.0010    8.8490   35.4130 C.2   682  GLU682      0.2616
     12  O          8.4790    9.9390   35.0990 O.2   682  GLU682     -0.2715
     13  CB         6.4200    7.0900   34.5890 C.3   682  GLU682      0.0429
     14  CG         4.9960    6.6620   34.2790 C.3   682  GLU682      0.1163
     15  CD         4.2660    6.1350   35.4990 C.2   682  GLU682      0.3649
     16  OE1        4.9400    5.7810   36.4890 O.co2 682  GLU682     -0.2457
     17  OE2        3.0190    6.0760   35.4690 O.co2 682  GLU682     -0.2457
     18  N          8.7040    7.8980   36.0190 N.am  683  ALA683     -0.1963
     19  CA        10.1100    8.0820   36.3590 C.3   683  ALA683      0.1728
     20  C         10.9940    7.1010   35.5970 C.2   683  ALA683      0.2616
     21  O         10.6080    6.5890   34.5460 O.2   683  ALA683     -0.2715
     22  CB        10.3170    7.9330   37.8590 C.3   683  ALA683      0.0334
     23  N         12.1820    6.8430   36.1340 N.am  684  CYS684     -0.1954
     24  CA        13.1300    5.9150   35.5010 C.3   684  CYS684      0.1843
     25  C         12.6720    4.4430   35.7640 C.2   684  CYS684      0.2625
     26  O         12.2700    4.1050   36.8900 O.2   684  CYS684     -0.2714
     27  CB        14.5510    6.1710   36.0520 C.3   684  CYS684      0.0997
     28  SG        15.7840    5.0680   35.4860 S.3   684  CYS684     -0.0797
     29  N         12.7470    3.5940   34.7380 N.am  685  ALA685     -0.1963
     30  CA        12.4030    2.1680   34.8660 C.3   685  ALA685      0.1728
     31  C         13.3110    1.3370   35.7360 C.2   685  ALA685      0.2616
     32  O         12.9500    0.1940   36.0880 O.2   685  ALA685     -0.2715
     33  CB        12.2970    1.4830   33.4790 C.3   685  ALA685      0.0334
     34  N         14.4910    1.8310   36.0610 N.am  686  PHE686     -0.1974
     35  CA        15.4870    1.0360   36.7720 C.3   686  PHE686      0.1639
     36  C         15.6870    1.5290   38.2030 C.2   686  PHE686      0.2290
     37  O         15.3290    2.6360   38.4670 O.2   686  PHE686     -0.2864
     38  CB        16.8230    1.0360   36.0360 C.3   686  PHE686      0.0560
     39  CG        16.7040    0.7550   34.5850 C.ar  686  PHE686     -0.0200
     40  CD1       16.3380   -0.4750   34.1610 C.ar  686  PHE686     -0.0042
     41  CD2       16.9500    1.7390   33.6490 C.ar  686  PHE686     -0.0042
     42  CE1       16.1870   -0.7310   32.8370 C.ar  686  PHE686     -0.0003
     43  CE2       16.8160    1.4830   32.3020 C.ar  686  PHE686     -0.0003
     44  CZ        16.4350    0.2480   31.9040 C.ar  686  PHE686     -0.0000
@<TRIPOS>BOND
     1    44    43   ar
     2    44    42   ar
     3    43    41   ar
     4     1     2    1
     5    42    40   ar
     6     2     5    1
     7     2     3    1
     8    33    30    1
     9    41    39   ar
    10     8     6    1
    11     5     6    1
    12     9     3   am
    13     9    10    1
    14    40    39   ar
    15    14    13    1
    16    14    15    1
    17     3     4    2
    18    21    20    2
    19    39    38    1
    20    13    10    1
    21    29    30    1
    22    29    25   am
    23     6     7    1
    24    30    31    1
    25    12    11    2
    26    10    11    1
    27    11    18   am
    28    17    15   ar
    29    28    27    1
    30    15    16   ar
    31    24    25    1
    32    24    27    1
    33    24    23    1
    34    20    23   am
    35    20    19    1
    36    31    34   am
    37    31    32    2
    38    25    26    2
    39    18    19    1
    40    38    35    1
    41    34    35    1
    42    19    22    1
    43    35    36    1
    44    36    37    2
