@<TRIPOS>MOLECULE
4dxy_HEM_A_1.pdb
 43 50 0 0 0
SMALL
GASTEIGER

@<TRIPOS>ATOM
      1  CHA      -20.4430  -19.3240   -9.3150 C.2   501  HEM501      0.0000
      2  CHB      -21.2340  -23.6060  -11.5380 C.2   501  HEM501      0.0000
      3  CHC      -25.7820  -23.7330   -9.9520 C.2   501  HEM501      0.0000
      4  CHD      -25.2130  -19.3340   -8.0700 C.2   501  HEM501      0.0000
      5  C1A      -20.2810  -20.5170  -10.0260 C.ar  501  HEM501      0.0000
      6  C2A      -19.0650  -21.0100  -10.6130 C.ar  501  HEM501      0.0000
      7  C3A      -19.2960  -22.1450  -11.2250 C.ar  501  HEM501      0.0000
      8  C4A      -20.6620  -22.4630  -11.0150 C.ar  501  HEM501      0.0000
      9  CMA      -18.2130  -22.9820  -11.9770 C.3   501  HEM501      0.0000
     10  CAA      -17.6550  -20.3180  -10.6120 C.3   501  HEM501      0.0000
     11  CBA      -17.5240  -19.3590  -11.7690 C.3   501  HEM501      0.0000
     12  CGA      -16.1350  -18.6990  -11.7490 C.2   501  HEM501      0.0000
     13  O1A      -15.8530  -17.7300  -10.9370 O.co2 501  HEM501      0.0000
     14  O2A      -15.2800  -19.1980  -12.5600 O.co2 501  HEM501      0.0000
     15  C1B      -22.5200  -24.0400  -11.3340 C.2   501  HEM501      0.0000
     16  C2B      -23.1470  -25.2680  -11.7550 C.2   501  HEM501      0.0000
     17  C3B      -24.3830  -25.2390  -11.2900 C.2   501  HEM501      0.0000
     18  C4B      -24.5960  -24.0450  -10.5710 C.2   501  HEM501      0.0000
     19  CMB      -22.5120  -26.4280  -12.5560 C.3   501  HEM501      0.0000
     20  CAB      -25.5390  -26.2280  -11.4260 C.2   501  HEM501      0.0000
     21  CBB      -25.5430  -27.1240  -12.3840 C.2   501  HEM501      0.0000
     22  C1C      -26.0580  -22.5950   -9.2550 C.ar  501  HEM501      0.0000
     23  C2C      -27.2960  -22.2640   -8.6200 C.ar  501  HEM501      0.0000
     24  C3C      -27.1130  -21.0320   -8.1490 C.ar  501  HEM501      0.0000
     25  C4C      -25.7840  -20.5380   -8.4530 C.ar  501  HEM501      0.0000
     26  CMC      -28.5610  -23.1790   -8.4720 C.3   501  HEM501      0.0000
     27  CAC      -28.1740  -20.2650   -7.3670 C.2   501  HEM501      0.0000
     28  CBC      -28.2710  -18.9740   -7.6180 C.2   501  HEM501      0.0000
     29  C1D      -23.8930  -18.9010   -8.2270 C.2   501  HEM501      0.0000
     30  C2D      -23.3450  -17.6200   -7.8090 C.2   501  HEM501      0.0000
     31  C3D      -21.8950  -17.6200   -8.2010 C.2   501  HEM501      0.0000
     32  C4D      -21.6660  -18.8870   -8.8530 C.2   501  HEM501      0.0000
     33  CMD      -24.0420  -16.4550   -7.0740 C.3   501  HEM501      0.0000
     34  CAD      -20.8440  -16.5480   -7.9470 C.3   501  HEM501      0.0000
     35  CBD      -19.9700  -17.0210   -6.7270 C.3   501  HEM501      0.0000
     36  CGD      -18.7950  -16.0630   -6.5420 C.2   501  HEM501      0.0000
     37  O1D      -18.3450  -15.5060   -7.5390 O.co2 501  HEM501      0.0000
     38  O2D      -18.2890  -15.8200   -5.3980 O.co2 501  HEM501      0.0000
     39  NA       -21.2900  -21.3910  -10.3180 N.ar  501  HEM501      0.0000
     40  NB       -23.4470  -23.3080  -10.6410 N.2   501  HEM501      0.0000
     41  NC       -25.1320  -21.5790   -9.0800 N.ar  501  HEM501      0.0000
     42  ND       -22.8480  -19.6180   -8.8210 N.2   501  HEM501      0.0000
     43 FE        -23.1300  -21.4940   -9.6670 Fe    501  HEM501      0.0000
@<TRIPOS>BOND
     1    14    12   ar
     2    19    16    1
     3    21    20    2
     4     9     7    1
     5    11    12    1
     6    11    10    1
     7    16    15    1
     8    16    17    2
     9    12    13   ar
    10     2    15    1
    11     2     8    2
    12    20    17    1
    13    15    40    2
    14    17    18    1
    15     7     8   ar
    16     7     6   ar
    17     8    39   ar
    18    40    18    1
    19    40    43    1
    20     6    10    1
    21     6     5   ar
    22    18     3    2
    23    39     5   ar
    24    39    43    1
    25     5     1    2
    26     3    22    1
    27    43    41    1
    28    43    42    1
    29     1    32    1
    30    22    41   ar
    31    22    23   ar
    32    41    25   ar
    33    32    42    2
    34    32    31    1
    35    42    29    1
    36    23    26    1
    37    23    24   ar
    38    25    24   ar
    39    25     4    1
    40    29     4    2
    41    29    30    1
    42    31    34    1
    43    31    30    2
    44    24    27    1
    45    34    35    1
    46    30    33    1
    47    28    27    2
    48    37    36   ar
    49    35    36    1
    50    36    38   ar
