@<TRIPOS>MOLECULE
4dy4_FMN_A_1.pdb
 31 33 0 0 0
SMALL
GASTEIGER

@<TRIPOS>ATOM
      1  N1        -9.0820   15.1000   -4.8280 N.2   201  FMN201     -0.2890
      2  C2        -8.1290   14.4220   -5.5130 C.1   201  FMN201      0.3669
      3  O2        -8.2170   14.2330   -6.7410 O.2   201  FMN201     -0.1744
      4  N3        -7.0440   13.8910   -4.8410 N.2   201  FMN201     -0.2300
      5  C4        -6.8110   14.1550   -3.4940 C.1   201  FMN201      0.2513
      6  O4        -5.8420   13.6280   -2.9330 O.2   201  FMN201     -0.2057
      7  C4A       -7.7230   14.9770   -2.8410 C.2   201  FMN201      0.2700
      8  N5        -7.4950   15.3710   -1.5470 N.2   201  FMN201     -0.3878
      9  C5A       -8.3960   16.1720   -0.8980 C.2   201  FMN201      0.1320
     10  C6        -8.0880   16.6630    0.3540 C.2   201  FMN201      0.0250
     11  C7        -9.0230   17.3830    1.0900 C.2   201  FMN201     -0.0238
     12  C7M       -8.6550   17.9090    2.4520 C.3   201  FMN201      0.0308
     13  C8       -10.2780   17.6640    0.5260 C.2   201  FMN201     -0.0280
     14  C8M      -11.3400   18.4350    1.2760 C.3   201  FMN201      0.0304
     15  C9       -10.5600   17.2200   -0.7620 C.2   201  FMN201     -0.0041
     16  C9A       -9.6230   16.4840   -1.5000 C.3   201  FMN201      0.1497
     17  N10       -9.8690   16.0240   -2.7970 N.pl3 201  FMN201     -0.2691
     18  C10       -8.8940   15.3670   -3.5000 C.2   201  FMN201      0.2416
     19  C1'      -11.2060   16.1940   -3.4400 C.3   201  FMN201      0.1294
     20  C2'      -12.1230   15.1810   -2.7700 C.3   201  FMN201      0.2044
     21  O2'      -11.6950   13.8540   -3.1020 O.3   201  FMN201     -0.2185
     22  C3'      -13.5510   15.4920   -3.2070 C.3   201  FMN201      0.2164
     23  O3'      -13.9800   16.6520   -2.4940 O.3   201  FMN201     -0.2175
     24  C4'      -14.4510   14.3090   -2.9310 C.3   201  FMN201      0.2147
     25  O4'      -14.1500   13.2480   -3.8000 O.3   201  FMN201     -0.2176
     26  C5'      -15.9180   14.5720   -3.0990 C.3   201  FMN201      0.1892
     27  O5'      -16.5870   13.4950   -2.4470 O.3   201  FMN201     -0.2674
     28  P        -17.8310   13.9080   -1.5230 P.3   201  FMN201      0.5327
     29  O1P      -18.7360   14.8260   -2.3190 O.2   201  FMN201     -0.2224
     30  O2P      -17.3140   14.6020   -0.2850 O.3   201  FMN201     -0.1145
     31  O3P      -18.5080   12.5890   -1.2500 O.3   201  FMN201     -0.1145
@<TRIPOS>BOND
     1     3     2    2
     2     2     4    2
     3     2     1    2
     4     4     5    2
     5     1    18    2
     6    25    24    1
     7    18     7    1
     8    18    17    1
     9     5     6    2
    10     5     7    1
    11    19    17    1
    12    19    20    1
    13    22    24    1
    14    22    20    1
    15    22    23    1
    16    21    20    1
    17    26    24    1
    18    26    27    1
    19     7     8    2
    20    17    16    1
    21    27    28    1
    22    29    28    2
    23     8     9    2
    24    28    31    1
    25    28    30    1
    26    16     9    1
    27    16    15    1
    28     9    10    1
    29    15    13    2
    30    10    11    2
    31    13    11    1
    32    13    14    1
    33    11    12    1
