@<TRIPOS>MOLECULE
4dy6_A22_A_1.pdb
 49 54 0 0 0
SMALL
GASTEIGER

@<TRIPOS>ATOM
      1  P2D       17.3480    9.9490   17.6430 P.3   301  A22301      0.5328
      2  O11       18.0650   10.8760   18.5940 O.3   301  A22301     -0.1145
      3  O12       17.3460    8.4970   18.0540 O.3   301  A22301     -0.1145
      4  O13       15.9920   10.4720   17.2330 O.2   301  A22301     -0.2224
      5  P1A       13.9600    7.4110   13.2230 P.3   301  A22301      0.2189
      6  O14       13.7360    6.2340   12.3070 O.2   301  A22301     -0.5170
      7  O15       13.6940    7.2680   14.7010 O.3   301  A22301     -0.4371
      8  O5D       15.4870    7.9020   13.0210 O.3   301  A22301     -0.3112
      9  C5D       16.5580    6.9570   12.8980 C.3   301  A22301      0.1813
     10  C4D       17.8190    7.3550   13.6830 C.3   301  A22301      0.1820
     11  O4D       18.5520    8.3940   13.0260 O.3   301  A22301     -0.3136
     12  C3D       17.5650    7.8760   15.0920 C.3   301  A22301      0.2157
     13  O3D       18.5020    7.2560   15.9730 O.3   301  A22301     -0.2175
     14  C2D       17.8240    9.3730   15.0470 C.3   301  A22301      0.2314
     15  O2D       18.2580    9.9410   16.2980 O.3   301  A22301     -0.2630
     16  C1D       18.9170    9.3870   13.9940 C.3   301  A22301      0.3158
     17  N9A       19.1410   10.6860   13.3160 N.pl3 301  A22301     -0.1439
     18  C8A       18.2320   11.5750   12.8890 C.3   301  A22301      0.3377
     19  N7A       18.8820   12.6120   12.3190 N.2   301  A22301     -0.2095
     20  C5A       20.2070   12.3570   12.3790 C.2   301  A22301      0.2526
     21  C6A       21.3480   13.0360   11.9580 C.2   301  A22301      0.4393
     22  N6A       21.2510   14.2360   11.3380 N.pl3 301  A22301      0.2180
     23  N1A       22.5590   12.4770   12.1850 N.2   301  A22301      0.0021
     24  C2A       22.6750   11.2950   12.8080 C.3   301  A22301      0.5254
     25  N3A       21.5950   10.6220   13.2170 N.2   301  A22301     -0.0055
     26  C4A       20.3570   11.1340   13.0090 C.2   301  A22301      0.3518
     27  P1B       13.2670   10.1720   12.9180 P.3   301  A22301      0.2189
     28  O16       14.2270   10.3330   14.0750 O.3   301  A22301     -0.4371
     29  O17       11.9010   10.8180   12.9560 O.2   301  A22301     -0.5170
     30  O18       13.0340    8.5990   12.6430 O.3   301  A22301     -0.2703
     31  O5E       13.9990   10.7220   11.5940 O.3   301  A22301     -0.3112
     32  C5E       14.0490    9.9590   10.3930 C.3   301  A22301      0.1813
     33  C4E       15.4910    9.8580    9.9180 C.3   301  A22301      0.1821
     34  O4E       16.0190    8.5320   10.0570 O.3   301  A22301     -0.3135
     35  C3E       15.6030   10.1950    8.4460 C.3   301  A22301      0.2184
     36  O3E       15.6660   11.6170    8.2800 O.3   301  A22301     -0.2174
     37  C2E       16.8330    9.4130    8.0100 C.3   301  A22301      0.2570
     38  O2E       17.9800   10.2700    7.9050 O.3   301  A22301     -0.2130
     39  C1E       17.0290    8.3140    9.0760 C.3   301  A22301      0.3186
     40  N9B       16.9550    6.9620    8.4480 N.pl3 301  A22301     -0.1439
     41  C8B       15.8800    6.3830    7.8790 C.3   301  A22301      0.3377
     42  N7B       16.2240    5.1690    7.3890 N.2   301  A22301     -0.2095
     43  C5B       17.5420    4.9850    7.6320 C.2   301  A22301      0.2526
     44  C6B       18.4590    3.9560    7.3630 C.2   301  A22301      0.4393
     45  N6B       18.0950    2.8140    6.7220 N.pl3 301  A22301      0.2180
     46  N1B       19.7410    4.1090    7.7620 N.2   301  A22301      0.0021
     47  C2B       20.1270    5.2200    8.4030 C.3   301  A22301      0.5254
     48  N3B       19.2750    6.2090    8.6730 N.2   301  A22301     -0.0055
     49  C4B       17.9840    6.1240    8.2970 C.2   301  A22301      0.3518
@<TRIPOS>BOND
     1    45    44    1
     2    44    43    1
     3    44    46    2
     4    42    43    2
     5    42    41    1
     6    43    49    1
     7    46    47    1
     8    41    40    1
     9    38    37    1
    10    37    35    1
    11    37    39    1
    12    36    35    1
    13    49    40    1
    14    49    48    2
    15    47    48    1
    16    35    33    1
    17    40    39    1
    18    39    34    1
    19    33    34    1
    20    33    32    1
    21    32    31    1
    22    22    21    1
    23    31    27    1
    24    21    23    2
    25    21    20    1
    26    23    24    1
    27     6     5    2
    28    19    20    2
    29    19    18    1
    30    20    26    1
    31    30    27    1
    32    30     5    1
    33    24    25    1
    34    18    17    1
    35     9     8    1
    36     9    10    1
    37    27    29    2
    38    27    28    1
    39    26    25    2
    40    26    17    1
    41     8     5    1
    42    11    10    1
    43    11    16    1
    44     5     7    1
    45    17    16    1
    46    10    12    1
    47    16    14    1
    48    14    12    1
    49    14    15    1
    50    12    13    1
    51    15     1    1
    52     4     1    2
    53     1     3    1
    54     1     2    1
