@<TRIPOS>MOLECULE
4dy9_HEM_A_1.pdb
 43 50 0 0 0
SMALL
GASTEIGER

@<TRIPOS>ATOM
      1  CHA        1.1310   -2.5130   11.5300 C.2   201  HEM201      0.0000
      2  CHB       -3.6780   -2.1490   12.2740 C.2   201  HEM201      0.0000
      3  CHC       -3.0930    2.3370   14.0680 C.2   201  HEM201      0.0000
      4  CHD        1.4700    2.2790   12.4530 C.2   201  HEM201      0.0000
      5  C1A       -0.2100   -2.8230   11.6280 C.ar  201  HEM201      0.0000
      6  C2A       -0.7930   -4.1220   11.3570 C.ar  201  HEM201      0.0000
      7  C3A       -2.1180   -4.0270   11.5550 C.ar  201  HEM201      0.0000
      8  C4A       -2.4270   -2.6680   11.9720 C.ar  201  HEM201      0.0000
      9  CMA       -3.1450   -5.1570   11.3860 C.3   201  HEM201      0.0000
     10  CAA        0.0230   -5.3620   10.8930 C.3   201  HEM201      0.0000
     11  CBA        0.1110   -5.3010    9.3610 C.3   201  HEM201      0.0000
     12  CGA        0.8710   -6.4710    8.7690 C.2   201  HEM201      0.0000
     13  O1A        1.0020   -6.4990    7.5210 O.co2 201  HEM201      0.0000
     14  O2A        1.3410   -7.3700    9.5280 O.co2 201  HEM201      0.0000
     15  C1B       -3.9420   -0.9130   12.8420 C.2   201  HEM201      0.0000
     16  C2B       -5.2430   -0.4100   13.2730 C.2   201  HEM201      0.0000
     17  C3B       -5.0740    0.8260   13.7810 C.2   201  HEM201      0.0000
     18  C4B       -3.6660    1.1450   13.6760 C.2   201  HEM201      0.0000
     19  CMB       -6.5450   -1.2230   13.1450 C.3   201  HEM201      0.0000
     20  CAB       -6.0930    1.8240   14.3980 C.2   201  HEM201      0.0000
     21  CBB       -7.3700    1.5280   14.6640 C.2   201  HEM201      0.0000
     22  C1C       -1.8010    2.7240   13.7860 C.ar  201  HEM201      0.0000
     23  C2C       -1.1770    3.9820   14.1460 C.ar  201  HEM201      0.0000
     24  C3C        0.0810    3.9530   13.6930 C.ar  201  HEM201      0.0000
     25  C4C        0.2960    2.6750   13.0440 C.ar  201  HEM201      0.0000
     26  CMC       -1.8610    5.1410   14.9100 C.3   201  HEM201      0.0000
     27  CAC        1.2110    5.0080   13.8390 C.2   201  HEM201      0.0000
     28  CBC        1.2290    5.9620   14.7780 C.2   201  HEM201      0.0000
     29  C1D        1.8360    0.9950   12.1200 C.2   201  HEM201      0.0000
     30  C2D        3.1790    0.5700   11.8080 C.2   201  HEM201      0.0000
     31  C3D        3.0810   -0.9240   11.5100 C.2   201  HEM201      0.0000
     32  C4D        1.6900   -1.2640   11.6930 C.2   201  HEM201      0.0000
     33  CMD        4.4530    1.4290   11.7820 C.3   201  HEM201      0.0000
     34  CAD        4.2580   -1.8490   11.1660 C.3   201  HEM201      0.0000
     35  CBD        4.8180   -2.1520   12.5590 C.3   201  HEM201      0.0000
     36  CGD        6.0820   -2.9710   12.4980 C.2   201  HEM201      0.0000
     37  O1D        6.6310   -3.1580   11.3930 O.co2 201  HEM201      0.0000
     38  O2D        6.5520   -3.4510   13.5590 O.co2 201  HEM201      0.0000
     39  NA        -1.2300   -1.9700   11.9950 N.ar  201  HEM201      0.0000
     40  NB        -3.0120    0.0760   13.0930 N.2   201  HEM201      0.0000
     41  NC        -0.8690    1.9520   13.1180 N.ar  201  HEM201      0.0000
     42  ND         0.9950   -0.1070   12.0340 N.2   201  HEM201      0.0000
     43 FE         -1.0200   -0.0280   12.5790 Fe    201  HEM201      0.0000
@<TRIPOS>BOND
     1    13    12   ar
     2    12    11    1
     3    12    14   ar
     4    11    10    1
     5    10     6    1
     6    34    31    1
     7    34    35    1
     8     6     7   ar
     9     6     5   ar
    10     9     7    1
    11    37    36   ar
    12    31    32    1
    13    31    30    2
    14     1     5    2
    15     1    32    1
    16     7     8   ar
    17     5    39   ar
    18    32    42    2
    19    33    30    1
    20    30    29    1
    21     8    39   ar
    22     8     2    2
    23    39    43    1
    24    42    29    1
    25    42    43    1
    26    29     4    2
    27     2    15    1
    28     4    25    1
    29    36    35    1
    30    36    38   ar
    31    43    40    1
    32    43    41    1
    33    15    40    2
    34    15    16    1
    35    25    41   ar
    36    25    24   ar
    37    40    18    1
    38    41    22   ar
    39    19    16    1
    40    16    17    2
    41    18    17    1
    42    18     3    2
    43    24    27    1
    44    24    23   ar
    45    17    20    1
    46    22     3    1
    47    22    23   ar
    48    27    28    2
    49    23    26    1
    50    20    21    2
