@<TRIPOS>MOLECULE
4dya_0MF_A_1.pdb
 39 43 0 0 0
SMALL
GASTEIGER

@<TRIPOS>ATOM
      1  C1        25.8820  -33.4250   21.0550 C.ar  601  0MF601      0.0003
      2  C2        26.9300  -34.1350   20.4710 C.ar  601  0MF601      0.0033
      3  C3        32.0090  -36.5830   13.2050 C.ar  601  0MF601      0.0440
      4  C4        24.7450  -34.0960   21.5010 C.ar  601  0MF601      0.0048
      5  C5        26.8420  -35.5160   20.3310 C.ar  601  0MF601      0.0421
      6  C6        30.8900  -36.9260   13.9990 C.ar  601  0MF601      0.0455
      7  C7        26.0460  -34.9050   15.2900 C.ar  601  0MF601      0.0337
      8  C8        24.9370  -32.5160   14.3960 C.ar  601  0MF601      0.0380
      9  C9        31.7160  -35.3750   12.6130 C.ar  601  0MF601      0.1798
     10  C10       24.6530  -35.4810   21.3670 C.ar  601  0MF601      0.0600
     11  C11       22.7110  -37.1390   21.1710 C.ar  601  0MF601      0.1073
     12  C12       24.7760  -34.5330   15.7180 C.ar  601  0MF601      0.0600
     13  C13       26.7540  -34.0870   14.4160 C.ar  601  0MF601      0.0974
     14  C14       26.2030  -32.8920   13.9680 C.ar  601  0MF601      0.1590
     15  C15       25.7060  -36.1910   20.7800 C.ar  601  0MF601      0.1972
     16  C16       24.2300  -33.3320   15.2690 C.ar  601  0MF601      0.0727
     17  C17       23.4570  -36.1430   21.8330 C.ar  601  0MF601      0.1300
     18  C18       29.9930  -35.9020   13.8340 C.ar  601  0MF601      0.2005
     19  C19       21.6860  -37.4110   22.0380 C.ar  601  0MF601      0.1591
     20  C20       22.9220  -37.7930   19.8740 C.2   601  0MF601      0.2534
     21  C21       28.6550  -35.6940   14.4000 C.2   601  0MF601      0.3037
     22  C22       24.3430  -36.8130   16.5790 C.3   601  0MF601      0.1124
     23  C23       24.0530  -34.8490   17.9890 C.3   601  0MF601      0.1124
     24  C24       23.2640  -37.5540   17.3700 C.3   601  0MF601      0.1151
     25  C25       22.9780  -35.5610   18.8130 C.3   601  0MF601      0.1151
     26  C26       20.5430  -38.3310   22.0110 C.3   601  0MF601      0.0755
     27  N28       22.9190  -35.8180   23.0150 N.ar  601  0MF601     -0.0771
     28  N29       24.0970  -35.3680   16.6140 N.pl3 601  0MF601     -0.3034
     29  N30       23.0610  -37.0180   18.7230 N.am  601  0MF601     -0.2725
     30  N31       28.0130  -34.5120   14.0110 N.am  601  0MF601     -0.1711
     31  N32       26.8950  -32.0310   13.0750 N.pl3 601  0MF601      0.0590
     32  O33       26.4620  -30.8730   12.8930 O.2   601  0MF601     -0.1261
     33  O34       22.9640  -39.0180   19.9020 O.2   601  0MF601     -0.2698
     34  O35       28.1630  -36.5140   15.1600 O.2   601  0MF601     -0.2646
     35  O36       27.9680  -32.4100   12.5500 O.2   601  0MF601     -0.1261
     36  O37       30.4840  -34.9490   12.9940 O.2   601  0MF601     -0.4457
     37  O38       21.7960  -36.6300   23.1420 O.2   601  0MF601     -0.3576
     38  O39       25.6590  -37.5480   20.6270 O.3   601  0MF601     -0.2865
     39 CL4        22.6690  -32.8030   15.7530 Cl    601  0MF601     -0.0809
@<TRIPOS>BOND
     1    35    31    2
     2     9    36   ar
     3     9     3   ar
     4    32    31    2
     5    36    18   ar
     6    31    14    1
     7     3     6   ar
     8    18     6   ar
     9    18    21    1
    10    14     8   ar
    11    14    13   ar
    12    30    21   am
    13    30    13    1
    14     8    16   ar
    15    21    34    2
    16    13     7   ar
    17    16    12   ar
    18    16    39    1
    19     7    12   ar
    20    12    28    1
    21    22    28    1
    22    22    24    1
    23    28    23    1
    24    24    29    1
    25    23    25    1
    26    29    25    1
    27    29    20   am
    28    20    33    2
    29    20    11    1
    30     5     2   ar
    31     5    15   ar
    32     2     1   ar
    33    38    15    1
    34    15    10   ar
    35     1     4   ar
    36    11    17   ar
    37    11    19   ar
    38    10     4   ar
    39    10    17    1
    40    17    27   ar
    41    26    19    1
    42    19    37   ar
    43    27    37   ar
