@<TRIPOS>MOLECULE
4dyb_0MH_A_1.pdb
 40 44 0 0 0
SMALL
GASTEIGER

@<TRIPOS>ATOM
      1  C1        25.6240  -33.3370   21.1890 C.ar  601  0MH601      0.0003
      2  C2        26.7480  -33.9590   20.6530 C.ar  601  0MH601      0.0031
      3  C3        31.9630  -35.2210   12.7170 C.ar  601  0MH601      0.0076
      4  C4        24.5270  -34.1000   21.5790 C.ar  601  0MH601      0.0046
      5  C5        26.7750  -35.3430   20.5060 C.ar  601  0MH601      0.0370
      6  C6        30.6670  -34.7370   13.0630 C.ar  601  0MH601      0.0116
      7  C7        25.9770  -34.8600   15.3650 C.ar  601  0MH601      0.0337
      8  C8        24.8200  -32.4510   14.5710 C.ar  601  0MH601      0.0380
      9  C9        32.2250  -36.4520   13.2830 C.ar  601  0MH601      0.0356
     10  C10       24.5460  -35.4850   21.4380 C.ar  601  0MH601      0.0550
     11  C11       22.7200  -37.2620   21.1670 C.ar  601  0MH601      0.1073
     12  C12       24.6920  -34.5340   15.7880 C.ar  601  0MH601      0.0600
     13  C13       26.6750  -33.9800   14.5430 C.ar  601  0MH601      0.0974
     14  C14       26.0990  -32.7790   14.1470 C.ar  601  0MH601      0.1590
     15  C15       25.6780  -36.1090   20.8990 C.ar  601  0MH601      0.1402
     16  C16       24.1250  -33.3280   15.3920 C.ar  601  0MH601      0.0727
     17  C17       23.3800  -36.2260   21.8550 C.ar  601  0MH601      0.1299
     18  C18       29.9930  -35.6240   13.8780 C.ar  601  0MH601      0.0848
     19  C19       21.6860  -37.6040   21.9950 C.ar  601  0MH601      0.1591
     20  C20       22.9960  -37.9040   19.8800 C.2   601  0MH601      0.2534
     21  C21       28.6470  -35.5160   14.4560 C.2   601  0MH601      0.2750
     22  C22       24.3700  -36.8380   16.6150 C.3   601  0MH601      0.1124
     23  C23       23.8890  -34.9000   18.0080 C.3   601  0MH601      0.1124
     24  C24       23.3270  -37.6480   17.3800 C.3   601  0MH601      0.1151
     25  C25       22.8620  -35.6880   18.8180 C.3   601  0MH601      0.1151
     26  C26       20.6100  -38.6010   21.9050 C.3   601  0MH601      0.0755
     27  C27       27.0090  -37.9960   20.3130 C.3   601  0MH601      0.2525
     28  N28       22.7840  -35.9450   23.0180 N.ar  601  0MH601     -0.0771
     29  N29       24.0160  -35.4170   16.6370 N.pl3 601  0MH601     -0.3034
     30  N30       23.0710  -37.1280   18.7270 N.am  601  0MH601     -0.2725
     31  N31       27.9540  -34.3400   14.1310 N.am  601  0MH601     -0.1733
     32  N32       26.7850  -31.8670   13.3080 N.pl3 601  0MH601      0.0590
     33  O33       26.1170  -30.9940   12.7030 O.2   601  0MH601     -0.1261
     34  O34       23.1390  -39.1200   19.9210 O.2   601  0MH601     -0.2698
     35  O35       28.1920  -36.4060   15.1660 O.2   601  0MH601     -0.2675
     36  O36       28.0390  -31.8130   13.3660 O.2   601  0MH601     -0.1261
     37  O37       21.7090  -36.8230   23.1050 O.2   601  0MH601     -0.3576
     38  O38       25.7560  -37.4650   20.7400 O.3   601  0MH601     -0.4714
     39  S39       30.9100  -37.0260   14.2200 S.2   601  0MH601     -0.0818
     40 CL4        22.5450  -32.8650   15.8830 Cl    601  0MH601     -0.0809
@<TRIPOS>BOND
     1    33    32    2
     2     3     6   ar
     3     3     9   ar
     4     6    18   ar
     5     9    39   ar
     6    32    36    2
     7    32    14    1
     8    18    39   ar
     9    18    21    1
    10    31    21   am
    11    31    13    1
    12    14    13   ar
    13    14     8   ar
    14    21    35    2
    15    13     7   ar
    16     8    16   ar
    17     7    12   ar
    18    16    12   ar
    19    16    40    1
    20    12    29    1
    21    22    29    1
    22    22    24    1
    23    29    23    1
    24    24    30    1
    25    23    25    1
    26    30    25    1
    27    30    20   am
    28    20    34    2
    29    20    11    1
    30    27    38    1
    31     5     2   ar
    32     5    15   ar
    33     2     1   ar
    34    38    15    1
    35    15    10   ar
    36    11    17   ar
    37    11    19   ar
    38     1     4   ar
    39    10     4   ar
    40    10    17    1
    41    17    28   ar
    42    26    19    1
    43    19    37   ar
    44    28    37   ar
