@<TRIPOS>MOLECULE
4dyd_NAD_A_1.pdb
 44 48 0 0 0
SMALL
GASTEIGER

@<TRIPOS>ATOM
      1  PA        39.3330   31.4970   71.1530 P.3   301  NAD301      0.2189
      2  O1A       39.4720   32.9600   71.3240 O.3   301  NAD301     -0.4371
      3  O2A       40.4820   30.7210   70.6340 O.2   301  NAD301     -0.5170
      4  O5B       38.8550   30.8460   72.5470 O.3   301  NAD301     -0.3112
      5  C5B       39.3350   29.5630   72.9630 C.3   301  NAD301      0.1813
      6  C4B       38.3580   28.9610   73.9760 C.3   301  NAD301      0.1821
      7  O4B       38.9220   27.7390   74.4910 O.3   301  NAD301     -0.3135
      8  C3B       38.2400   29.8880   75.1760 C.3   301  NAD301      0.2184
      9  O3B       37.0280   29.5930   75.8840 O.3   301  NAD301     -0.2174
     10  C2B       39.4290   29.4300   75.9980 C.3   301  NAD301      0.2570
     11  O2B       39.2720   29.8470   77.3620 O.3   301  NAD301     -0.2130
     12  C1B       39.1360   27.9460   75.8970 C.3   301  NAD301      0.3186
     13  N9A       40.2090   27.0990   76.4650 N.pl3 301  NAD301     -0.1439
     14  C8A       41.4500   27.4860   76.7440 C.3   301  NAD301      0.3377
     15  N7A       42.1180   26.4210   77.1770 N.2   301  NAD301     -0.2095
     16  C5A       41.2890   25.3800   77.1740 C.2   301  NAD301      0.2526
     17  C6A       41.4600   24.1210   77.5680 C.2   301  NAD301      0.4393
     18  N6A       42.6600   23.8110   78.0520 N.pl3 301  NAD301      0.2180
     19  N1A       40.4620   23.2270   77.5410 N.2   301  NAD301      0.0021
     20  C2A       39.2050   23.6350   77.0830 C.3   301  NAD301      0.5254
     21  N3A       39.0590   24.9650   76.6720 N.2   301  NAD301     -0.0055
     22  C4A       40.1060   25.7990   76.7300 C.2   301  NAD301      0.3518
     23  O3        38.0720   31.2310   70.1900 O.3   301  NAD301     -0.2703
     24  PN        38.3080   30.8720   68.6390 P.3   301  NAD301      0.2189
     25  O1N       39.6460   31.3540   68.2300 O.3   301  NAD301     -0.4371
     26  O2N       37.1270   31.3100   67.8610 O.2   301  NAD301     -0.5170
     27  O5D       38.3390   29.2620   68.6590 O.3   301  NAD301     -0.3112
     28  C5D       39.5150   28.5660   68.2360 C.3   301  NAD301      0.1813
     29  C4D       39.1140   27.2160   67.6380 C.3   301  NAD301      0.1799
     30  O4D       38.1670   27.4760   66.5860 O.3   301  NAD301     -0.3327
     31  C3D       40.3220   26.6310   66.9270 C.3   301  NAD301      0.2158
     32  O3D       40.0610   25.2770   66.5280 O.3   301  NAD301     -0.2175
     33  C2D       40.3480   27.5330   65.7090 C.3   301  NAD301      0.2309
     34  O2D       41.1510   26.9550   64.6690 O.3   301  NAD301     -0.2158
     35  C1D       38.8800   27.4300   65.3370 C.3   301  NAD301      0.2263
     36  N1N       38.4530   28.4650   64.3680 N.pl3 301  NAD301     -0.2787
     37  C2N       38.6860   29.8200   64.6340 C.3   301  NAD301      0.1244
     38  C3N       38.3860   30.7770   63.6710 C.2   301  NAD301      0.0544
     39  C7N       38.5130   32.1300   63.9690 C.2   301  NAD301      0.2818
     40  O7N       38.1700   32.9910   63.1600 O.2   301  NAD301     -0.2670
     41  N7N       38.9860   32.3990   65.1820 N.am  301  NAD301     -0.0839
     42  C4N       37.8570   30.3870   62.4450 C.2   301  NAD301      0.0033
     43  C5N       37.5980   29.0460   62.1840 C.2   301  NAD301      0.0157
     44  C6N       37.8940   28.0820   63.1420 C.2   301  NAD301      0.0633
@<TRIPOS>BOND
     1    43    42    1
     2    43    44    2
     3    42    38    2
     4    44    36    1
     5    40    39    2
     6    38    39    1
     7    38    37    1
     8    39    41   am
     9    36    37    1
    10    36    35    1
    11    34    33    1
    12    35    33    1
    13    35    30    1
    14    33    31    1
    15    32    31    1
    16    30    29    1
    17    31    29    1
    18    29    28    1
    19    26    24    2
    20    25    24    1
    21    28    27    1
    22    24    27    1
    23    24    23    1
    24    23     1    1
    25     3     1    2
    26     1     2    1
    27     1     4    1
    28     4     5    1
    29     5     6    1
    30     6     7    1
    31     6     8    1
    32     7    12    1
    33     8     9    1
    34     8    10    1
    35    12    10    1
    36    12    13    1
    37    10    11    1
    38    13    22    1
    39    13    14    1
    40    21    22    2
    41    21    20    1
    42    22    16    1
    43    14    15    1
    44    20    19    1
    45    16    15    2
    46    16    17    1
    47    19    17    2
    48    17    18    1
