@<TRIPOS>MOLECULE
4dyg_NAG_A_1.pdb
 14 14 0 0 0
SMALL
GASTEIGER

@<TRIPOS>ATOM
      1  C1        20.6210  -40.1580  -25.5840 C.3   302  NAG302      0.1665
      2  C2        19.2470  -39.8310  -24.9800 C.3   302  NAG302      0.1576
      3  C3        19.2690  -38.4750  -24.2620 C.3   302  NAG302      0.2069
      4  C4        20.4310  -38.4190  -23.2620 C.3   302  NAG302      0.2134
      5  C5        21.7350  -38.7530  -23.9870 C.3   302  NAG302      0.1809
      6  C6        22.9300  -38.7720  -23.0550 C.3   302  NAG302      0.2141
      7  C7        17.2420  -40.6660  -26.0510 C.2   302  NAG302      0.2420
      8  C8        16.2440  -40.5310  -27.1910 C.3   302  NAG302      0.0964
      9  N2        18.2530  -39.8030  -26.0370 N.am  302  NAG302     -0.2019
     10  O3        18.0420  -38.3020  -23.5730 O.3   302  NAG302     -0.2184
     11  O4        20.5280  -37.1000  -22.6820 O.3   302  NAG302     -0.2176
     12  O5        21.6460  -40.0660  -24.5840 O.3   302  NAG302     -0.3489
     13  O6        24.0990  -39.1930  -23.7420 O.3   302  NAG302     -0.2176
     14  O7        17.0840  -41.5370  -25.2040 O.2   302  NAG302     -0.2733
@<TRIPOS>BOND
     1     8     7    1
     2     7     9   am
     3     7    14    2
     4     9     2    1
     5     1     2    1
     6     1    12    1
     7     2     3    1
     8    12     5    1
     9     3    10    1
    10     3     4    1
    11     5     4    1
    12     5     6    1
    13    13     6    1
    14     4    11    1
