@<TRIPOS>MOLECULE
4dym_IYZ_A_1.pdb
 23 26 0 0 0
SMALL
GASTEIGER

@<TRIPOS>ATOM
      1  CAJ       -6.3680  -19.3020   14.0810 C.3   503  IYZ503      0.0018
      2  CAK       -6.8300  -19.9840   12.8040 C.3   503  IYZ503      0.0018
      3  CAV       -5.3550  -20.0900   13.2150 C.3   503  IYZ503      0.0217
      4  CAL       -4.8880  -21.4260   13.8310 C.3   503  IYZ503      0.1138
      5  NAO       -5.3740  -22.5920   13.0870 N.pl3 503  IYZ503     -0.2189
      6  CAS       -5.6160  -23.7850   13.6860 C.ar  503  IYZ503      0.1678
      7  CAF       -5.6610  -24.9720   12.9420 C.ar  503  IYZ503      0.0407
      8  CAG       -5.9270  -26.1420   13.6150 C.ar  503  IYZ503      0.0418
      9  NAN       -5.8270  -23.8300   15.0240 N.ar  503  IYZ503     -0.1472
     10  NAW       -6.0960  -24.8720   15.6430 N.ar  503  IYZ503     -0.2095
     11  CAU       -6.1540  -26.1010   14.9870 C.ar  503  IYZ503      0.1640
     12  NAM       -6.4570  -27.0300   15.9020 N.ar  503  IYZ503     -0.2234
     13  CAH       -6.5230  -26.4690   17.1170 C.ar  503  IYZ503      0.1197
     14  CAT       -6.3180  -25.1430   16.9940 C.ar  503  IYZ503      0.1036
     15  CAR       -6.2850  -24.1490   17.9720 C.ar  503  IYZ503      0.0194
     16  CAI       -6.7310  -22.8560   17.6810 C.ar  503  IYZ503      0.0044
     17  CAE       -5.7320  -24.4100   19.2360 C.ar  503  IYZ503      0.0015
     18  CAC       -5.6820  -23.3760   20.1900 C.ar  503  IYZ503      0.0001
     19  CAD       -6.1770  -22.0910   19.8740 C.ar  503  IYZ503      0.0028
     20  CAQ       -6.6990  -21.8340   18.6130 C.ar  503  IYZ503      0.0348
     21  CAP       -7.2810  -20.4340   18.2260 C.2   503  IYZ503      0.1735
     22  CAA       -8.3790  -20.3470   17.1720 C.3   503  IYZ503      0.0773
     23  OAB       -6.9200  -19.3980   18.7900 O.2   503  IYZ503     -0.2913
@<TRIPOS>BOND
     1     2     3    1
     2     2     1    1
     3     7     8   ar
     4     7     6   ar
     5     5     6    1
     6     5     4    1
     7     3     4    1
     8     3     1    1
     9     8    11   ar
    10     6     9   ar
    11    11    10   ar
    12    11    12   ar
    13     9    10   ar
    14    10    14   ar
    15    12    13   ar
    16    14    13   ar
    17    14    15    1
    18    22    21    1
    19    16    15   ar
    20    16    20   ar
    21    15    17   ar
    22    21    20    1
    23    21    23    2
    24    20    19   ar
    25    17    18   ar
    26    19    18   ar
