@<TRIPOS>MOLECULE
4dyn_0MR_A_1.pdb
 41 45 0 0 0
SMALL
GASTEIGER

@<TRIPOS>ATOM
      1  C1        25.7640  -33.3630   21.2600 C.ar  601  0MR601      0.0003
      2  C2        26.8130  -34.0680   20.6700 C.ar  601  0MR601      0.0031
      3  C3        32.1650  -37.1480   13.9400 C.ar  601  0MR601      0.0033
      4  C4        32.5880  -36.1420   13.0790 C.ar  601  0MR601      0.0207
      5  C5        24.6350  -34.0440   21.7170 C.ar  601  0MR601      0.0046
      6  C6        26.7330  -35.4530   20.5390 C.ar  601  0MR601      0.0370
      7  C7        30.9010  -37.0770   14.5160 C.ar  601  0MR601      0.0238
      8  C8        25.9940  -35.0260   15.6200 C.ar  601  0MR601      0.0337
      9  C9        25.0140  -32.6330   14.5550 C.ar  601  0MR601      0.0380
     10  C10       31.7170  -35.0910   12.8280 C.ar  601  0MR601      0.0990
     11  C11       24.5560  -35.4310   21.5830 C.ar  601  0MR601      0.0550
     12  C12       22.6040  -37.0920   21.4080 C.ar  601  0MR601      0.1073
     13  C13       24.7140  -34.5790   15.9610 C.ar  601  0MR601      0.0600
     14  C14       26.7750  -34.2720   14.7420 C.ar  601  0MR601      0.0974
     15  C15       26.2830  -33.0820   14.2190 C.ar  601  0MR601      0.1590
     16  C16       25.6060  -36.1360   20.9970 C.ar  601  0MR601      0.1402
     17  C17       24.2320  -33.3780   15.4250 C.ar  601  0MR601      0.0727
     18  C18       23.3780  -36.1080   22.0620 C.ar  601  0MR601      0.1299
     19  C19       30.1050  -35.9880   14.2040 C.ar  601  0MR601      0.1365
     20  C20       21.6170  -37.3750   22.3160 C.ar  601  0MR601      0.1591
     21  C21       22.7580  -37.7270   20.0870 C.2   601  0MR601      0.2534
     22  C22       28.7550  -35.8580   14.7840 C.2   601  0MR601      0.2867
     23  C23       24.1230  -36.8100   16.8430 C.3   601  0MR601      0.1124
     24  C24       23.7910  -34.7800   18.1990 C.3   601  0MR601      0.1124
     25  C25       22.9540  -37.4700   17.5710 C.3   601  0MR601      0.1151
     26  C26       22.6940  -35.4870   18.9980 C.3   601  0MR601      0.1151
     27  C27       20.4670  -38.2890   22.3310 C.3   601  0MR601      0.0755
     28  C28       26.6940  -38.1440   20.2950 C.3   601  0MR601      0.2525
     29  N29       30.4830  -34.9910   13.3720 N.ar  601  0MR601     -0.2392
     30  N30       22.9000  -35.8030   23.2690 N.ar  601  0MR601     -0.0771
     31  N31       23.9550  -35.3530   16.8520 N.pl3 601  0MR601     -0.3034
     32  N32       22.8080  -36.9430   18.9300 N.am  601  0MR601     -0.2725
     33  N33       28.0550  -34.7070   14.3890 N.am  601  0MR601     -0.1724
     34  N34       27.0660  -32.3030   13.3310 N.pl3 601  0MR601      0.0590
     35  O35       26.5610  -31.2640   12.8410 O.2   601  0MR601     -0.1261
     36  O36       22.8340  -38.9550   20.0900 O.2   601  0MR601     -0.2698
     37  O37       28.3060  -36.7040   15.5520 O.2   601  0MR601     -0.2663
     38  O38       28.0980  -32.8340   12.8630 O.2   601  0MR601     -0.1261
     39  O39       21.7790  -36.6090   23.4240 O.2   601  0MR601     -0.3576
     40  O40       25.5550  -37.4960   20.8620 O.3   601  0MR601     -0.4714
     41 CL4        22.6730  -32.7380   15.7890 Cl    601  0MR601     -0.0809
@<TRIPOS>BOND
     1    10     4   ar
     2    10    29   ar
     3    35    34    2
     4    38    34    2
     5     4     3   ar
     6    34    15    1
     7    29    19   ar
     8     3     7   ar
     9    19     7   ar
    10    19    22    1
    11    15     9   ar
    12    15    14   ar
    13    33    14    1
    14    33    22   am
    15     9    17   ar
    16    14     8   ar
    17    22    37    2
    18    17    41    1
    19    17    13   ar
    20     8    13   ar
    21    13    31    1
    22    23    31    1
    23    23    25    1
    24    31    24    1
    25    25    32    1
    26    24    26    1
    27    32    26    1
    28    32    21   am
    29    21    36    2
    30    21    12    1
    31    28    40    1
    32     6     2   ar
    33     6    16   ar
    34     2     1   ar
    35    40    16    1
    36    16    11   ar
    37     1     5   ar
    38    12    18   ar
    39    12    20   ar
    40    11     5   ar
    41    11    18    1
    42    18    30   ar
    43    20    27    1
    44    20    39   ar
    45    30    39   ar
