@<TRIPOS>MOLECULE
4dyp_0MS_A_1.pdb
 29 32 0 0 0
SMALL
GASTEIGER

@<TRIPOS>ATOM
      1  C1        26.0760  -33.7830   21.0930 C.ar  601  0MS601      0.0001
      2  C2        27.1720  -34.5030   20.6190 C.ar  601  0MS601      0.0009
      3  C3        24.9600  -34.4550   21.5900 C.ar  601  0MS601      0.0024
      4  C4        27.1500  -35.8950   20.6420 C.ar  601  0MS601      0.0114
      5  C5        25.1060  -33.2430   14.6050 C.ar  601  0MS601      0.0068
      6  C6        26.8500  -34.8640   14.7620 C.ar  601  0MS601      0.1069
      7  C7        24.9340  -35.8500   21.6230 C.ar  601  0MS601      0.0316
      8  C8        22.9640  -37.4840   21.5270 C.ar  601  0MS601      0.1072
      9  C9        24.3990  -33.9510   15.5640 C.ar  601  0MS601      0.0103
     10  C10       26.0340  -36.5680   21.1420 C.ar  601  0MS601      0.0592
     11  C11       26.3500  -33.7080   14.2000 C.ar  601  0MS601      0.0535
     12  C12       23.7470  -36.4880   22.1410 C.ar  601  0MS601      0.1278
     13  C13       21.9580  -37.7320   22.4190 C.ar  601  0MS601      0.1591
     14  C14       24.9830  -35.1010   16.0720 C.ar  601  0MS601      0.1277
     15  C15       23.1210  -38.1610   20.2420 C.2   601  0MS601      0.2534
     16  C16       24.0770  -35.2130   18.3490 C.3   601  0MS601      0.1137
     17  C17       24.4730  -37.2920   17.0400 C.3   601  0MS601      0.1137
     18  C18       23.0000  -35.9430   19.1510 C.3   601  0MS601      0.1152
     19  C19       23.2840  -37.9420   17.7350 C.3   601  0MS601      0.1152
     20  C20       23.0660  -33.4490   15.9950 C.3   601  0MS601      0.0340
     21  C21       20.8080  -38.6420   22.4300 C.3   601  0MS601      0.0755
     22  N22       26.1900  -35.5770   15.6940 N.ar  601  0MS601     -0.2290
     23  N23       23.2480  -36.1400   23.3290 N.ar  601  0MS601     -0.0772
     24  N24       24.3030  -35.8400   17.0380 N.pl3 601  0MS601     -0.2900
     25  N25       23.1410  -37.3960   19.0830 N.am  601  0MS601     -0.2725
     26  O26       23.2230  -39.3840   20.2880 O.2   601  0MS601     -0.2698
     27  O27       22.1110  -36.9350   23.5050 O.2   601  0MS601     -0.3576
     28 CL2        26.0750  -38.3000   21.1510 Cl    601  0MS601     -0.0822
     29 BR2        27.3400  -32.7820   12.9060 Br    601  0MS601     -0.0474
@<TRIPOS>BOND
     1    29    11    1
     2    11     5   ar
     3    11     6   ar
     4     5     9   ar
     5     6    22   ar
     6     9    20    1
     7     9    14   ar
     8    22    14   ar
     9    14    24    1
    10    24    17    1
    11    24    16    1
    12    17    19    1
    13    19    25    1
    14    16    18    1
    15    25    18    1
    16    25    15   am
    17    15    26    2
    18    15     8    1
    19     2     4   ar
    20     2     1   ar
    21     4    10   ar
    22     1     3   ar
    23    10    28    1
    24    10     7   ar
    25     8    12   ar
    26     8    13   ar
    27     3     7   ar
    28     7    12    1
    29    12    23   ar
    30    13    21    1
    31    13    27   ar
    32    23    27   ar
