@<TRIPOS>MOLECULE
4dz0_AEN_A_1.pdb
 21 22 0 0 0
SMALL
GASTEIGER

@<TRIPOS>ATOM
      1  C1        22.2050   28.6190   -2.3840 C.ar  201  AEN201      0.1123
      2  C2        21.2000   28.0390   -3.1740 C.ar  201  AEN201      0.0189
      3  C3        19.9060   28.5640   -3.1840 C.ar  201  AEN201      0.0014
      4  C4        19.6000   29.6810   -2.4020 C.ar  201  AEN201      0.0014
      5  C5        20.2780   31.4070   -0.8140 C.ar  201  AEN201      0.0654
      6  C6        21.2770   31.9900   -0.0230 C.ar  201  AEN201      0.0161
      7  C7        22.5660   31.4690   -0.0100 C.ar  201  AEN201      0.0014
      8  C8        22.8640   30.3570   -0.7940 C.ar  201  AEN201      0.0014
      9  C9        21.8900   29.7490   -1.5970 C.ar  201  AEN201      0.0189
     10  C10       20.5850   30.2810   -1.6050 C.ar  201  AEN201      0.0161
     11  C1'       18.1150   35.0580    4.0840 C.3   201  AEN201      0.0964
     12  C2'       18.7540   33.9960    3.2300 C.2   201  AEN201      0.2419
     13  O2'       19.9660   33.8170    3.2220 O.2   201  AEN201     -0.2733
     14  N3'       17.9150   33.2680    2.4840 N.am  201  AEN201     -0.2035
     15  C4'       18.2160   32.1780    1.5570 C.3   201  AEN201      0.1384
     16  C5'       18.5390   32.8490    0.2180 C.3   201  AEN201      0.1356
     17  N6'       19.0200   31.9310   -0.8100 N.pl3 201  AEN201     -0.2357
     18  S         23.6910   27.9810   -2.4080 S.3   201  AEN201      0.0421
     19  O1S       23.6910   26.6860   -3.1330 O.3   201  AEN201     -0.0650
     20  O2S       24.1920   27.7550   -1.0270 O.3   201  AEN201     -0.0650
     21  O3S       24.5970   28.9010   -3.1370 O.3   201  AEN201     -0.0650
@<TRIPOS>BOND
     1     3     2   ar
     2     3     4   ar
     3     2     1   ar
     4    21    18    1
     5    19    18    1
     6    18     1    1
     7    18    20    1
     8     4    10   ar
     9     1     9   ar
    10    10     9   ar
    11    10     5   ar
    12     9     8   ar
    13     5    17    1
    14     5     6   ar
    15    17    16    1
    16     8     7   ar
    17     6     7   ar
    18    16    15    1
    19    15    14    1
    20    14    12   am
    21    13    12    2
    22    12    11    1
