@<TRIPOS>MOLECULE
4dz5_NAP_A_1.pdb
 48 52 0 0 0
SMALL
GASTEIGER

@<TRIPOS>ATOM
      1  PA         1.8270   -3.4700   -3.3940 P.3   401  NAP401      0.2189
      2  O1A        3.3010   -3.1970   -3.5030 O.2   401  NAP401     -0.5170
      3  O2A        1.3770   -4.9090   -3.1940 O.3   401  NAP401     -0.4371
      4  O5B        1.2840   -2.5080   -2.2260 O.3   401  NAP401     -0.3112
      5  C5B       -0.0490   -2.6740   -1.8600 C.3   401  NAP401      0.1813
      6  C4B       -0.3910   -1.5980   -0.8480 C.3   401  NAP401      0.1820
      7  O4B        0.5070   -1.7120    0.2520 O.3   401  NAP401     -0.3136
      8  C3B       -0.1280   -0.1370   -1.3420 C.3   401  NAP401      0.2157
      9  O3B       -1.3050    0.4290   -1.9630 O.3   401  NAP401     -0.2175
     10  C2B        0.4010    0.7310   -0.1170 C.3   401  NAP401      0.2314
     11  O2B       -0.6280    1.6770    0.2750 O.3   401  NAP401     -0.2630
     12  C1B        0.5220   -0.4120    0.9520 C.3   401  NAP401      0.3158
     13  N9A        1.8490   -0.3060    1.6460 N.pl3 401  NAP401     -0.1439
     14  C8A        3.0760   -0.0200    1.0280 C.3   401  NAP401      0.3377
     15  N7A        4.0100   -0.0680    1.9820 N.2   401  NAP401     -0.2095
     16  C5A        3.3990   -0.3910    3.1740 C.2   401  NAP401      0.2526
     17  C6A        3.8490   -0.5310    4.5200 C.2   401  NAP401      0.4393
     18  N6A        5.2000   -0.4490    4.8660 N.pl3 401  NAP401      0.2180
     19  N1A        2.8700   -0.8010    5.4380 N.2   401  NAP401      0.0021
     20  C2A        1.5890   -0.9760    5.2110 C.3   401  NAP401      0.5254
     21  N3A        1.1080   -0.8580    3.9250 N.2   401  NAP401     -0.0055
     22  C4A        2.0410   -0.5410    2.9420 C.2   401  NAP401      0.3518
     23  O3         1.0660   -2.7670   -4.6690 O.3   401  NAP401     -0.2703
     24  PN         0.9190   -3.1570   -6.2320 P.3   401  NAP401      0.2189
     25  O1N        0.6650   -1.8600   -6.8910 O.2   401  NAP401     -0.5170
     26  O2N       -0.0170   -4.2490   -6.4210 O.3   401  NAP401     -0.4371
     27  O5D        2.3890   -3.7340   -6.6670 O.3   401  NAP401     -0.3112
     28  C5D        3.5630   -2.9050   -6.6400 C.3   401  NAP401      0.1813
     29  C4D        3.9050   -2.3360   -8.0950 C.3   401  NAP401      0.1799
     30  O4D        4.1210   -3.5550   -8.8770 O.3   401  NAP401     -0.3327
     31  C3D        2.8290   -1.5780   -8.8310 C.3   401  NAP401      0.2158
     32  O3D        2.9170   -0.1900   -8.3730 O.3   401  NAP401     -0.2175
     33  C2D        3.4150   -1.6460  -10.2470 C.3   401  NAP401      0.2309
     34  O2D        4.6550   -0.8940  -10.2590 O.3   401  NAP401     -0.2158
     35  C1D        3.8940   -3.1650  -10.2810 C.3   401  NAP401      0.2263
     36  N1N        2.7940   -4.0750  -10.7120 N.pl3 401  NAP401     -0.2787
     37  C2N        2.9430   -4.6600  -11.9580 C.3   401  NAP401      0.1244
     38  C3N        1.9820   -5.4580  -12.4350 C.2   401  NAP401      0.0544
     39  C7N        2.1670   -6.1810  -13.8410 C.2   401  NAP401      0.2818
     40  O7N        1.1540   -6.6860  -14.3540 O.2   401  NAP401     -0.2670
     41  N7N        3.4720   -6.2410  -14.1920 N.am  401  NAP401     -0.0839
     42  C4N        0.7360   -5.7400  -11.7500 C.2   401  NAP401      0.0033
     43  C5N        0.5940   -5.1380  -10.4520 C.2   401  NAP401      0.0157
     44  C6N        1.6060   -4.3090   -9.9970 C.2   401  NAP401      0.0633
     45  P2B        0.0150    3.1560    0.4270 P.3   401  NAP401      0.5328
     46  O1X        0.2560    3.7220   -0.9840 O.2   401  NAP401     -0.2224
     47  O2X       -1.3120    3.7750    1.1080 O.3   401  NAP401     -0.1145
     48  O3X        1.2300    3.0880    1.3240 O.3   401  NAP401     -0.1145
@<TRIPOS>BOND
     1    40    39    2
     2    41    39   am
     3    39    38    1
     4    38    37    1
     5    38    42    2
     6    37    36    1
     7    42    43    1
     8    36    35    1
     9    36    44    1
    10    43    44    2
    11    35    33    1
    12    35    30    1
    13    34    33    1
    14    33    31    1
    15    30    29    1
    16    31    32    1
    17    31    29    1
    18    29    28    1
    19    25    24    2
    20    27    28    1
    21    27    24    1
    22    26    24    1
    23    24    23    1
    24    23     1    1
    25     2     1    2
    26     1     3    1
    27     1     4    1
    28     4     5    1
    29     9     8    1
    30     5     6    1
    31     8     6    1
    32     8    10    1
    33    46    45    2
    34     6     7    1
    35    10    11    1
    36    10    12    1
    37     7    12    1
    38    11    45    1
    39    45    47    1
    40    45    48    1
    41    12    13    1
    42    14    13    1
    43    14    15    1
    44    13    22    1
    45    15    16    2
    46    22    16    1
    47    22    21    2
    48    16    17    1
    49    21    20    1
    50    17    18    1
    51    17    19    2
    52    20    19    1
