@<TRIPOS>MOLECULE
4dz6_ADP_A_1.pdb
 27 29 0 0 0
SMALL
GASTEIGER

@<TRIPOS>ATOM
      1  PB        21.3350   17.7260   33.4090 P.3   1001  ADP1001     0.5373
      2  O1B       22.1720   16.6610   32.7310 O.2   1001  ADP1001    -0.2221
      3  O2B       22.1370   18.9740   33.7250 O.3   1001  ADP1001    -0.1143
      4  O3B       19.9980   17.9790   32.7710 O.3   1001  ADP1001    -0.1143
      5  PA        20.3810   15.5910   35.1660 P.3   1001  ADP1001     0.2231
      6  O1A       20.3920   14.7230   33.9200 O.2   1001  ADP1001    -0.5169
      7  O2A       21.1290   15.1540   36.3990 O.3   1001  ADP1001    -0.4370
      8  O3A       20.8950   17.1020   34.8480 O.3   1001  ADP1001    -0.2261
      9  O5'       18.8480   15.8030   35.6090 O.3   1001  ADP1001    -0.3111
     10  C5'       17.9000   16.0520   34.5830 C.3   1001  ADP1001     0.1813
     11  C4'       17.0740   17.2860   34.9220 C.3   1001  ADP1001     0.1821
     12  O4'       16.2820   17.0200   36.0840 O.3   1001  ADP1001    -0.3135
     13  C3'       17.8930   18.5200   35.2570 C.3   1001  ADP1001     0.2184
     14  O3'       18.2920   19.2930   34.1080 O.3   1001  ADP1001    -0.2174
     15  C2'       16.9470   19.2470   36.1920 C.3   1001  ADP1001     0.2570
     16  O2'       15.9500   19.9630   35.4420 O.3   1001  ADP1001    -0.2130
     17  C1'       16.2630   18.1300   36.9690 C.3   1001  ADP1001     0.3186
     18  N9        16.9870   17.7770   38.2260 N.pl3 1001  ADP1001    -0.1439
     19  C8        18.1810   17.1480   38.3320 C.3   1001  ADP1001     0.3377
     20  N7        18.5400   16.9850   39.6360 N.2   1001  ADP1001    -0.2095
     21  C5        17.5620   17.5070   40.3960 C.2   1001  ADP1001     0.2526
     22  C6        17.3000   17.6730   41.8540 C.2   1001  ADP1001     0.4393
     23  N6        18.1800   17.2350   42.8010 N.pl3 1001  ADP1001     0.2180
     24  N1        16.1420   18.2850   42.2120 N.2   1001  ADP1001     0.0021
     25  C2        15.2520   18.7330   41.3020 C.3   1001  ADP1001     0.5254
     26  N3        15.4270   18.6170   39.9700 N.2   1001  ADP1001    -0.0055
     27  C4        16.5410   18.0270   39.4620 C.2   1001  ADP1001     0.3518
@<TRIPOS>BOND
     1     2     1    2
     2     4     1    1
     3     1     3    1
     4     1     8    1
     5     6     5    2
     6    14    13    1
     7    10    11    1
     8    10     9    1
     9     8     5    1
    10    11    13    1
    11    11    12    1
    12     5     9    1
    13     5     7    1
    14    13    15    1
    15    16    15    1
    16    12    17    1
    17    15    17    1
    18    17    18    1
    19    18    19    1
    20    18    27    1
    21    19    20    1
    22    27    26    2
    23    27    21    1
    24    20    21    2
    25    26    25    1
    26    21    22    1
    27    25    24    1
    28    22    24    2
    29    22    23    1
