@<TRIPOS>MOLECULE
4dz8_BMA_A_1.pdb
 11 11 0 0 0
SMALL
GASTEIGER

@<TRIPOS>ATOM
      1  C1        20.2300   -8.2530  -10.8490 C.3   503  BMA503      0.1777
      2  C2        20.2960   -6.7400  -11.0480 C.3   503  BMA503      0.2141
      3  C3        19.3460   -6.3080  -12.1620 C.3   503  BMA503      0.2173
      4  C4        19.6040   -7.1260  -13.4160 C.3   503  BMA503      0.2142
      5  C5        19.6150   -8.6140  -13.1200 C.3   503  BMA503      0.1810
      6  C6        20.0110   -9.3880  -14.3570 C.3   503  BMA503      0.2141
      7  O2        21.6420   -6.3530  -11.3730 O.3   503  BMA503     -0.2176
      8  O3        19.5620   -4.9300  -12.4720 O.3   503  BMA503     -0.2175
      9  O4        18.5620   -6.8490  -14.3530 O.3   503  BMA503     -0.2176
     10  O5        20.5130   -8.9530  -12.0540 O.3   503  BMA503     -0.3481
     11  O6        19.8510  -10.7610  -14.0230 O.3   503  BMA503     -0.2176
@<TRIPOS>BOND
     1     6    11    1
     2     6     5    1
     3     9     4    1
     4     4     5    1
     5     4     3    1
     6     5    10    1
     7     8     3    1
     8     3     2    1
     9    10     1    1
    10     7     2    1
    11     2     1    1
