@<TRIPOS>MOLECULE
4dzw_0MQ_A_1.pdb
 17 17 0 0 0
SMALL
GASTEIGER

@<TRIPOS>ATOM
      1  O6       -15.1070  -14.8370  -16.3970 O.3   401  0MQ401     -0.3568
      2  P2       -15.5830  -15.6840  -17.5510 P.3   401  0MQ401      0.1250
      3  O4       -15.5820  -17.1840  -17.4160 O.3   401  0MQ401     -0.3568
      4  O5       -17.0930  -15.2480  -17.8900 O.2   401  0MQ401     -0.4596
      5  C1       -14.5450  -15.2570  -18.9730 C.3   401  0MQ401      0.1212
      6  P1       -14.8160  -13.5100  -19.4030 P.3   401  0MQ401      0.1250
      7  O3       -15.8380  -13.3990  -20.5110 O.2   401  0MQ401     -0.4596
      8  O2       -15.4400  -12.7880  -18.0990 O.3   401  0MQ401     -0.3568
      9  O1       -13.4490  -12.9260  -19.6540 O.3   401  0MQ401     -0.3568
     10  C2       -14.8900  -16.1740  -20.1360 C.3   401  0MQ401      0.1031
     11  N1       -14.3160  -17.4760  -19.8710 N.3   401  0MQ401     -0.2185
     12  C3       -13.6580  -18.2090  -20.9370 C.3   401  0MQ401      0.0728
     13  C4       -12.2890  -17.6080  -21.2700 C.3   401  0MQ401      0.0174
     14  C5       -11.5860  -18.3930  -22.3760 C.3   401  0MQ401      0.0014
     15  C6       -11.5190  -19.8930  -22.0730 C.3   401  0MQ401      0.0001
     16  C7       -12.8690  -20.4830  -21.6660 C.3   401  0MQ401      0.0014
     17  C8       -13.4880  -19.6720  -20.5290 C.3   401  0MQ401      0.0174
@<TRIPOS>BOND
     1    14    15    1
     2    14    13    1
     3    15    16    1
     4    16    17    1
     5    13    12    1
     6    12    17    1
     7    12    11    1
     8     7     6    2
     9    10    11    1
    10    10     5    1
    11     9     6    1
    12     6     5    1
    13     6     8    1
    14     5     2    1
    15     4     2    2
    16     2     3    1
    17     2     1    1
