@<TRIPOS>MOLECULE
4dzw_IPR_A_1.pdb
 14 13 0 0 0
SMALL
GASTEIGER

@<TRIPOS>ATOM
      1  P11       -4.5020  -10.6120  -21.5020 P.3   404  IPR404      0.5373
      2  O14       -4.9170   -9.2700  -22.0370 O.3   404  IPR404     -0.1143
      3  O12       -3.7000  -10.5370  -20.2280 O.3   404  IPR404     -0.1143
      4  O13       -3.9430  -11.5640  -22.5340 O.2   404  IPR404     -0.2221
      5  O10       -5.9000  -11.2730  -21.0610 O.3   404  IPR404     -0.2261
      6  P7        -7.1140  -11.3360  -22.1210 P.3   404  IPR404      0.2230
      7  O8        -7.6580   -9.9440  -22.3440 O.3   404  IPR404     -0.4370
      8  O9        -6.6210  -12.1080  -23.3200 O.2   404  IPR404     -0.5169
      9  O6        -8.2620  -12.2030  -21.3780 O.3   404  IPR404     -0.3135
     10  C5        -8.7170  -11.9250  -20.0520 C.3   404  IPR404      0.1535
     11  C4       -10.1720  -12.3620  -19.9140 C.3   404  IPR404      0.0545
     12  C2       -10.3200  -13.8600  -19.7390 C.2   404  IPR404     -0.0414
     13  C1       -10.6720  -14.4490  -18.4050 C.3   404  IPR404      0.0264
     14  C3       -10.1600  -14.6760  -20.7600 C.2   404  IPR404     -0.0090
@<TRIPOS>BOND
     1     8     6    2
     2     4     1    2
     3     7     6    1
     4     6     9    1
     5     6     5    1
     6     2     1    1
     7     1     5    1
     8     1     3    1
     9     9    10    1
    10    14    12    2
    11    10    11    1
    12    11    12    1
    13    12    13    1
