@<TRIPOS>MOLECULE
4dzz_ADP_A_1.pdb
 27 29 0 0 0
SMALL
GASTEIGER

@<TRIPOS>ATOM
      1  PB        23.0010   30.5580   23.8410 P.3   501  ADP501      0.5373
      2  O1B       22.2050   31.0840   24.9260 O.3   501  ADP501     -0.1143
      3  O2B       22.9460   30.3360   22.4250 O.2   501  ADP501     -0.2221
      4  O3B       24.4290   30.0890   24.5090 O.3   501  ADP501     -0.1143
      5  PA        22.0600   27.6680   23.4450 P.3   501  ADP501      0.2231
      6  O1A       21.0310   27.7150   22.3730 O.2   501  ADP501     -0.5169
      7  O2A       23.3820   27.1460   23.0900 O.3   501  ADP501     -0.4370
      8  O3A       22.2330   29.1710   24.1370 O.3   501  ADP501     -0.2261
      9  O5'       21.2910   26.8600   24.5310 O.3   501  ADP501     -0.3111
     10  C5'       21.9520   26.5470   25.7770 C.3   501  ADP501      0.1813
     11  C4'       21.7790   25.0820   26.1850 C.3   501  ADP501      0.1821
     12  O4'       20.6050   24.9950   27.0520 O.3   501  ADP501     -0.3135
     13  C3'       21.4840   23.9970   25.0950 C.3   501  ADP501      0.2184
     14  O3'       22.6880   23.3250   24.6670 O.3   501  ADP501     -0.2174
     15  C2'       20.4800   23.1230   25.7580 C.3   501  ADP501      0.2570
     16  O2'       21.1220   22.0990   26.5530 O.3   501  ADP501     -0.2130
     17  C1'       19.6650   23.9840   26.6360 C.3   501  ADP501      0.3186
     18  N9        18.4520   24.6810   26.0520 N.pl3 501  ADP501     -0.1439
     19  C8        18.2850   25.9030   25.4170 C.3   501  ADP501      0.3377
     20  N7        17.0650   26.1760   25.0450 N.2   501  ADP501     -0.2095
     21  C5        16.3780   25.0470   25.4710 C.2   501  ADP501      0.2526
     22  C6        15.0020   24.6470   25.3960 C.2   501  ADP501      0.4393
     23  N6        14.0920   25.4440   24.8260 N.pl3 501  ADP501      0.2180
     24  N1        14.6160   23.4050   25.9330 N.2   501  ADP501      0.0021
     25  C2        15.5330   22.5750   26.5220 C.3   501  ADP501      0.5254
     26  N3        16.8830   22.8450   26.6530 N.2   501  ADP501     -0.0055
     27  C4        17.2310   24.1110   26.0950 C.2   501  ADP501      0.3518
@<TRIPOS>BOND
     1     6     5    2
     2     3     1    2
     3     7     5    1
     4     5     8    1
     5     5     9    1
     6     1     8    1
     7     1     4    1
     8     1     2    1
     9     9    10    1
    10    14    13    1
    11    23    22    1
    12    20    19    1
    13    20    21    2
    14    13    15    1
    15    13    11    1
    16    22    21    1
    17    22    24    2
    18    19    18    1
    19    21    27    1
    20    15    16    1
    21    15    17    1
    22    10    11    1
    23    24    25    1
    24    18    27    1
    25    18    17    1
    26    27    26    2
    27    11    12    1
    28    25    26    1
    29    17    12    1
