@<TRIPOS>MOLECULE
4e03_ADP_A_1.pdb
 27 29 0 0 0
SMALL
GASTEIGER

@<TRIPOS>ATOM
      1  PB       -13.9280   -4.5960   26.7300 P.3   501  ADP501      0.5373
      2  O1B      -13.6910   -5.1160   28.0560 O.3   501  ADP501     -0.1143
      3  O2B      -13.3350   -3.5900   25.8940 O.2   501  ADP501     -0.2221
      4  O3B      -15.1940   -5.3930   26.0150 O.3   501  ADP501     -0.1143
      5  PA       -15.7490   -2.1760   27.1820 P.3   501  ADP501      0.2231
      6  O1A      -14.9370   -0.9690   26.8540 O.3   501  ADP501     -0.4370
      7  O2A      -16.7820   -2.5880   26.2130 O.2   501  ADP501     -0.5169
      8  O3A      -14.8390   -3.5190   27.4930 O.3   501  ADP501     -0.2261
      9  O5'      -16.3310   -1.8710   28.5970 O.3   501  ADP501     -0.3111
     10  C5'      -17.1990   -2.8270   29.2600 C.3   501  ADP501      0.1813
     11  C4'      -18.4680   -2.1820   29.7820 C.3   501  ADP501      0.1821
     12  O4'      -18.2160   -1.6510   31.1240 O.3   501  ADP501     -0.3135
     13  C3'      -19.0500   -0.9610   29.0060 C.3   501  ADP501      0.2184
     14  O3'      -20.0690   -1.3900   28.0760 O.3   501  ADP501     -0.2174
     15  C2'      -19.5150   -0.0680   30.1040 C.3   501  ADP501      0.2570
     16  O2'      -20.8640   -0.4300   30.5030 O.3   501  ADP501     -0.2130
     17  C1'      -18.5850   -0.2670   31.2530 C.3   501  ADP501      0.3186
     18  N9       -17.2940    0.5370   31.3420 N.pl3 501  ADP501     -0.1439
     19  C8       -16.0150    0.3310   30.8320 C.3   501  ADP501      0.3377
     20  N7       -15.1380    1.2530   31.1320 N.2   501  ADP501     -0.2095
     21  C5       -15.8830    2.1290   31.8970 C.2   501  ADP501      0.2526
     22  C6       -15.5790    3.3730   32.5690 C.2   501  ADP501      0.4393
     23  N6       -14.3440    3.8930   32.5340 N.pl3 501  ADP501      0.2180
     24  N1       -16.5920    4.0320   33.2740 N.2   501  ADP501      0.0021
     25  C2       -17.8590    3.5180   33.3290 C.3   501  ADP501      0.5254
     26  N3       -18.2730    2.3370   32.7310 N.2   501  ADP501     -0.0055
     27  C4       -17.2210    1.7020   32.0250 C.2   501  ADP501      0.3518
@<TRIPOS>BOND
     1     3     1    2
     2     4     1    1
     3     7     5    2
     4     1     8    1
     5     1     2    1
     6     6     5    1
     7     5     8    1
     8     5     9    1
     9    14    13    1
    10     9    10    1
    11    13    11    1
    12    13    15    1
    13    10    11    1
    14    11    12    1
    15    15    16    1
    16    15    17    1
    17    19    20    1
    18    19    18    1
    19    12    17    1
    20    20    21    2
    21    17    18    1
    22    18    27    1
    23    21    27    1
    24    21    22    1
    25    27    26    2
    26    23    22    1
    27    22    24    2
    28    26    25    1
    29    24    25    1
