@<TRIPOS>MOLECULE
4e04_LBV_A_1.pdb
 43 46 0 0 0
SMALL
GASTEIGER

@<TRIPOS>ATOM
      1  C1A       35.0300    5.9360   79.3130 C.1   400  LBV400      0.1788
      2  C1B       30.7250    6.2930   77.8580 C.2   400  LBV400      0.1111
      3  O1B       25.3440    6.3990   73.9600 O.co2 400  LBV400     -0.2456
      4  C1C       30.7150    3.6380   74.2270 C.2   400  LBV400      0.1114
      5  O1C       30.9450    4.8120   69.4790 O.co2 400  LBV400     -0.2456
      6  C1D       34.6540    1.0460   73.1380 C.2   400  LBV400      0.1257
      7  C2A       35.1200    6.6190   80.6280 C.3   400  LBV400      0.1246
      8  C2B       29.3210    6.7610   77.7850 C.2   400  LBV400      0.0021
      9  O2B       25.3860    8.4340   74.7430 O.co2 400  LBV400     -0.2456
     10  C2C       30.3790    2.9550   72.9490 C.2   400  LBV400      0.0024
     11  O2C       29.8910    2.8470   69.1630 O.co2 400  LBV400     -0.2456
     12  C2D       35.7050    0.1630   73.6580 C.2   400  LBV400      0.0168
     13  C3A       33.6950    7.0190   80.4920 C.3   400  LBV400      0.0660
     14  C3B       28.7970    6.1350   76.5800 C.2   400  LBV400      0.0024
     15  C3C       31.5390    2.1170   72.7260 C.2   400  LBV400      0.0021
     16  C3D       36.4210   -0.2020   72.4040 C.2   400  LBV400      0.0929
     17  C4A       32.9880    6.5020   79.3100 C.2   400  LBV400      0.1070
     18  C4B       29.9470    5.3520   76.1040 C.2   400  LBV400      0.1114
     19  C4C       32.4790    2.4800   73.8550 C.2   400  LBV400      0.1114
     20  C4D       35.7210    0.5570   71.3430 C.1   400  LBV400      0.2041
     21  CAA       32.9510    7.7820   81.5090 C.3   400  LBV400      0.0078
     22  CAB       27.4110    6.2690   76.0290 C.3   400  LBV400      0.0402
     23  CAC       29.1500    3.0110   72.0300 C.3   400  LBV400      0.0402
     24  CAD       37.6400   -1.0320   72.1980 C.2   400  LBV400      0.0124
     25  CBA       33.2090    7.6070   83.0030 C.3   400  LBV400      0.0005
     26  CBB       27.4270    7.1590   74.7790 C.3   400  LBV400      0.1188
     27  CBC       29.2330    4.2110   71.0230 C.3   400  LBV400      0.1188
     28  CBD       37.6270   -2.0880   71.4120 C.2   400  LBV400      0.0008
     29  CGB       25.9450    7.3430   74.4810 C.2   400  LBV400      0.3652
     30  CGC       30.1030    3.9230   69.8150 C.2   400  LBV400      0.3652
     31  CHB       31.5620    6.7560   79.0030 C.3   400  LBV400      0.1138
     32  CHC       29.7980    4.5520   74.8640 C.3   400  LBV400      0.1170
     33  CHD       33.7200    1.7130   74.0600 C.3   400  LBV400      0.1181
     34  CMA       36.1850    7.7230   80.7100 C.3   400  LBV400      0.0192
     35  CMB       28.5690    7.6780   78.6750 C.3   400  LBV400      0.0331
     36  CMC       31.7610    1.1690   71.5710 C.3   400  LBV400      0.0331
     37  CMD       35.9440   -0.2220   75.0990 C.3   400  LBV400      0.0342
     38  N_A       33.8760    5.8370   78.5540 N.2   400  LBV400     -0.3448
     39  O_A       36.0910    5.3520   78.8720 O.2   400  LBV400     -0.2142
     40  N_B       31.0760    5.4400   76.8590 N.2   400  LBV400     -0.4104
     41  N_C       31.9350    3.3390   74.7520 N.2   400  LBV400     -0.4104
     42  N_D       34.6860    1.2610   71.7770 N.2   400  LBV400     -0.3372
     43  O_D       36.0890    0.4470   70.1170 O.2   400  LBV400     -0.2093
@<TRIPOS>BOND
     1    11    30   ar
     2     5    30   ar
     3    30    27    1
     4    43    20    2
     5    27    23    1
     6    20    42    2
     7    20    16    1
     8    28    24    2
     9    36    15    1
    10    42     6    2
    11    23    10    1
    12    24    16    1
    13    16    12    2
    14    15    10    2
    15    15    19    1
    16    10     4    1
    17     6    12    1
    18     6    33    1
    19    12    37    1
    20    19    33    1
    21    19    41    2
    22     3    29   ar
    23     4    41    2
    24     4    32    1
    25    29     9   ar
    26    29    26    1
    27    26    22    1
    28    32    18    1
    29    22    14    1
    30    18    14    1
    31    18    40    2
    32    14     8    2
    33    40     2    2
    34     8     2    1
    35     8    35    1
    36     2    31    1
    37    38    17    2
    38    38     1    2
    39    39     1    2
    40    31    17    1
    41    17    13    1
    42     1     7    1
    43    13     7    1
    44    13    21    1
    45     7    34    1
    46    21    25    1
