@<TRIPOS>MOLECULE
4e07_ACP_A_1.pdb
 31 33 0 0 0
SMALL
GASTEIGER

@<TRIPOS>ATOM
      1  PG       -15.6690   35.7160  -15.4250 P.3   500  ACP500      0.1295
      2  O1G      -15.8500   37.1550  -15.7040 O.3   500  ACP500     -0.3567
      3  O2G      -16.4480   34.8170  -16.2760 O.2   500  ACP500     -0.4595
      4  O3G      -14.2060   35.3740  -15.4820 O.3   500  ACP500     -0.3567
      5  PB       -15.1820   35.3930  -12.6040 P.3   500  ACP500      0.3815
      6  O1B      -14.6540   34.0500  -12.2940 O.2   500  ACP500     -0.2547
      7  O2B      -15.0260   36.6620  -11.9530 O.3   500  ACP500     -0.1391
      8  C3B      -16.2110   35.3970  -13.9070 C.3   500  ACP500      0.1768
      9  PA       -17.9600   34.8160  -11.5160 P.3   500  ACP500      0.2209
     10  O1A      -18.5400   36.1760  -11.5610 O.3   500  ACP500     -0.4371
     11  O2A      -18.4240   33.8140  -12.5310 O.2   500  ACP500     -0.5170
     12  O3A      -16.3340   34.9610  -11.5810 O.3   500  ACP500     -0.2483
     13  O5'      -18.1930   34.2850  -10.0410 O.3   500  ACP500     -0.3111
     14  C5'      -17.6450   33.0130   -9.5770 C.3   500  ACP500      0.1813
     15  C4'      -18.6890   32.1640   -8.8870 C.3   500  ACP500      0.1821
     16  O4'      -19.2280   32.9280   -7.8070 O.3   500  ACP500     -0.3135
     17  C3'      -19.8650   31.7620   -9.7110 C.3   500  ACP500      0.2184
     18  O3'      -20.0930   30.3660   -9.4130 O.3   500  ACP500     -0.2174
     19  C2'      -20.9610   32.7120   -9.2920 C.3   500  ACP500      0.2570
     20  O2'      -22.2760   32.1980   -9.4510 O.3   500  ACP500     -0.2130
     21  C1'      -20.6640   33.0310   -7.8540 C.3   500  ACP500      0.3186
     22  N9       -20.9760   34.3950   -7.3880 N.pl3 500  ACP500     -0.1439
     23  C8       -20.4590   35.6070   -7.8000 C.3   500  ACP500      0.3377
     24  N7       -20.9380   36.6470   -7.1750 N.2   500  ACP500     -0.2095
     25  C5       -21.8280   36.0830   -6.2870 C.2   500  ACP500      0.2526
     26  C6       -22.7120   36.6430   -5.2870 C.2   500  ACP500      0.4393
     27  N6       -22.7520   37.9590   -5.0720 N.pl3 500  ACP500      0.2180
     28  N1       -23.5130   35.8010   -4.5300 N.2   500  ACP500      0.0021
     29  C2       -23.4720   34.4630   -4.7480 C.3   500  ACP500      0.5254
     30  N3       -22.6770   33.8070   -5.6600 N.2   500  ACP500     -0.0055
     31  C4       -21.8770   34.7010   -6.4140 C.2   500  ACP500      0.3518
@<TRIPOS>BOND
     1     3     1    2
     2     2     1    1
     3     4     1    1
     4     1     8    1
     5     8     5    1
     6     5     6    2
     7     5     7    1
     8     5    12    1
     9    11     9    2
    10    12     9    1
    11    10     9    1
    12     9    13    1
    13    13    14    1
    14    17    18    1
    15    17    19    1
    16    17    15    1
    17    14    15    1
    18    20    19    1
    19    19    21    1
    20    15    16    1
    21    21    16    1
    22    21    22    1
    23    23    22    1
    24    23    24    1
    25    22    31    1
    26    24    25    2
    27    31    25    1
    28    31    30    2
    29    25    26    1
    30    30    29    1
    31    26    27    1
    32    26    28    2
    33    29    28    1
