@<TRIPOS>MOLECULE
4e09_ACP_A_1.pdb
 31 33 0 0 0
SMALL
GASTEIGER

@<TRIPOS>ATOM
      1  PG        27.9370    6.4970   33.7590 P.3   301  ACP301      0.1295
      2  O1G       28.2170    6.2860   32.3110 O.2   301  ACP301     -0.4595
      3  O2G       27.0610    5.4520   34.3660 O.3   301  ACP301     -0.3567
      4  O3G       29.2610    6.6340   34.5030 O.3   301  ACP301     -0.3567
      5  PB        28.0870    9.3380   33.4990 P.3   301  ACP301      0.3815
      6  O1B       28.9410    9.9230   34.5500 O.3   301  ACP301     -0.1391
      7  O2B       27.7760    9.6890   32.1190 O.2   301  ACP301     -0.2547
      8  C3B       27.2260    7.9880   33.9960 C.3   301  ACP301      0.1768
      9  PA        25.4060   10.4610   34.0310 P.3   301  ACP301      0.2209
     10  O1A       24.8910   10.6400   32.6550 O.2   301  ACP301     -0.5170
     11  O2A       24.9830    9.2700   34.7850 O.3   301  ACP301     -0.4371
     12  O3A       27.0120   10.3910   34.0330 O.3   301  ACP301     -0.2483
     13  O5'       25.0050   11.7980   34.7830 O.3   301  ACP301     -0.3111
     14  C5'       25.4680   12.0600   36.1330 C.3   301  ACP301      0.1813
     15  C4'       24.6080   13.0560   36.8810 C.3   301  ACP301      0.1821
     16  O4'       24.2920   14.1160   35.9570 O.3   301  ACP301     -0.3135
     17  C3'       23.2630   12.5130   37.3770 C.3   301  ACP301      0.2184
     18  O3'       23.0520   13.1060   38.7000 O.3   301  ACP301     -0.2174
     19  C2'       22.3040   12.9710   36.3050 C.3   301  ACP301      0.2570
     20  O2'       20.9530   13.1240   36.7680 O.3   301  ACP301     -0.2130
     21  C1'       22.8820   14.2960   35.7890 C.3   301  ACP301      0.3186
     22  N9        22.6870   14.5610   34.3370 N.pl3 301  ACP301     -0.1439
     23  C8        23.2910   13.9700   33.2290 C.3   301  ACP301      0.3377
     24  N7        22.9010   14.4520   32.0760 N.2   301  ACP301     -0.2095
     25  C5        21.9860   15.3970   32.4380 C.2   301  ACP301      0.2526
     26  C6        21.1950   16.2990   31.6740 C.2   301  ACP301      0.4393
     27  N6        21.2660   16.2860   30.3390 N.pl3 301  ACP301      0.2180
     28  N1        20.3320   17.1800   32.3360 N.2   301  ACP301      0.0021
     29  C2        20.2770   17.1710   33.7090 C.3   301  ACP301      0.5254
     30  N3        20.9990   16.3600   34.5460 N.2   301  ACP301     -0.0055
     31  C4        21.8470   15.4940   33.8240 C.2   301  ACP301      0.3518
@<TRIPOS>BOND
     1    27    26    1
     2    26    28    2
     3    26    25    1
     4    24    25    2
     5    24    23    1
     6     7     5    2
     7     2     1    2
     8    28    29    1
     9    25    31    1
    10    10     9    2
    11    23    22    1
    12     5     8    1
    13     5    12    1
    14     5     6    1
    15    29    30    1
    16     1     8    1
    17     1     3    1
    18     1     4    1
    19    31    22    1
    20    31    30    2
    21     9    12    1
    22     9    13    1
    23     9    11    1
    24    22    21    1
    25    13    14    1
    26    21    16    1
    27    21    19    1
    28    16    15    1
    29    14    15    1
    30    19    20    1
    31    19    17    1
    32    15    17    1
    33    17    18    1
