@<TRIPOS>MOLECULE
4e0d_DCP_A_1.pdb
 40 41 0 0 0
SMALL
GASTEIGER

@<TRIPOS>ATOM
      1  N1         8.0500  -11.4390   29.2900 N.am  910  DCP910     -0.1978
      2  C2         7.5050  -12.1380   30.3020 C.1   910  DCP910      0.2745
      3  N3         8.2480  -12.9020   31.1190 N.2   910  DCP910     -0.3067
      4  C4         9.5770  -12.9740   30.9380 C.2   910  DCP910      0.1840
      5  C5        10.1730  -12.2670   29.9000 C.2   910  DCP910      0.0061
      6  C6         9.3880  -11.4600   29.0760 C.2   910  DCP910      0.0157
      7  O2         6.3080  -12.0730   30.4300 O.2   910  DCP910     -0.1926
      8  N4        10.4090  -13.8040   31.8310 N.pl3 910  DCP910     -0.3326
      9  C1'        7.1900  -10.5970   28.4230 C.3   910  DCP910      0.1424
     10  C2'        6.9730   -9.2560   29.0450 C.3   910  DCP910      0.0199
     11  C3'        7.9550   -8.4830   28.4250 C.3   910  DCP910      0.0875
     12  C4'        7.8720   -8.9740   27.0500 C.3   910  DCP910      0.1105
     13  O4'        7.7530  -10.3490   27.1710 O.3   910  DCP910     -0.3495
     14  O3'        7.6440   -7.0620   28.4930 O.3   910  DCP910     -0.3890
     15  C5'        9.1240   -8.6750   26.2660 C.3   910  DCP910      0.0835
     16  O5'       10.2650   -9.2700   26.7890 O.3   910  DCP910     -0.3246
     17  PA        11.7130   -8.7100   26.5420 P.3   910  DCP910      0.2182
     18  O1A       11.7440   -7.2150   26.7730 O.2   910  DCP910     -0.5170
     19  O2A       12.6330   -9.3870   27.5350 O.3   910  DCP910     -0.4371
     20  O3A       12.1380   -9.0310   25.1120 O.3   910  DCP910     -0.2700
     21  PB        12.8670  -10.3510   24.8800 P.3   910  DCP910      0.2277
     22  O1B       12.1590  -11.4830   25.5830 O.3   910  DCP910     -0.4368
     23  O2B       14.2880  -10.2620   25.3770 O.2   910  DCP910     -0.5168
     24  O3B       12.8420  -10.5880   23.3350 O.3   910  DCP910     -0.2258
     25  PG        11.4480  -10.4430   22.6230 P.3   910  DCP910      0.5373
     26  O1G       11.6770  -10.0930   21.1710 O.2   910  DCP910     -0.2221
     27  O2G       10.7010  -11.7420   22.7200 O.3   910  DCP910     -0.1143
     28  O3G       10.6440   -9.3660   23.2870 O.3   910  DCP910     -0.1143
     29  H5        11.1180  -12.3000   29.7810 H     910  DCP910      0.0676
     30  H6         9.7940  -10.9470   28.3340 H     910  DCP910      0.0794
     31 HN41       11.3350  -13.7750   31.7630 H     910  DCP910      0.1447
     32 HN42       10.0100  -14.3500   32.4530 H     910  DCP910      0.1447
     33  H1'        6.3420  -11.0380   28.3700 H     910  DCP910      0.0820
     34 H2'1        7.1210   -9.2970   29.9980 H     910  DCP910      0.0333
     35 H2'2        6.0890   -8.9190   28.8450 H     910  DCP910      0.0333
     36  H3'        8.8230   -8.6590   28.8490 H     910  DCP910      0.0621
     37  H4'        7.0760   -8.6120   26.6170 H     910  DCP910      0.0646
     38 HO3'        8.0530   -6.7050   29.1820 H     910  DCP910      0.2099
     39 H5'1        8.9960   -9.0090   25.3330 H     910  DCP910      0.0591
     40 H5'2        9.2600   -7.7000   26.2380 H     910  DCP910      0.0591
@<TRIPOS>BOND
     1    26    25    2
     2    25    27    1
     3    25    28    1
     4    25    24    1
     5    24    21    1
     6    21    20    1
     7    21    23    2
     8    21    22    1
     9    20    17    1
    10    39    15    1
    11    40    15    1
    12    15    16    1
    13    15    12    1
    14    17    18    2
    15    17    16    1
    16    17    19    1
    17    37    12    1
    18    12    13    1
    19    12    11    1
    20    13     9    1
    21    30     6    1
    22    33     9    1
    23     9    10    1
    24     9     1    1
    25    11    14    1
    26    11    36    1
    27    11    10    1
    28    14    38    1
    29    35    10    1
    30    10    34    1
    31     6     1    1
    32     6     5    2
    33     1     2   am
    34    29     5    1
    35     5     4    1
    36     2     7    2
    37     2     3    2
    38     4     3    2
    39     4     8    1
    40    31     8    1
    41     8    32    1
