@<TRIPOS>MOLECULE
4e0s_MAN_B_1.pdb
 11 11 0 0 0
SMALL
GASTEIGER

@<TRIPOS>ATOM
      1  C1        92.6380   56.4660  100.6550 C.3   1007  MAN1007     0.1777
      2  C2        94.0990   56.2720  101.0540 C.3   1007  MAN1007     0.2141
      3  C3        94.6330   57.5290  101.7380 C.3   1007  MAN1007     0.2173
      4  C4        94.2900   58.7980  100.9780 C.3   1007  MAN1007     0.2142
      5  C5        92.8090   58.8040  100.6090 C.3   1007  MAN1007     0.1810
      6  C6        92.4020   60.0100   99.7750 C.3   1007  MAN1007     0.2141
      7  O2        94.8700   56.0410   99.9070 O.3   1007  MAN1007    -0.2176
      8  O3        96.0330   57.4930  101.9090 O.3   1007  MAN1007    -0.2175
      9  O4        94.6120   59.8700  101.8290 O.3   1007  MAN1007    -0.2176
     10  O5        92.5180   57.6370   99.8710 O.3   1007  MAN1007    -0.3481
     11  O6        91.0110   60.1980   99.9400 O.3   1007  MAN1007    -0.2176
@<TRIPOS>BOND
     1     6    11    1
     2     6     5    1
     3    10     5    1
     4    10     1    1
     5     7     2    1
     6     5     4    1
     7     1     2    1
     8     4     3    1
     9     4     9    1
    10     2     3    1
    11     3     8    1
