@<TRIPOS>MOLECULE
4e0s_FUC_B_1.pdb
 10 10 0 0 0
SMALL
GASTEIGER

@<TRIPOS>ATOM
      1  C1        77.3400   44.2400   81.7910 C.3   1004  FUC1004     0.1776
      2  C2        76.1430   43.4350   81.3030 C.3   1004  FUC1004     0.2141
      3  C3        75.0860   44.4230   80.8030 C.3   1004  FUC1004     0.2172
      4  C4        75.6960   45.2630   79.6740 C.3   1004  FUC1004     0.2116
      5  C5        77.0840   45.8610   79.9810 C.3   1004  FUC1004     0.1483
      6  C6        77.8430   46.2310   78.6940 C.3   1004  FUC1004     0.0349
      7  O2        75.6680   42.6030   82.3490 O.3   1004  FUC1004    -0.2176
      8  O3        73.8980   43.7500   80.3930 O.3   1004  FUC1004    -0.2175
      9  O4        75.8300   44.4570   78.5300 O.3   1004  FUC1004    -0.2177
     10  O5        77.9170   44.9870   80.7250 O.3   1004  FUC1004    -0.3508
@<TRIPOS>BOND
     1     9     4    1
     2     6     5    1
     3     4     5    1
     4     4     3    1
     5     5    10    1
     6     8     3    1
     7    10     1    1
     8     3     2    1
     9     2     1    1
    10     2     7    1
