@<TRIPOS>MOLECULE
4e0u_0MV_A_1.pdb
 23 26 0 0 0
SMALL
GASTEIGER

@<TRIPOS>ATOM
      1  O         12.3670  -27.7690  -15.5700 O.2   501  0MV501     -0.2122
      2  C         11.4010  -27.5100  -14.8510 C.1   501  0MV501      0.2037
      3  NAM       10.4140  -28.5080  -14.7250 N.2   501  0MV501     -0.3342
      4  CAS        9.2270  -28.3120  -13.9900 C.2   501  0MV501      0.1543
      5  CAG        8.1160  -28.8430  -14.6380 C.2   501  0MV501      0.0295
      6  CAC        6.8600  -28.7050  -14.0610 C.2   501  0MV501     -0.0187
      7  CAD        6.7180  -28.0350  -12.8400 C.3   501  0MV501      0.0529
      8  CAH        7.8310  -27.4940  -12.1910 C.2   501  0MV501     -0.0072
      9  CAT        9.0870  -27.6390  -12.7760 C.2   501  0MV501      0.1093
     10  CAP       10.1340  -27.0660  -12.0610 C.1   501  0MV501      0.1533
     11  OAA       10.1700  -27.1330  -10.8240 O.2   501  0MV501     -0.2221
     12  N         11.2000  -26.4360  -12.7290 N.2   501  0MV501     -0.1860
     13  CA        11.2890  -26.2530  -14.2160 C.3   501  0MV501      0.2356
     14  CB        12.4040  -25.3130  -14.6010 C.3   501  0MV501      0.0714
     15  CG        12.0790  -23.9920  -13.8760 C.2   501  0MV501      0.0012
     16  CD2       11.0900  -23.1440  -14.1710 C.2   501  0MV501      0.0113
     17  CE3       10.1520  -23.1550  -15.1210 C.2   501  0MV501     -0.0202
     18  CZ3        9.2340  -22.1120  -15.1980 C.3   501  0MV501      0.0521
     19  CH2        9.3200  -21.0740  -14.2860 C.2   501  0MV501     -0.0199
     20  CZ2       10.3160  -21.1070  -13.3220 C.2   501  0MV501      0.0148
     21  CE2       11.1720  -22.1300  -13.2810 C.2   501  0MV501      0.0804
     22  NE1       12.1990  -22.3730  -12.4540 N.2   501  0MV501     -0.2442
     23  CD1       12.7570  -23.5320  -12.8180 C.2   501  0MV501      0.0947
@<TRIPOS>BOND
     1     1     2    2
     2    18    17    1
     3    18    19    1
     4    17    16    2
     5     2     3    2
     6     2    13    1
     7     3     4    2
     8     5     6    2
     9     5     4    1
    10    14    13    1
    11    14    15    1
    12    19    20    2
    13    13    12    1
    14    16    15    1
    15    16    21    1
    16     6     7    1
    17     4     9    1
    18    15    23    2
    19    20    21    1
    20    21    22    2
    21     7     8    1
    22    23    22    1
    23     9     8    2
    24     9    10    1
    25    12    10    2
    26    10    11    2
