@<TRIPOS>MOLECULE
4e0w_KAI_A_1.pdb
 15 15 0 0 0
SMALL
GASTEIGER

@<TRIPOS>ATOM
      1  N         -4.3820   30.2990  -14.0720 N.3   301  KAI301     -0.2080
      2  CD        -4.8380   30.5280  -15.4770 C.3   301  KAI301      0.0933
      3  CD1       -2.8190   29.2150  -18.6510 C.3   301  KAI301      0.0264
      4  CD2       -5.2580   29.4440  -18.2750 C.2   301  KAI301     -0.0091
      5  CA        -2.9540   29.7370  -14.1270 C.3   301  KAI301      0.1766
      6  CB        -2.9180   29.0570  -15.5050 C.3   301  KAI301      0.0434
      7  CB1       -3.6150   27.6820  -15.4730 C.3   301  KAI301      0.1164
      8  CG        -3.6760   30.0870  -16.3860 C.3   301  KAI301      0.0382
      9  CG1       -2.8200   26.5310  -14.8680 C.2   301  KAI301      0.3649
     10  CG2       -4.0090   29.5850  -17.7900 C.2   301  KAI301     -0.0428
     11  C         -1.8590   30.8510  -13.9620 C.2   301  KAI301      0.3803
     12  O         -2.3120   31.9300  -13.4680 O.co2 301  KAI301     -0.2441
     13  OD1       -3.5350   25.5870  -14.4050 O.co2 301  KAI301     -0.2457
     14  OD2       -1.5550   26.6120  -14.8650 O.co2 301  KAI301     -0.2457
     15  OXT       -0.6780   30.6080  -14.3200 O.co2 301  KAI301     -0.2441
@<TRIPOS>BOND
     1     3    10    1
     2     4    10    2
     3    10     8    1
     4     8     6    1
     5     8     2    1
     6     6     7    1
     7     6     5    1
     8     2     1    1
     9     7     9    1
    10     9    14   ar
    11     9    13   ar
    12    15    11   ar
    13     5     1    1
    14     5    11    1
    15    11    12   ar
