@<TRIPOS>MOLECULE
4e0x_KAI_A_1.pdb
 15 15 0 0 0
SMALL
GASTEIGER

@<TRIPOS>ATOM
      1  N         -1.0010   33.9300  105.1160 N.3   301  KAI301     -0.2080
      2  CD        -0.2730   33.4800  103.8940 C.3   301  KAI301      0.0933
      3  CD1       -0.8970   34.9250  100.2650 C.3   301  KAI301      0.0264
      4  CD2        1.1020   33.8750  101.3370 C.2   301  KAI301     -0.0091
      5  CA        -2.0260   34.9940  104.7060 C.3   301  KAI301      0.1766
      6  CB        -1.5320   35.4610  103.3190 C.3   301  KAI301      0.0434
      7  CB1       -0.4430   36.5550  103.4010 C.3   301  KAI301      0.1164
      8  CG        -0.9960   34.1370  102.7120 C.3   301  KAI301      0.0382
      9  CG1       -0.9270   37.9700  103.7000 C.2   301  KAI301      0.3649
     10  CG2       -0.1820   34.2810  101.4390 C.2   301  KAI301     -0.0428
     11  C         -3.4730   34.3790  104.6920 C.2   301  KAI301      0.3803
     12  O         -3.5340   33.2340  105.2410 O.co2 301  KAI301     -0.2441
     13  OD1       -0.0120   38.7730  104.0680 O.co2 301  KAI301     -0.2457
     14  OD2       -2.1640   38.2200  103.5730 O.co2 301  KAI301     -0.2457
     15  OXT       -4.4110   35.0340  104.1600 O.co2 301  KAI301     -0.2441
@<TRIPOS>BOND
     1     3    10    1
     2     4    10    2
     3    10     8    1
     4     8     6    1
     5     8     2    1
     6     6     7    1
     7     6     5    1
     8     7     9    1
     9    14     9   ar
    10     9    13   ar
    11     2     1    1
    12    15    11   ar
    13    11     5    1
    14    11    12   ar
    15     5     1    1
