@<TRIPOS>MOLECULE
4e0y_DT_D_1.pdb
 17 18 0 0 0
SMALL
GASTEIGER

@<TRIPOS>ATOM
      1  O5'       10.5210  -22.2170    0.8150 O.3   101  DT101      -0.2176
      2  C5'       10.4230  -20.9580    1.4740 C.3   101  DT101       0.2141
      3  C4'       10.1410  -19.8700    0.4560 C.3   101  DT101       0.1802
      4  O4'        9.7480  -18.6310    1.0890 O.3   101  DT101      -0.3338
      5  C3'       11.3070  -19.4690   -0.4430 C.3   101  DT101       0.1858
      6  O3'       11.1950  -20.1440   -1.6880 O.3   101  DT101      -0.2203
      7  C2'       11.1430  -17.9540   -0.6090 C.3   101  DT101       0.0874
      8  C1'        9.7740  -17.7120    0.0210 C.3   101  DT101       0.2090
      9  N1         9.4980  -16.2970    0.4530 N.am  101  DT101      -0.1794
     10  C2         8.7890  -16.0220    1.6040 C.1   101  DT101       0.2844
     11  O2         8.3460  -16.8610    2.3650 O.2   101  DT101      -0.1918
     12  N3         8.6110  -14.6870    1.8510 N.2   101  DT101      -0.2455
     13  C4         9.0460  -13.6190    1.0920 C.1   101  DT101       0.2134
     14  O4         8.8280  -12.4560    1.4110 O.2   101  DT101      -0.2088
     15  C5         9.7730  -13.9710   -0.0960 C.2   101  DT101       0.0891
     16  C7        10.2990  -12.8980   -1.0010 C.3   101  DT101       0.0462
     17  C6         9.9550  -15.2710   -0.3530 C.2   101  DT101       0.0877
@<TRIPOS>BOND
     1     6     5    1
     2    16    15    1
     3     7     5    1
     4     7     8    1
     5     5     3    1
     6    17    15    2
     7    17     9    1
     8    15    13    1
     9     8     9    1
    10     8     4    1
    11     9    10   am
    12     3     4    1
    13     3     2    1
    14     1     2    1
    15    13    14    2
    16    13    12    2
    17    10    12    2
    18    10    11    2
