@<TRIPOS>MOLECULE
4e0z_DT_D_1.pdb
 17 18 0 0 0
SMALL
GASTEIGER

@<TRIPOS>ATOM
      1  O5'        7.8630  -17.1400    4.8790 O.3   101  DT101      -0.2176
      2  C5'        7.6090  -16.5500    3.5710 C.3   101  DT101       0.2141
      3  C4'        8.8550  -16.2860    2.7180 C.3   101  DT101       0.1802
      4  O4'        9.6040  -17.5100    2.5550 O.3   101  DT101      -0.3338
      5  C3'        8.6170  -15.8170    1.2830 C.3   101  DT101       0.1858
      6  O3'        8.6410  -14.3920    1.2140 O.3   101  DT101      -0.2203
      7  C2'        9.7740  -16.4040    0.4700 C.3   101  DT101       0.0874
      8  C1'       10.3440  -17.5160    1.3460 C.3   101  DT101       0.2090
      9  N1        10.2100  -18.9110    0.8090 N.am  101  DT101      -0.1794
     10  C2        10.7830  -19.3390   -0.3840 C.1   101  DT101       0.2844
     11  O2        11.4470  -18.6280   -1.1160 O.2   101  DT101      -0.1918
     12  N3        10.5390  -20.6580   -0.7040 N.2   101  DT101      -0.2455
     13  C4         9.7980  -21.5590    0.0400 C.1   101  DT101       0.2134
     14  O4         9.6310  -22.7080   -0.3330 O.2   101  DT101      -0.2088
     15  C5         9.2420  -21.0410    1.2720 C.2   101  DT101       0.0891
     16  C7         8.4230  -21.8640    2.2020 C.3   101  DT101       0.0462
     17  C6         9.4710  -19.7720    1.5880 C.2   101  DT101       0.0877
@<TRIPOS>BOND
     1    11    10    2
     2    12    10    2
     3    12    13    2
     4    10     9   am
     5    14    13    2
     6    13    15    1
     7     7     5    1
     8     7     8    1
     9     9     8    1
    10     9    17    1
    11     6     5    1
    12    15    17    2
    13    15    16    1
    14     5     3    1
    15     8     4    1
    16     4     3    1
    17     3     2    1
    18     2     1    1
