@<TRIPOS>MOLECULE
4e10_DT_A_1.pdb
 17 18 0 0 0
SMALL
GASTEIGER

@<TRIPOS>ATOM
      1  O5'        5.5150  -13.4950    0.0610 O.3   501  DT501      -0.2176
      2  C5'        6.6710  -14.3310    0.1300 C.3   501  DT501       0.2141
      3  C4'        7.8030  -13.5380    0.7790 C.3   501  DT501       0.1802
      4  O4'        8.7680  -14.3520    1.5210 O.3   501  DT501      -0.3338
      5  C3'        8.6550  -12.6330   -0.0970 C.3   501  DT501       0.1858
      6  O3'        8.8700  -11.4620    0.6710 O.3   501  DT501      -0.2203
      7  C2'        9.9450  -13.4320   -0.3340 C.3   501  DT501       0.0874
      8  C1'       10.0530  -14.3200    0.9110 C.3   501  DT501       0.2090
      9  N1        10.3990  -15.7750    0.7490 N.am  501  DT501      -0.1794
     10  C2        11.3220  -16.3070   -0.1390 C.1   501  DT501       0.2844
     11  O2        12.0020  -15.6220   -0.9150 O.2   501  DT501      -0.1918
     12  N3        11.4220  -17.7000   -0.0590 N.2   501  DT501      -0.2455
     13  C4        10.7490  -18.5860    0.7900 C.1   501  DT501       0.2134
     14  O4        10.9010  -19.8220    0.8120 O.2   501  DT501      -0.2088
     15  C5         9.8190  -17.9110    1.6590 C.2   501  DT501       0.0891
     16  C7         8.9580  -18.6440    2.6220 C.3   501  DT501       0.0462
     17  C6         9.7040  -16.5890    1.5950 C.2   501  DT501       0.0877
@<TRIPOS>BOND
     1    11    10    2
     2     7     5    1
     3     7     8    1
     4    10    12    2
     5    10     9   am
     6     5     6    1
     7     5     3    1
     8    12    13    2
     9     1     2    1
    10     2     3    1
    11     9     8    1
    12     9    17    1
    13     3     4    1
    14    13    14    2
    15    13    15    1
    16     8     4    1
    17    17    15    2
    18    15    16    1
