@<TRIPOS>MOLECULE
4e13_NAD_A_1.pdb
 44 48 0 0 0
SMALL
GASTEIGER

@<TRIPOS>ATOM
      1  PA        39.2880   31.3970   71.5180 P.3   301  NAD301      0.2189
      2  O1A       39.3440   32.8540   71.7730 O.3   301  NAD301     -0.4371
      3  O2A       40.5030   30.6910   71.0550 O.2   301  NAD301     -0.5170
      4  O5B       38.7290   30.6660   72.8390 O.3   301  NAD301     -0.3112
      5  C5B       39.1620   29.3520   73.1990 C.3   301  NAD301      0.1813
      6  C4B       38.1280   28.7620   74.1600 C.3   301  NAD301      0.1821
      7  O4B       38.6660   27.5360   74.6900 O.3   301  NAD301     -0.3135
      8  C3B       37.9770   29.6990   75.3490 C.3   301  NAD301      0.2184
      9  O3B       36.7130   29.4790   75.9900 O.3   301  NAD301     -0.2174
     10  C2B       39.0990   29.2130   76.2460 C.3   301  NAD301      0.2570
     11  O2B       38.8370   29.6100   77.6000 O.3   301  NAD301     -0.2130
     12  C1B       38.8110   27.7320   76.1060 C.3   301  NAD301      0.3186
     13  N9A       39.8660   26.8770   76.6940 N.pl3 301  NAD301     -0.1439
     14  C8A       41.1150   27.2370   76.9760 C.3   301  NAD301      0.3377
     15  N7A       41.7760   26.1430   77.3450 N.2   301  NAD301     -0.2095
     16  C5A       40.9350   25.1130   77.2970 C.2   301  NAD301      0.2526
     17  C6A       41.1010   23.8260   77.5900 C.2   301  NAD301      0.4393
     18  N6A       42.2160   23.5200   78.2470 N.pl3 301  NAD301      0.2180
     19  N1A       40.1060   22.9370   77.4630 N.2   301  NAD301      0.0021
     20  C2A       38.8530   23.3780   77.0240 C.3   301  NAD301      0.5254
     21  N3A       38.7070   24.7400   76.7380 N.2   301  NAD301     -0.0055
     22  C4A       39.7530   25.5660   76.8840 C.2   301  NAD301      0.3518
     23  O3        38.1100   31.1280   70.4550 O.3   301  NAD301     -0.2703
     24  PN        38.4450   30.7710   68.9230 P.3   301  NAD301      0.2189
     25  O1N       39.7690   31.3280   68.5660 O.3   301  NAD301     -0.4371
     26  O2N       37.2770   31.1310   68.0890 O.2   301  NAD301     -0.5170
     27  O5D       38.5510   29.1660   68.9540 O.3   301  NAD301     -0.3112
     28  C5D       39.6820   28.5210   68.3670 C.3   301  NAD301      0.1813
     29  C4D       39.2290   27.2090   67.7270 C.3   301  NAD301      0.1799
     30  O4D       38.2330   27.5300   66.7370 O.3   301  NAD301     -0.3327
     31  C3D       40.4040   26.6540   66.9420 C.3   301  NAD301      0.2158
     32  O3D       40.1460   25.3020   66.5360 O.3   301  NAD301     -0.2175
     33  C2D       40.3610   27.5860   65.7460 C.3   301  NAD301      0.2309
     34  O2D       41.1110   27.0270   64.6560 O.3   301  NAD301     -0.2158
     35  C1D       38.8750   27.4880   65.4500 C.3   301  NAD301      0.2263
     36  N1N       38.3940   28.5300   64.5130 N.pl3 301  NAD301     -0.2787
     37  C2N       38.5930   29.8850   64.8040 C.3   301  NAD301      0.1244
     38  C3N       38.1820   30.8560   63.8960 C.2   301  NAD301      0.0544
     39  C7N       38.3670   32.2020   64.1890 C.2   301  NAD301      0.2818
     40  O7N       38.2020   33.0660   63.3290 O.2   301  NAD301     -0.2670
     41  N7N       38.7550   32.4620   65.4350 N.am  301  NAD301     -0.0839
     42  C4N       37.5820   30.4810   62.6990 C.2   301  NAD301      0.0033
     43  C5N       37.3620   29.1380   62.4130 C.2   301  NAD301      0.0157
     44  C6N       37.7620   28.1610   63.3180 C.2   301  NAD301      0.0633
@<TRIPOS>BOND
     1    43    42    1
     2    43    44    2
     3    42    38    2
     4    44    36    1
     5    40    39    2
     6    38    39    1
     7    38    37    1
     8    39    41   am
     9    36    37    1
    10    36    35    1
    11    34    33    1
    12    35    33    1
    13    35    30    1
    14    33    31    1
    15    32    31    1
    16    30    29    1
    17    31    29    1
    18    29    28    1
    19    26    24    2
    20    28    27    1
    21    25    24    1
    22    24    27    1
    23    24    23    1
    24    23     1    1
    25     3     1    2
    26     1     2    1
    27     1     4    1
    28     4     5    1
    29     5     6    1
    30     6     7    1
    31     6     8    1
    32     7    12    1
    33     8     9    1
    34     8    10    1
    35    12    10    1
    36    12    13    1
    37    10    11    1
    38    13    22    1
    39    13    14    1
    40    21    22    2
    41    21    20    1
    42    22    16    1
    43    14    15    1
    44    20    19    1
    45    16    15    2
    46    16    17    1
    47    19    17    2
    48    17    18    1
