@<TRIPOS>MOLECULE
4e1b_TXA_A_1.pdb
 33 35 0 0 0
SMALL
GASTEIGER

@<TRIPOS>ATOM
      1  OXT        0.1580   22.1800   15.2730 O.co2 2002  TXA2002    -0.2437
      2  CX         1.3810   22.3800   15.0560 C.2   2002  TXA2002     0.3869
      3  OX         1.7470   22.8790   13.9800 O.co2 2002  TXA2002    -0.2437
      4  CAX        2.4050   21.9500   16.1060 C.3   2002  TXA2002     0.2311
      5  CBX        3.3210   20.9510   15.3230 C.3   2002  TXA2002     0.1830
      6  CGX        4.2330   20.1630   16.2640 C.3   2002  TXA2002     0.0380
      7  OGX        2.5470   19.9470   14.6550 O.3   2002  TXA2002    -0.2207
      8  NX         1.7770   21.3960   17.3810 N.am  2002  TXA2002    -0.1560
      9  CCA        1.4400   22.2740   18.3310 C.2   2002  TXA2002     0.4257
     10  OP2        0.6220   21.7550   19.1560 O.3   2002  TXA2002    -0.3949
     11  OCA        1.7830   23.3390   18.1740 O.2   2002  TXA2002    -0.2243
     12  P          0.2500   22.5860   20.2700 P.3   2002  TXA2002     0.2737
     13  OP3        1.2870   22.8820   21.4330 O.3   2002  TXA2002    -0.4273
     14  OP1       -0.6140   23.9240   19.8150 O.2   2002  TXA2002    -0.5081
     15  O5'       -0.8210   21.5620   21.1380 O.3   2002  TXA2002    -0.3024
     16  C5'       -1.9670   20.9370   20.5570 C.3   2002  TXA2002     0.1823
     17  C4'       -3.1580   21.8760   20.5220 C.3   2002  TXA2002     0.1822
     18  C3'       -3.8710   21.9430   21.8730 C.3   2002  TXA2002     0.2184
     19  O3'       -3.3990   23.0040   22.7070 O.3   2002  TXA2002    -0.2174
     20  C2'       -5.2760   22.2880   21.4380 C.3   2002  TXA2002     0.2570
     21  O2'       -5.3380   23.7140   21.2980 O.3   2002  TXA2002    -0.2130
     22  C1'       -5.4100   21.6100   20.0850 C.3   2002  TXA2002     0.3186
     23  O4'       -4.1180   21.2920   19.6330 O.3   2002  TXA2002    -0.3135
     24  N9        -6.1480   20.3700   20.2170 N.pl3 2002  TXA2002    -0.1439
     25  C8        -5.6440   19.0930   20.3620 C.3   2002  TXA2002     0.3377
     26  N7        -6.6290   18.1990   20.4750 N.2   2002  TXA2002    -0.2095
     27  C5        -7.8050   18.8640   20.3710 C.2   2002  TXA2002     0.2526
     28  C6        -9.2370   18.4790   20.4230 C.2   2002  TXA2002     0.4393
     29  N6        -9.6080   17.1560   20.5140 N.pl3 2002  TXA2002     0.2180
     30  N1       -10.1310   19.4770   20.3480 N.2   2002  TXA2002     0.0021
     31  C2        -9.7870   20.7640   20.1720 C.3   2002  TXA2002     0.5254
     32  N3        -8.4850   21.1880   20.1160 N.2   2002  TXA2002    -0.0055
     33  C4        -7.4780   20.2980   20.2110 C.2   2002  TXA2002     0.3518
@<TRIPOS>BOND
     1     3     2   ar
     2     7     5    1
     3     2     1   ar
     4     2     4    1
     5     5     4    1
     6     5     6    1
     7     4     8    1
     8     8     9   am
     9    11     9    2
    10     9    10    1
    11    10    12    1
    12    23    22    1
    13    23    17    1
    14    14    12    2
    15    22    24    1
    16    22    20    1
    17    32    31    1
    18    32    33    2
    19    31    30    1
    20    33    24    1
    21    33    27    1
    22    24    25    1
    23    12    15    1
    24    12    13    1
    25    30    28    2
    26    25    26    1
    27    27    28    1
    28    27    26    2
    29    28    29    1
    30    17    16    1
    31    17    18    1
    32    16    15    1
    33    21    20    1
    34    20    18    1
    35    18    19    1
