@<TRIPOS>MOLECULE
4e1c_ADP_A_1.pdb
 27 29 0 0 0
SMALL
GASTEIGER

@<TRIPOS>ATOM
      1  PB        35.0590   86.6610    4.6050 P.3   401  ADP401      0.5373
      2  O1B       33.8700   85.7870    4.5640 O.3   401  ADP401     -0.1143
      3  O2B       36.3410   85.8090    4.3930 O.3   401  ADP401     -0.1143
      4  O3B       34.9730   87.7310    3.5090 O.2   401  ADP401     -0.2221
      5  PA        34.9360   86.7860    7.5260 P.3   401  ADP401      0.2231
      6  O1A       34.0200   85.6130    7.4870 O.2   401  ADP401     -0.5169
      7  O2A       36.3090   86.3630    8.0640 O.3   401  ADP401     -0.4370
      8  O3A       35.1270   87.3670    6.0420 O.3   401  ADP401     -0.2261
      9  O5'       34.3090   87.8960    8.4640 O.3   401  ADP401     -0.3111
     10  C5'       33.7780   89.1290    7.9660 C.3   401  ADP401      0.1813
     11  C4'       33.4640   90.0390    9.1280 C.3   401  ADP401      0.1821
     12  O4'       32.7100   89.3380   10.1440 O.3   401  ADP401     -0.3135
     13  C3'       34.6480   90.7060    9.8420 C.3   401  ADP401      0.2184
     14  O3'       34.4180   92.1080    9.8760 O.3   401  ADP401     -0.2174
     15  C2'       34.5890   90.1060   11.2470 C.3   401  ADP401      0.2570
     16  O2'       35.0760   90.9070   12.3090 O.3   401  ADP401     -0.2130
     17  C1'       33.0880   89.9080   11.3740 C.3   401  ADP401      0.3186
     18  N9        32.6660   89.0520   12.4730 N.pl3 401  ADP401     -0.1439
     19  C8        33.0430   87.7590   12.7300 C.3   401  ADP401      0.3377
     20  N7        32.4860   87.2570   13.8010 N.2   401  ADP401     -0.2095
     21  C5        31.6880   88.2780   14.2800 C.2   401  ADP401      0.2526
     22  C6        30.8090   88.3670   15.3750 C.2   401  ADP401      0.4393
     23  N6        30.6050   87.3620   16.2420 N.pl3 401  ADP401      0.2180
     24  N1        30.1490   89.5310   15.5650 N.2   401  ADP401      0.0021
     25  C2        30.3580   90.5400   14.7140 C.3   401  ADP401      0.5254
     26  N3        31.1630   90.5750   13.6500 N.2   401  ADP401     -0.0055
     27  C4        31.7990   89.4020   13.4810 C.2   401  ADP401      0.3518
@<TRIPOS>BOND
     1     4     1    2
     2     3     1    1
     3     2     1    1
     4     1     8    1
     5     8     5    1
     6     6     5    2
     7     5     7    1
     8     5     9    1
     9    10     9    1
    10    10    11    1
    11    11    13    1
    12    11    12    1
    13    13    14    1
    14    13    15    1
    15    12    17    1
    16    15    17    1
    17    15    16    1
    18    17    18    1
    19    18    19    1
    20    18    27    1
    21    19    20    1
    22    27    26    2
    23    27    21    1
    24    26    25    1
    25    20    21    2
    26    21    22    1
    27    25    24    1
    28    22    24    2
    29    22    23    1
