@<TRIPOS>MOLECULE
4e1d_ADP_A_1.pdb
 27 29 0 0 0
SMALL
GASTEIGER

@<TRIPOS>ATOM
      1  PB        34.0170   87.5770    4.1120 P.3   401  ADP401      0.5373
      2  O1B       34.9630   86.7440    3.3600 O.2   401  ADP401     -0.2221
      3  O2B       32.5980   87.0270    3.9500 O.3   401  ADP401     -0.1143
      4  O3B       34.0730   89.0170    3.6210 O.3   401  ADP401     -0.1143
      5  PA        35.7310   87.7420    6.5340 P.3   401  ADP401      0.2231
      6  O1A       36.2080   86.4630    7.1150 O.3   401  ADP401     -0.4370
      7  O2A       36.8480   88.3470    5.6390 O.2   401  ADP401     -0.5169
      8  O3A       34.4040   87.5100    5.6650 O.3   401  ADP401     -0.2261
      9  O5'       35.3830   88.7680    7.7020 O.3   401  ADP401     -0.3111
     10  C5'       34.1960   88.5220    8.4700 C.3   401  ADP401      0.1813
     11  C4'       33.8220   89.7630    9.2370 C.3   401  ADP401      0.1821
     12  O4'       32.8840   89.4290   10.2830 O.3   401  ADP401     -0.3135
     13  C3'       34.9660   90.5170    9.9130 C.3   401  ADP401      0.2184
     14  O3'       34.8590   91.9250    9.7290 O.3   401  ADP401     -0.2174
     15  C2'       34.8670   90.0550   11.3690 C.3   401  ADP401      0.2570
     16  O2'       35.3560   90.9960   12.3140 O.3   401  ADP401     -0.2130
     17  C1'       33.3640   89.9120   11.5210 C.3   401  ADP401      0.3186
     18  N9        32.9310   89.0000   12.5830 N.pl3 401  ADP401     -0.1439
     19  C8        33.3420   87.7130   12.7910 C.3   401  ADP401      0.3377
     20  N7        32.8000   87.1490   13.8480 N.2   401  ADP401     -0.2095
     21  C5        31.9710   88.1390   14.3630 C.2   401  ADP401      0.2526
     22  C6        31.1440   88.1920   15.5010 C.2   401  ADP401      0.4393
     23  N6        31.0500   87.2080   16.3850 N.pl3 401  ADP401      0.2180
     24  N1        30.4680   89.3440   15.7340 N.2   401  ADP401      0.0021
     25  C2        30.6280   90.3690   14.8830 C.3   401  ADP401      0.5254
     26  N3        31.3910   90.4420   13.7870 N.2   401  ADP401     -0.0055
     27  C4        32.0440   89.2880   13.5770 C.2   401  ADP401      0.3518
@<TRIPOS>BOND
     1     2     1    2
     2     4     1    1
     3     3     1    1
     4     1     8    1
     5     7     5    2
     6     8     5    1
     7     5     6    1
     8     5     9    1
     9     9    10    1
    10    10    11    1
    11    11    13    1
    12    11    12    1
    13    14    13    1
    14    13    15    1
    15    12    17    1
    16    15    17    1
    17    15    16    1
    18    17    18    1
    19    18    19    1
    20    18    27    1
    21    19    20    1
    22    27    26    2
    23    27    21    1
    24    26    25    1
    25    20    21    2
    26    21    22    1
    27    25    24    1
    28    22    24    2
    29    22    23    1
