@<TRIPOS>MOLECULE
4e1e_IPR_A_1.pdb
 14 13 0 0 0
SMALL
GASTEIGER

@<TRIPOS>ATOM
      1  P11       -5.4350  -11.9620  -22.8060 P.3   405  IPR405      0.5373
      2  O14       -6.1680  -10.6450  -22.8620 O.3   405  IPR405     -0.1143
      3  O12       -4.0910  -11.9110  -22.1100 O.3   405  IPR405     -0.1143
      4  O13       -5.4450  -12.6740  -24.1300 O.2   405  IPR405     -0.2221
      5  O10       -6.4210  -12.8900  -21.9260 O.3   405  IPR405     -0.2261
      6  P7        -6.2730  -13.3660  -20.3890 P.3   405  IPR405      0.2230
      7  O8        -4.9700  -12.8830  -19.8070 O.3   405  IPR405     -0.4370
      8  O9        -6.5570  -14.8390  -20.3580 O.2   405  IPR405     -0.5169
      9  O6        -7.5140  -12.6470  -19.6610 O.3   405  IPR405     -0.3135
     10  C5        -8.6880  -13.3750  -19.2520 C.3   405  IPR405      0.1535
     11  C4        -8.9170  -14.6830  -20.0300 C.3   405  IPR405      0.0545
     12  C2        -9.0140  -15.8900  -19.1000 C.2   405  IPR405     -0.0414
     13  C1        -9.5290  -15.7750  -17.6930 C.3   405  IPR405      0.0264
     14  C3        -8.6500  -17.0850  -19.5310 C.2   405  IPR405     -0.0090
@<TRIPOS>BOND
     1     4     1    2
     2     2     1    1
     3     1     3    1
     4     1     5    1
     5     5     6    1
     6     6     8    2
     7     6     7    1
     8     6     9    1
     9    11    10    1
    10    11    12    1
    11     9    10    1
    12    14    12    2
    13    12    13    1
