@<TRIPOS>MOLECULE
4e1e_0MW_A_1.pdb
 17 16 0 0 0
SMALL
GASTEIGER

@<TRIPOS>ATOM
      1  O1       -14.6310  -14.4680  -21.0800 O.2   404  0MW404     -0.4596
      2  P1       -13.4190  -14.7250  -20.2120 P.3   404  0MW404      0.1250
      3  O2       -13.5930  -14.2890  -18.7760 O.3   404  0MW404     -0.3568
      4  O3       -12.1350  -14.2480  -20.8480 O.3   404  0MW404     -0.3568
      5  C9       -13.3180  -16.5370  -20.2180 C.3   404  0MW404      0.1212
      6  P2       -14.3050  -17.1600  -18.8170 P.3   404  0MW404      0.1250
      7  O5       -13.9540  -16.3400  -17.6190 O.3   404  0MW404     -0.3568
      8  O4       -15.6960  -16.9050  -19.3320 O.2   404  0MW404     -0.4596
      9  O6       -13.9430  -18.6090  -18.6220 O.3   404  0MW404     -0.3568
     10  C8       -11.8620  -17.0010  -20.2220 C.3   404  0MW404      0.1032
     11  N1       -11.7030  -18.4570  -20.0460 N.3   404  0MW404     -0.2171
     12  C7       -11.5560  -19.1380  -21.3420 C.3   404  0MW404      0.0887
     13  C6       -12.3340  -20.4480  -21.2840 C.3   404  0MW404      0.0188
     14  C5       -11.6880  -21.5400  -22.1300 C.3   404  0MW404      0.0015
     15  C4       -12.4300  -21.6140  -23.4540 C.3   404  0MW404      0.0000
     16  C3       -12.3870  -23.0030  -24.0760 C.3   404  0MW404      0.0000
     17  C2       -13.2720  -23.0310  -25.3020 C.3   404  0MW404      0.0000
@<TRIPOS>BOND
     1    17    16    1
     2    16    15    1
     3    15    14    1
     4    14    13    1
     5    12    13    1
     6    12    11    1
     7     1     2    2
     8     4     2    1
     9    10     5    1
    10    10    11    1
    11     5     2    1
    12     5     6    1
    13     2     3    1
    14     8     6    2
    15     6     9    1
    16     6     7    1
