@<TRIPOS>MOLECULE
4e1f_ADP_A_1.pdb
 27 29 0 0 0
SMALL
GASTEIGER

@<TRIPOS>ATOM
      1  PB        35.8850   86.3930    3.5910 P.3   401  ADP401      0.5373
      2  O1B       37.0900   85.7570    4.2720 O.3   401  ADP401     -0.1143
      3  O2B       35.0410   85.2560    3.0070 O.3   401  ADP401     -0.1143
      4  O3B       36.4440   87.2320    2.3880 O.2   401  ADP401     -0.2221
      5  PA        35.4370   87.9060    6.0520 P.3   401  ADP401      0.2231
      6  O1A       35.9460   86.7440    6.8400 O.3   401  ADP401     -0.4370
      7  O2A       36.6000   88.8720    5.8090 O.2   401  ADP401     -0.5169
      8  O3A       35.0290   87.2850    4.6250 O.3   401  ADP401     -0.2261
      9  O5'       34.2970   88.6800    6.9400 O.3   401  ADP401     -0.3111
     10  C5'       34.4610   88.8570    8.3900 C.3   401  ADP401      0.1813
     11  C4'       33.8990   90.0600    9.1420 C.3   401  ADP401      0.1821
     12  O4'       32.9190   89.6230   10.1310 O.3   401  ADP401     -0.3135
     13  C3'       34.9000   90.9130    9.9450 C.3   401  ADP401      0.2184
     14  O3'       34.5840   92.3020   10.0020 O.3   401  ADP401     -0.2174
     15  C2'       34.7670   90.3470   11.3560 C.3   401  ADP401      0.2570
     16  O2'       35.2010   91.1570   12.4480 O.3   401  ADP401     -0.2130
     17  C1'       33.2700   90.1530   11.4040 C.3   401  ADP401      0.3186
     18  N9        32.7690   89.2960   12.4970 N.pl3 401  ADP401     -0.1439
     19  C8        33.1520   88.0130   12.7550 C.3   401  ADP401      0.3377
     20  N7        32.6280   87.5220   13.8580 N.2   401  ADP401     -0.2095
     21  C5        31.8330   88.5490   14.3340 C.2   401  ADP401      0.2526
     22  C6        30.9830   88.6590   15.4620 C.2   401  ADP401      0.4393
     23  N6        30.7490   87.6440   16.3140 N.pl3 401  ADP401      0.2180
     24  N1        30.3420   89.8350   15.6650 N.2   401  ADP401      0.0021
     25  C2        30.5310   90.8220   14.7800 C.3   401  ADP401      0.5254
     26  N3        31.2750   90.8190   13.6710 N.2   401  ADP401     -0.0055
     27  C4        31.9090   89.6570   13.5060 C.2   401  ADP401      0.3518
@<TRIPOS>BOND
     1     4     1    2
     2     3     1    1
     3     1     2    1
     4     1     8    1
     5     8     5    1
     6     7     5    2
     7     5     6    1
     8     5     9    1
     9     9    10    1
    10    10    11    1
    11    11    13    1
    12    11    12    1
    13    13    14    1
    14    13    15    1
    15    12    17    1
    16    15    17    1
    17    15    16    1
    18    17    18    1
    19    18    19    1
    20    18    27    1
    21    19    20    1
    22    27    26    2
    23    27    21    1
    24    26    25    1
    25    20    21    2
    26    21    22    1
    27    25    24    1
    28    22    24    2
    29    22    23    1
