@<TRIPOS>MOLECULE
4e1g_COH_A_1.pdb
 43 50 0 0 0
SMALL
GASTEIGER

@<TRIPOS>ATOM
      1 CO         26.1070   39.0990   73.0400 Co.oh 702  COH702      0.0000
      2  CHA       27.0640   36.3350   71.2900 C.2   702  COH702      0.0000
      3  CHB       23.5290   37.0120   74.7120 C.2   702  COH702      0.0000
      4  CHC       24.9710   41.7220   74.8390 C.2   702  COH702      0.0000
      5  CHD       28.9100   40.9210   71.9220 C.2   702  COH702      0.0000
      6  NA        25.4380   36.9520   73.0770 N.2   702  COH702      0.0000
      7  C1A       25.9060   36.1110   72.0610 C.2   702  COH702      0.0000
      8  C2A       24.9430   34.9890   71.9850 C.2   702  COH702      0.0000
      9  C3A       23.9870   35.1920   72.9230 C.2   702  COH702      0.0000
     10  C4A       24.2630   36.4350   73.6490 C.2   702  COH702      0.0000
     11  CMA       22.7940   34.2280   73.1600 C.3   702  COH702      0.0000
     12  CAA       24.9060   33.7400   71.0500 C.3   702  COH702      0.0000
     13  CBA       25.7590   33.8230   69.7880 C.3   702  COH702      0.0000
     14  CGA       27.1040   33.1740   70.0370 C.2   702  COH702      0.0000
     15  O1A       27.2650   32.4270   71.0450 O.co2 702  COH702      0.0000
     16  O2A       28.0310   33.4100   69.2190 O.co2 702  COH702      0.0000
     17  NB        24.5000   39.2610   74.6610 N.ar  702  COH702      0.0000
     18  C1B       23.4810   38.3780   74.9890 C.ar  702  COH702      0.0000
     19  C2B       22.4170   39.1680   75.5980 C.ar  702  COH702      0.0000
     20  C3B       22.8020   40.4680   75.6160 C.ar  702  COH702      0.0000
     21  C4B       24.1490   40.5630   75.0180 C.ar  702  COH702      0.0000
     22  CMB       21.0870   38.5800   76.1190 C.3   702  COH702      0.0000
     23  CAB       22.0210   41.6870   76.1760 C.2   702  COH702      0.0000
     24  CBB       20.6910   41.7290   76.2750 C.2   702  COH702      0.0000
     25  NC        26.8770   41.0380   73.3420 N.2   702  COH702      0.0000
     26  C1C       26.1720   41.9600   74.1100 C.2   702  COH702      0.0000
     27  C2C       26.9280   43.2170   73.9890 C.2   702  COH702      0.0000
     28  C3C       28.0050   43.0120   73.1900 C.2   702  COH702      0.0000
     29  C4C       28.0030   41.6140   72.7530 C.2   702  COH702      0.0000
     30  CMC       26.5300   44.5540   74.6640 C.3   702  COH702      0.0000
     31  CAC       29.0360   44.0840   72.7940 C.2   702  COH702      0.0000
     32  CBC       29.4830   44.0700   71.5490 C.2   702  COH702      0.0000
     33  ND        27.8610   38.6570   71.8220 N.ar  702  COH702      0.0000
     34  C1D       28.7110   39.6590   71.3220 C.ar  702  COH702      0.0000
     35  C2D       29.3130   39.1350   70.0960 C.ar  702  COH702      0.0000
     36  C3D       28.7210   37.7120   69.9260 C.ar  702  COH702      0.0000
     37  C4D       27.8160   37.4970   71.0440 C.ar  702  COH702      0.0000
     38  CMD       30.3300   39.8420   69.1680 C.3   702  COH702      0.0000
     39  CAD       28.9880   36.7100   68.7840 C.3   702  COH702      0.0000
     40  CBD       27.9000   36.9980   67.7470 C.3   702  COH702      0.0000
     41  CGD       27.7260   35.8830   66.7350 C.2   702  COH702      0.0000
     42  O1D       26.5800   35.6150   66.2680 O.co2 702  COH702      0.0000
     43  O2D       28.7570   35.2560   66.3900 O.co2 702  COH702      0.0000
@<TRIPOS>BOND
     1    42    41   ar
     2    43    41   ar
     3    41    40    1
     4    40    39    1
     5    39    36    1
     6    38    35    1
     7    16    14   ar
     8    13    14    1
     9    13    12    1
    10    36    35   ar
    11    36    37   ar
    12    14    15   ar
    13    35    34   ar
    14    37     2    2
    15    37    33   ar
    16    12     8    1
    17     2     7    1
    18    34    33   ar
    19    34     5    2
    20    32    31    2
    21    33     1    1
    22     5    29    1
    23     8     7    1
    24     8     9    2
    25     7     6    2
    26    29    28    1
    27    29    25    2
    28    31    28    1
    29     9    11    1
    30     9    10    1
    31     1     6    1
    32     1    25    1
    33     1    17    1
    34     6    10    1
    35    28    27    2
    36    25    26    1
    37    10     3    2
    38    27    26    1
    39    27    30    1
    40    26     4    2
    41    17    18   ar
    42    17    21   ar
    43     3    18    1
    44     4    21    1
    45    18    19   ar
    46    21    20   ar
    47    19    20   ar
    48    19    22    1
    49    20    23    1
    50    23    24    2
