@<TRIPOS>MOLECULE
4e1g_LNL_A_1.pdb
 20 19 0 0 0
SMALL
GASTEIGER

@<TRIPOS>ATOM
      1  O1        43.9380   53.3390   66.8080 O.co2 701  LNL701     -0.2457
      2  C1        42.7320   53.5180   67.1620 C.2   701  LNL701      0.3649
      3  O2        41.8330   54.0180   66.4580 O.co2 701  LNL701     -0.2457
      4  C2        42.3650   53.0920   68.5950 C.3   701  LNL701      0.1141
      5  C3        40.8770   52.8330   68.8580 C.3   701  LNL701      0.0118
      6  C4        40.4300   51.4340   68.4060 C.3   701  LNL701      0.0006
      7  C5        39.8740   50.5460   69.5510 C.3   701  LNL701      0.0000
      8  C6        39.4270   49.2680   68.7910 C.3   701  LNL701      0.0003
      9  C7        38.8450   48.0140   69.5570 C.3   701  LNL701      0.0047
     10  C8        37.7300   47.4710   68.6080 C.3   701  LNL701      0.0257
     11  C9        36.9640   48.7930   68.5150 C.2   701  LNL701     -0.0304
     12  C10       36.0890   49.2470   67.3590 C.2   701  LNL701     -0.0260
     13  C11       35.7340   48.2730   66.3290 C.3   701  LNL701      0.0513
     14  C12       34.3190   48.5180   65.9990 C.2   701  LNL701     -0.0257
     15  C13       33.8660   48.2530   64.5690 C.2   701  LNL701     -0.0257
     16  C14       34.8500   47.7910   63.5370 C.3   701  LNL701      0.0513
     17  C15       34.3580   48.1850   62.1380 C.2   701  LNL701     -0.0260
     18  C16       34.4900   47.3760   60.8260 C.2   701  LNL701     -0.0304
     19  C17       35.0650   46.0060   60.6850 C.3   701  LNL701      0.0257
     20  C18       34.0370   45.1440   59.9420 C.3   701  LNL701      0.0050
@<TRIPOS>BOND
     1    20    19    1
     2    19    18    1
     3    18    17    2
     4    17    16    1
     5    16    15    1
     6    15    14    2
     7    14    13    1
     8    13    12    1
     9     3     2   ar
    10     1     2   ar
    11     2     4    1
    12    12    11    2
    13     6     5    1
    14     6     7    1
    15    11    10    1
    16     4     5    1
    17    10     9    1
    18     8     7    1
    19     8     9    1
