@<TRIPOS>MOLECULE
4e1m_TQ2_A_1.pdb
 28 30 0 0 0
SMALL
GASTEIGER

@<TRIPOS>ATOM
      1  C01       24.3160   17.7770   -5.7660 C.ar  301  TQ2301      0.0320
      2  C02       24.8490   16.5400   -5.3740 C.ar  301  TQ2301      0.1303
      3  C03       26.2250   16.4280   -5.1080 C.ar  301  TQ2301      0.0261
      4  C04       27.0240   17.5950   -5.2590 C.ar  301  TQ2301      0.0022
      5  C05       26.4830   18.8210   -5.6570 C.ar  301  TQ2301      0.0002
      6  C06       25.1200   18.9070   -5.9140 C.ar  301  TQ2301      0.0026
      7  N07       24.0120   15.5040   -5.2550 N.2   301  TQ2301     -0.4101
      8  C08       24.4680   14.2850   -4.8770 C.2   301  TQ2301      0.0937
      9  C09       25.8220   14.0390   -4.5800 C.3   301  TQ2301      0.1087
     10  C10       26.7160   15.1400   -4.7000 C.2   301  TQ2301     -0.0108
     11  C11       23.3720   13.2580   -4.8090 C.3   301  TQ2301      0.0619
     12  C12       28.1540   14.9390   -4.4010 C.ar  301  TQ2301     -0.0038
     13  C13       26.3460   12.6600   -4.1730 C.3   301  TQ2301      0.2279
     14  O14       25.8530   11.6870   -5.0990 O.3   301  TQ2301     -0.3493
     15  C15       29.1240   14.9430   -5.4090 C.ar  301  TQ2301     -0.0006
     16  C16       30.4720   14.7290   -5.0960 C.ar  301  TQ2301     -0.0046
     17  C17       30.8780   14.5200   -3.7740 C.ar  301  TQ2301     -0.0258
     18  C18       29.9180   14.5100   -2.7510 C.ar  301  TQ2301     -0.0258
     19  C19       28.5670   14.7190   -3.0710 C.ar  301  TQ2301     -0.0049
     20  C20       32.3380   14.3120   -3.4720 C.3   301  TQ2301      0.0307
     21  C21       30.3120   14.2910   -1.3150 C.3   301  TQ2301      0.0307
     22  C22       26.5200   11.3790   -6.3330 C.3   301  TQ2301      0.0936
     23  C23       26.1620   12.5080   -7.3080 C.3   301  TQ2301      0.0296
     24  C24       28.0520   11.3200   -6.1600 C.3   301  TQ2301      0.0296
     25  C25       25.9840   10.0680   -6.9210 C.3   301  TQ2301      0.0296
     26  C26       25.8850   12.2250   -2.7940 C.2   301  TQ2301      0.3921
     27  O27       25.6970   11.0670   -2.4530 O.co2 301  TQ2301     -0.2429
     28  O28       25.6930   13.2790   -1.9720 O.co2 301  TQ2301     -0.2429
@<TRIPOS>BOND
     1    23    22    1
     2    25    22    1
     3    22    24    1
     4    22    14    1
     5     6     1   ar
     6     6     5   ar
     7     1     2   ar
     8     5     4   ar
     9    15    16   ar
    10    15    12   ar
    11     2     7    2
    12     2     3   ar
    13     4     3   ar
    14     7     8    2
    15     3    10    2
    16    14    13    1
    17    16    17   ar
    18     8    11    1
    19     8     9    1
    20    10     9    1
    21    10    12    1
    22     9    13    1
    23    12    19   ar
    24    13    26    1
    25    17    20    1
    26    17    18   ar
    27    19    18   ar
    28    26    27   ar
    29    26    28   ar
    30    18    21    1
