@<TRIPOS>MOLECULE
4e1n_TQX_A_1.pdb
 32 35 0 0 0
SMALL
GASTEIGER

@<TRIPOS>ATOM
      1  C01       -8.5250   50.1080  -16.6170 C.2   301  TQX301      0.0282
      2  C02       -9.3210   49.0140  -16.2390 C.2   301  TQX301      0.1163
      3  C03       -8.7280   47.7440  -16.0610 C.3   301  TQX301      0.0963
      4  C04       -7.3300   47.6190  -16.2840 C.2   301  TQX301     -0.0150
      5  C05       -6.5440   48.7200  -16.6590 C.2   301  TQX301     -0.0038
      6  C06       -7.1490   49.9690  -16.8240 C.2   301  TQX301      0.0020
      7  N07      -10.6360   49.2210  -16.0570 N.2   301  TQX301     -0.4101
      8  C08      -11.4500   48.2000  -15.6880 C.2   301  TQX301      0.1075
      9  C09      -10.9700   46.8880  -15.4940 C.2   301  TQX301      0.0377
     10  C10       -9.5830   46.6660  -15.6750 C.2   301  TQX301     -0.0110
     11  C11      -12.8940   48.6110  -15.5220 C.3   301  TQX301      0.0661
     12  C12       -9.0530   45.2890  -15.4710 C.ar  301  TQX301     -0.0052
     13  C13      -11.8590   45.7220  -15.0730 C.3   301  TQX301      0.2422
     14  O14      -13.0520   45.6110  -15.8470 O.3   301  TQX301     -0.3460
     15  C15       -9.0260   44.3960  -16.5610 C.ar  301  TQX301      0.0321
     16  C16       -8.5480   43.1060  -16.3960 C.ar  301  TQX301      0.1735
     17  C17       -8.1010   42.6550  -15.1590 C.ar  301  TQX301      0.1614
     18  C18       -8.1170   43.5090  -14.0520 C.ar  301  TQX301      0.0102
     19  C19       -8.5990   44.8400  -14.2000 C.ar  301  TQX301     -0.0230
     20  O20       -7.6580   41.3550  -15.1360 O.3   301  TQX301     -0.4735
     21  C21       -7.1870   40.7780  -13.9050 C.3   301  TQX301      0.2058
     22  C22       -7.5620   41.4810  -12.6160 C.3   301  TQX301      0.0521
     23  C23       -7.6150   43.0040  -12.7210 C.3   301  TQX301      0.0330
     24  C24       -8.6230   45.7770  -13.0100 C.3   301  TQX301      0.0308
     25  C25      -13.0760   44.9140  -17.1010 C.3   301  TQX301      0.0940
     26  C26      -14.5780   44.7940  -17.4420 C.3   301  TQX301      0.0297
     27  C27      -12.3760   45.7110  -18.1990 C.3   301  TQX301      0.0297
     28  C28      -12.4950   43.4900  -17.0000 C.3   301  TQX301      0.0297
     29  F29       -8.5320   42.2830  -17.4600 F     301  TQX301     -0.2010
     30  C30      -12.2920   45.9840  -13.6320 C.2   301  TQX301      0.3957
     31  O31      -11.6800   46.6580  -12.8070 O.co2 301  TQX301     -0.2426
     32  O32      -13.4760   45.3940  -13.3380 O.co2 301  TQX301     -0.2426
@<TRIPOS>BOND
     1    27    25    1
     2    29    16    1
     3    26    25    1
     4    25    28    1
     5    25    14    1
     6     6     5    1
     7     6     1    2
     8     5     4    2
     9     1     2    1
    10    15    16   ar
    11    15    12   ar
    12    16    17   ar
    13     4     3    1
    14     2     3    1
    15     2     7    2
    16     3    10    1
    17     7     8    2
    18    14    13    1
    19     8    11    1
    20     8     9    1
    21    10     9    2
    22    10    12    1
    23     9    13    1
    24    12    19   ar
    25    17    20    1
    26    17    18   ar
    27    20    21    1
    28    13    30    1
    29    19    18   ar
    30    19    24    1
    31    18    23    1
    32    21    22    1
    33    30    32   ar
    34    30    31   ar
    35    23    22    1
