@<TRIPOS>MOLECULE
4e1o_PVH_A_1.pdb
 12 12 0 0 0
SMALL
GASTEIGER

@<TRIPOS>ATOM
      1  N         42.4000  -43.1160    0.3390 N.3   1001  PVH1001    -0.1206
      2  CA        41.8700  -44.0950   -0.5920 C.3   1001  PVH1001     0.1956
      3  C         41.7120  -43.4270   -1.9510 C.2   1001  PVH1001     0.3350
      4  O         41.4700  -42.2320   -2.0820 O.2   1001  PVH1001    -0.2485
      5  CB        40.5390  -44.6050   -0.0500 C.3   1001  PVH1001     0.0738
      6  CG        40.7990  -45.6970    0.9430 C.2   1001  PVH1001     0.0651
      7  ND1       41.3750  -46.9190    0.6680 N.2   1001  PVH1001    -0.2310
      8  CD2       40.5430  -45.6770    2.2740 C.3   1001  PVH1001     0.1683
      9  CE1       41.4290  -47.6120    1.7920 C.2   1001  PVH1001     0.1939
     10  NE2       40.9500  -46.8880    2.7900 N.2   1001  PVH1001    -0.2440
     11  OE        41.8600  -44.2410   -3.1160 O.3   1001  PVH1001    -0.4434
     12  CM        41.6120  -43.6580   -4.4050 C.3   1001  PVH1001     0.2556
@<TRIPOS>BOND
     1    12    11    1
     2    11     3    1
     3     4     3    2
     4     3     2    1
     5     2     5    1
     6     2     1    1
     7     5     6    1
     8     7     6    2
     9     7     9    1
    10     6     8    1
    11     9    10    2
    12     8    10    1
