@<TRIPOS>MOLECULE
4e1o_PLP_A_1.pdb
 15 15 0 0 0
SMALL
GASTEIGER

@<TRIPOS>ATOM
      1  N1        46.2170  -40.2520    2.5990 N.ar  1000  PLP1000    -0.2452
      2  C2        46.6850  -41.0810    1.6040 C.ar  1000  PLP1000     0.0978
      3  C2A       48.1410  -41.0060    1.2290 C.3   1000  PLP1000     0.0555
      4  C3        45.8050  -41.9600    0.9790 C.ar  1000  PLP1000     0.2049
      5  O3        46.2380  -42.7820   -0.0180 O.3   1000  PLP1000    -0.2857
      6  C4        44.4660  -41.9990    1.3510 C.ar  1000  PLP1000     0.0182
      7  C4A       43.6080  -43.0220    0.6770 C.3   1000  PLP1000     0.0342
      8  C5        44.0000  -41.1540    2.3730 C.ar  1000  PLP1000     0.0261
      9  C6        44.8960  -40.2800    2.9790 C.ar  1000  PLP1000     0.0965
     10  C5A       42.5700  -41.1090    2.8780 C.3   1000  PLP1000     0.1815
     11  O4P       42.4440  -41.8800    4.0560 O.3   1000  PLP1000    -0.2653
     12  P         41.2830  -41.5510    5.1380 P.3   1000  PLP1000     0.5329
     13  O1P       41.5520  -42.3670    6.3790 O.3   1000  PLP1000    -0.1145
     14  O2P       41.3250  -40.0650    5.4490 O.3   1000  PLP1000    -0.1145
     15  O3P       39.9610  -41.9120    4.5230 O.2   1000  PLP1000    -0.2224
@<TRIPOS>BOND
     1     5     4    1
     2     7     6    1
     3     4     6   ar
     4     4     2   ar
     5     3     2    1
     6     6     8   ar
     7     2     1   ar
     8     8    10    1
     9     8     9   ar
    10     1     9   ar
    11    10    11    1
    12    11    12    1
    13    15    12    2
    14    12    14    1
    15    12    13    1
