@<TRIPOS>MOLECULE
4e1z_0MX_A_1.pdb
 34 38 0 0 0
SMALL
GASTEIGER

@<TRIPOS>ATOM
      1  C1        31.9500  -13.6710   27.3340 C.3   1201  0MX1201     0.0664
      2  N1        30.4020  -17.4520   28.0310 N.2   1201  0MX1201    -0.0339
      3  O1        35.4980   -7.9940   27.8920 O.2   1201  0MX1201    -0.1483
      4  S1        34.8510   -7.5930   26.6580 S.O2  1201  0MX1201     0.0928
      5 CL1        30.5300   -7.2960   29.4990 Cl    1201  0MX1201    -0.0822
      6  C2        30.5800  -13.8630   27.0530 C.2   1201  0MX1201    -0.0160
      7  N2        31.5440  -18.1480   28.4480 N.2   1201  0MX1201     0.0846
      8  O2        35.6770   -6.6130   26.0050 O.2   1201  0MX1201    -0.1483
      9  C3        29.9650  -15.1050   27.2710 C.2   1201  0MX1201     0.0193
     10  N3        33.8030  -17.7590   28.8160 N.am  1201  0MX1201     0.0413
     11  O3        35.1350  -15.9610   28.6480 O.2   1201  0MX1201    -0.2342
     12  C4        32.7150  -14.7810   27.7460 C.2   1201  0MX1201    -0.0084
     13  N4        34.6140   -8.8960   25.7370 N.pl3 1201  0MX1201    -0.0965
     14  O4        36.3200  -19.0940   29.1090 O.2   1201  0MX1201    -0.4433
     15  C5        32.1130  -16.0300   27.9680 C.2   1201  0MX1201     0.1064
     16  C6        30.7370  -16.1840   27.7360 C.2   1201  0MX1201     0.1344
     17  C7        32.5670  -17.2900   28.4030 C.2   1201  0MX1201     0.3967
     18  C8        32.6670  -12.3910   27.0070 C.ar  1201  0MX1201    -0.0143
     19  C9        32.1520  -11.5850   25.9740 C.ar  1201  0MX1201    -0.0023
     20  C10       32.7900  -10.4140   25.5600 C.ar  1201  0MX1201     0.0177
     21  C11       33.9940  -10.0370   26.1590 C.ar  1201  0MX1201     0.0910
     22  C12       34.5360  -10.8550   27.1760 C.ar  1201  0MX1201     0.0177
     23  C13       33.8920  -12.0250   27.5920 C.ar  1201  0MX1201    -0.0023
     24  C14       33.3810   -6.9770   26.9380 C.ar  1201  0MX1201     0.1279
     25  C15       32.8110   -6.0730   26.0300 C.ar  1201  0MX1201     0.0203
     26  C16       31.5210   -5.5730   26.2460 C.ar  1201  0MX1201     0.0022
     27  C17       30.7930   -5.9640   27.3660 C.ar  1201  0MX1201     0.0115
     28  C18       31.3470   -6.8490   28.2950 C.ar  1201  0MX1201     0.0590
     29  C19       32.6260   -7.3780   28.0580 C.ar  1201  0MX1201     0.0316
     30  C20       34.9980  -17.1330   28.9060 C.2   1201  0MX1201     0.4099
     31  C21       36.3030  -17.8280   29.1900 C.ar  1201  0MX1201     0.2270
     32  C22       37.7150  -19.5290   29.3340 C.ar  1201  0MX1201     0.1800
     33  C23       38.4440  -18.3630   29.4770 C.ar  1201  0MX1201     0.0440
     34  C24       37.5790  -17.2970   29.3580 C.ar  1201  0MX1201     0.0480
@<TRIPOS>BOND
     1    20    19   ar
     2    20    21   ar
     3    13    21    1
     4    13     4    1
     5    19    18   ar
     6     8     4    2
     7    25    26   ar
     8    25    24   ar
     9    21    22   ar
    10    26    27   ar
    11     4    24    1
    12     4     3    2
    13    24    29   ar
    14    18     1    1
    15    18    23   ar
    16     6     9    2
    17     6     1    1
    18    22    23   ar
    19     9    16    1
    20     1    12    1
    21    27    28   ar
    22    16    15    1
    23    16     2    2
    24    12    15    2
    25    15    17    1
    26     2     7    1
    27    29    28   ar
    28    28     5    1
    29    17     7    2
    30    17    10    1
    31    11    30    2
    32    10    30   am
    33    30    31    1
    34    14    31   ar
    35    14    32   ar
    36    31    34   ar
    37    32    33   ar
    38    34    33   ar
