@<TRIPOS>MOLECULE
4e20_0MY_A_1.pdb
 27 30 0 0 0
SMALL
GASTEIGER

@<TRIPOS>ATOM
      1  O2        35.3190   -5.9710   25.4640 O.2   1201  0MY1201    -0.1483
      2  S1        34.6170   -7.0020   26.2220 S.O2  1201  0MY1201     0.0928
      3  O1        35.3480   -7.2750   27.4410 O.2   1201  0MY1201    -0.1483
      4  C14       33.1050   -6.5290   26.5810 C.ar  1201  0MY1201     0.1279
      5  C17       32.4810   -6.9760   27.7630 C.ar  1201  0MY1201     0.0316
      6  C18       31.1560   -6.6210   28.0460 C.ar  1201  0MY1201     0.0590
      7 CL1        30.5260   -7.0430   29.3300 Cl    1201  0MY1201    -0.0822
      8  C19       30.4490   -5.8190   27.1440 C.ar  1201  0MY1201     0.0115
      9  C16       31.0380   -5.4210   25.9300 C.ar  1201  0MY1201     0.0022
     10  C15       32.3550   -5.7820   25.6530 C.ar  1201  0MY1201     0.0203
     11  N4        34.4830   -8.3890   25.3680 N.pl3 1201  0MY1201    -0.0965
     12  C11       33.8260   -9.5350   25.7740 C.ar  1201  0MY1201     0.0910
     13  C10       32.6870   -9.9940   25.0940 C.ar  1201  0MY1201     0.0177
     14  C9        32.0440  -11.1690   25.5190 C.ar  1201  0MY1201    -0.0023
     15  C12       34.2860  -10.2960   26.8710 C.ar  1201  0MY1201     0.0177
     16  C13       33.6410  -11.4690   27.3070 C.ar  1201  0MY1201    -0.0023
     17  C8        32.4820  -11.9010   26.6520 C.ar  1201  0MY1201    -0.0143
     18  C1        31.7620  -13.1780   26.9950 C.3   1201  0MY1201     0.0664
     19  C4        32.5520  -14.2960   27.3330 C.2   1201  0MY1201    -0.0083
     20  C6        31.9450  -15.5370   27.5700 C.2   1201  0MY1201     0.1106
     21  C5        32.4670  -16.7810   27.8970 C.2   1201  0MY1201     0.4416
     22  N3        33.8020  -17.0290   28.0980 N.pl3 1201  0MY1201     0.2188
     23  N2        31.5170  -17.7170   28.0110 N.2   1201  0MY1201     0.0889
     24  C7        30.5700  -15.7150   27.4520 C.2   1201  0MY1201     0.1346
     25  N1        30.3150  -17.0300   27.7230 N.2   1201  0MY1201    -0.0338
     26  C3        29.7660  -14.6140   27.1010 C.2   1201  0MY1201     0.0193
     27  C2        30.3640  -13.3610   26.8570 C.2   1201  0MY1201    -0.0160
@<TRIPOS>BOND
     1    13    14   ar
     2    13    12   ar
     3    11    12    1
     4    11     2    1
     5     1     2    2
     6    14    17   ar
     7    10     9   ar
     8    10     4   ar
     9    12    15   ar
    10     9     8   ar
    11     2     4    1
    12     2     3    2
    13     4     5   ar
    14    17    18    1
    15    17    16   ar
    16    27    18    1
    17    27    26    2
    18    15    16   ar
    19    18    19    1
    20    26    24    1
    21     8     6   ar
    22    19    20    2
    23    24    20    1
    24    24    25    2
    25    20    21    1
    26    25    23    1
    27     5     6   ar
    28    21    23    2
    29    21    22    1
    30     6     7    1
