@<TRIPOS>MOLECULE
4e26_734_A_1.pdb
 25 28 0 0 0
SMALL
GASTEIGER

@<TRIPOS>ATOM
      1  CAA       11.1030  -14.3780   -3.8870 C.ar  801  734801      0.0045
      2  CAB        9.3710  -19.0730   -0.8940 C.ar  801  734801      0.2112
      3  CAC        8.1430  -18.6520   -1.4750 C.ar  801  734801      0.0459
      4  CAD        7.2540  -19.6360   -2.0230 C.ar  801  734801      0.0125
      5  CAE        7.5850  -21.0190   -1.9940 C.ar  801  734801      0.0591
      6  CAF        6.3090  -16.9090   -1.3940 C.ar  801  734801      0.1469
      7  CAG        8.8240  -21.4300   -1.4070 C.ar  801  734801      0.0314
      8  CAH        9.2090  -22.7930   -1.3490 C.ar  801  734801      0.0040
      9  CAI       10.4420  -23.1490   -0.7630 C.ar  801  734801      0.0207
     10  CAJ       11.2780  -22.1420   -0.2390 C.ar  801  734801      0.0989
     11  CAK       11.7390  -14.0960   -2.6580 C.ar  801  734801      0.0208
     12  CAL        9.7130  -20.4450   -0.8580 C.ar  801  734801      0.1206
     13  CAM        7.8060  -17.1680   -1.5040 C.3   801  734801      0.1761
     14  CAN       11.2190  -14.6590   -1.4720 C.ar  801  734801      0.1004
     15  CAO        9.4700  -15.7610   -2.7060 C.ar  801  734801      0.1482
     16  CAP        9.9590  -15.2170   -3.9150 C.ar  801  734801      0.0358
     17  CAQ        5.6420  -16.3680   -0.5310 C.ar  801  734801      0.0383
     18  CAR        4.5370  -16.2840   -0.6570 C.ar  801  734801      0.0435
     19  CAS        3.9200  -16.7050   -1.6280 C.ar  801  734801      0.1792
     20  NAT        8.3620  -16.5750   -2.7270 N.pl3 801  734801     -0.2096
     21  NAU       10.1140  -15.4660   -1.5180 N.ar  801  734801     -0.2277
     22  NAV       10.9070  -20.8370   -0.2950 N.ar  801  734801     -0.2406
     23  OAW        5.1610  -17.2320   -2.3180 O.2   801  734801     -0.4526
     24  OAX       10.2340  -18.1590   -0.3690 O.3   801  734801     -0.2852
     25 CLAY        6.4270  -22.2160   -2.7030 Cl    801  734801     -0.0822
@<TRIPOS>BOND
     1    16     1   ar
     2    16    15   ar
     3     1    11   ar
     4    20    15    1
     5    20    13    1
     6    15    21   ar
     7    25     5    1
     8    11    14   ar
     9    23    19   ar
    10    23     6   ar
    11     4     5   ar
    12     4     3   ar
    13     5     7   ar
    14    19    18   ar
    15    21    14   ar
    16    13     3    1
    17    13     6    1
    18     3     2   ar
    19     7     8   ar
    20     7    12   ar
    21     6    17   ar
    22     8     9   ar
    23     2    12   ar
    24     2    24    1
    25    12    22   ar
    26     9    10   ar
    27    18    17   ar
    28    22    10   ar
