@<TRIPOS>MOLECULE
4e28_9MZ_A_1.pdb
 43 45 0 0 0
SMALL
GASTEIGER

@<TRIPOS>ATOM
      1  C2        55.7070  -17.4010   14.1400 C.ar  404  9MZ404     -0.0195
      2  C4        54.1740  -18.4410   12.6140 C.ar  404  9MZ404     -0.0609
      3  C5        53.1610  -18.3270   13.5500 C.ar  404  9MZ404     -0.0496
      4  C6        53.4270  -17.7480   14.7780 C.ar  404  9MZ404      0.0360
      5  F28       42.0950  -21.0230   10.5370 F     404  9MZ404     -0.1659
      6  C27       42.1100  -22.3160   10.8000 C.3   404  9MZ404      0.4175
      7  F30       42.1820  -22.9920    9.6660 F     404  9MZ404     -0.1659
      8  F29       41.0020  -22.6260   11.4500 F     404  9MZ404     -0.1659
      9  C25       43.2970  -22.6380   11.6600 C.ar  404  9MZ404      0.0566
     10  C26       44.1920  -21.6340   12.0100 C.ar  404  9MZ404     -0.0270
     11  C24       43.5110  -23.9440   12.0890 C.ar  404  9MZ404     -0.0500
     12  C23       44.6120  -24.2440   12.8830 C.ar  404  9MZ404     -0.0594
     13  C22       45.5030  -23.2400   13.2360 C.ar  404  9MZ404     -0.0386
     14  C21       45.2990  -21.9350   12.7970 C.ar  404  9MZ404      0.0572
     15  N18       46.2200  -20.9500   13.1830 N.am  404  9MZ404     -0.1809
     16  C17       46.3610  -19.7660   12.5870 C.2   404  9MZ404      0.2388
     17  O19       45.7210  -19.3790   11.6240 O.2   404  9MZ404     -0.2736
     18  C16       47.4180  -18.8740   13.1870 C.3   404  9MZ404      0.0535
     19  C13       47.1170  -18.6160   14.6590 C.3   404  9MZ404      0.1330
     20  C14       47.5640  -19.7390   15.5620 C.1   404  9MZ404      0.1858
     21  O20       47.0600  -20.8490   15.5380 O.2   404  9MZ404     -0.2136
     22  N15       48.5600  -19.3950   16.3880 N.2   404  9MZ404     -0.3106
     23  C11       49.0590  -18.2640   16.1460 C.2   404  9MZ404      0.2610
     24  S12       48.1010  -17.2790   15.2240 S.3   404  9MZ404     -0.0520
     25  N10       50.2850  -17.9280   16.5010 N.pl3 404  9MZ404     -0.0781
     26  N9        51.2040  -18.0580   15.5670 N.2   404  9MZ404     -0.1643
     27  C8        52.3550  -17.6230   15.7850 C.2   404  9MZ404      0.0583
     28  C3        55.4450  -17.9800   12.9100 C.ar  404  9MZ404     -0.0583
     29  C1        54.6940  -17.2840   15.0790 C.ar  404  9MZ404      0.1255
     30  O1        54.9490  -16.7220   16.2970 O.3   404  9MZ404     -0.5061
     31  H2        56.7030  -17.0420   14.3690 H     404  9MZ404      0.0654
     32  H4        53.9720  -18.8910   11.6500 H     404  9MZ404      0.0618
     33  H5        52.1650  -18.6860   13.3210 H     404  9MZ404      0.0625
     34  H26       44.0290  -20.6190   11.6700 H     404  9MZ404      0.0642
     35  H24       42.8130  -24.7250   11.8140 H     404  9MZ404      0.0623
     36  H23       44.7760  -25.2600   13.2210 H     404  9MZ404      0.0618
     37  H22       46.3630  -23.4730   13.8520 H     404  9MZ404      0.0637
     38 H161       47.4470  -17.9250   12.6470 H     404  9MZ404      0.0381
     39 H162       48.3960  -19.3480   13.0910 H     404  9MZ404      0.0381
     40  H13       46.0460  -18.4090   14.7980 H     404  9MZ404      0.0601
     41  H8        52.5750  -17.1680   16.7360 H     404  9MZ404      0.0853
     42  H3        56.2360  -18.0700   12.1750 H     404  9MZ404      0.0619
     43  HO1       55.8930  -16.5250   16.3700 H     404  9MZ404      0.2922
@<TRIPOS>BOND
     1     7     6    1
     2     5     6    1
     3     6     8    1
     4     6     9    1
     5    17    16    2
     6    32     2    1
     7     9    10   ar
     8     9    11   ar
     9    34    10    1
    10    35    11    1
    11    10    14   ar
    12    11    12   ar
    13    42    28    1
    14    16    15   am
    15    16    18    1
    16     2    28   ar
    17     2     3   ar
    18    38    18    1
    19    14    15    1
    20    14    13   ar
    21    12    36    1
    22    12    13   ar
    23    28     1   ar
    24    39    18    1
    25    18    19    1
    26    13    37    1
    27    33     3    1
    28     3     4   ar
    29     1    31    1
    30     1    29   ar
    31    19    40    1
    32    19    24    1
    33    19    20    1
    34     4    29   ar
    35     4    27    1
    36    29    30    1
    37    24    23    1
    38    21    20    2
    39    20    22    2
    40    26    27    2
    41    26    25    1
    42    27    41    1
    43    23    22    2
    44    23    25    1
    45    30    43    1
