@<TRIPOS>MOLECULE
4e28_0MZ_A_1.pdb
 44 46 0 0 0
SMALL
GASTEIGER

@<TRIPOS>ATOM
      1  F28       41.9450  -24.0440   12.2630 F     403  0MZ403     -0.1659
      2  C27       42.0530  -23.7340   10.9840 C.3   403  0MZ403      0.4175
      3  F30       40.9840  -23.0550   10.6100 F     403  0MZ403     -0.1659
      4  F29       42.1500  -24.8360   10.2650 F     403  0MZ403     -0.1659
      5  C25       43.2710  -22.8860   10.7730 C.ar  403  0MZ403      0.0566
      6  C26       43.8720  -22.2570   11.8560 C.ar  403  0MZ403     -0.0270
      7  C24       43.7940  -22.7210    9.4950 C.ar  403  0MZ403     -0.0500
      8  C23       44.9230  -21.9320    9.3020 C.ar  403  0MZ403     -0.0594
      9  C22       45.5230  -21.3020   10.3840 C.ar  403  0MZ403     -0.0386
     10  C21       45.0020  -21.4750   11.6600 C.ar  403  0MZ403      0.0572
     11  N18       45.5990  -20.8410   12.7510 N.am  403  0MZ403     -0.1810
     12  C17       46.4090  -21.5150   13.5610 C.2   403  0MZ403      0.2382
     13  O19       46.6870  -22.6940   13.4090 O.2   403  0MZ403     -0.2736
     14  C16       46.9860  -20.7290   14.7100 C.3   403  0MZ403      0.0478
     15  C13       47.3160  -19.3100   14.2640 C.3   403  0MZ403      0.1093
     16  C14       47.0130  -18.3490   15.3790 C.2   403  0MZ403      0.2561
     17  O20       45.7810  -18.0400   15.7460 O.2   403  0MZ403     -0.4861
     18  N15       48.0200  -17.8400   15.9590 N.2   403  0MZ403     -0.3465
     19  C11       49.1810  -18.0830   15.3640 C.2   403  0MZ403      0.2514
     20  S12       49.0460  -19.0880   14.0530 S.3   403  0MZ403     -0.0596
     21  N10       50.2730  -17.6120   15.7560 N.pl3 403  0MZ403     -0.0790
     22  N9        51.3940  -17.9730   14.9960 N.2   403  0MZ403     -0.1644
     23  C8        52.5640  -17.8560   15.4290 C.2   403  0MZ403      0.0583
     24  C6        53.6670  -18.2620   14.5340 C.ar  403  0MZ403      0.0360
     25  C5        53.3170  -18.7340   13.2790 C.ar  403  0MZ403     -0.0496
     26  C4        54.2970  -19.1340   12.3870 C.ar  403  0MZ403     -0.0609
     27  C3        55.6280  -19.0600   12.7510 C.ar  403  0MZ403     -0.0583
     28  C2        55.9780  -18.5880   14.0030 C.ar  403  0MZ403     -0.0195
     29  C1        55.0010  -18.1840   14.9020 C.ar  403  0MZ403      0.1255
     30  O1        55.3910  -17.7250   16.1280 O.3   403  0MZ403     -0.5061
     31  H26       43.4650  -22.3840   12.8510 H     403  0MZ403      0.0642
     32  H24       43.3240  -23.2100    8.6510 H     403  0MZ403      0.0623
     33  H23       45.3300  -21.8050    8.3060 H     403  0MZ403      0.0618
     34  H22       46.4040  -20.6900   10.2360 H     403  0MZ403      0.0637
     35 H161       47.8920  -21.2200   15.0720 H     403  0MZ403      0.0375
     36 H162       46.2670  -20.6980   15.5310 H     403  0MZ403      0.0375
     37  H13       46.7570  -19.0470   13.3540 H     403  0MZ403      0.0529
     38 HO20       45.8100  -17.4710   16.5270 H     403  0MZ403      0.2945
     39  H8        52.7580  -17.4790   16.4200 H     403  0MZ403      0.0853
     40  H5        52.2740  -18.7940   12.9970 H     403  0MZ403      0.0625
     41  H4        54.0210  -19.5040   11.4080 H     403  0MZ403      0.0618
     42  H3        56.3970  -19.3710   12.0540 H     403  0MZ403      0.0619
     43  H2        57.0230  -18.5300   14.2830 H     403  0MZ403      0.0654
     44  HO1       54.6180  -17.4080   16.6150 H     403  0MZ403      0.2922
@<TRIPOS>BOND
     1    33     8    1
     2    32     7    1
     3     8     7   ar
     4     8     9   ar
     5     7     5   ar
     6    34     9    1
     7     4     2    1
     8     9    10   ar
     9     3     2    1
    10     5     2    1
    11     5     6   ar
    12     2     1    1
    13    41    26    1
    14    10     6   ar
    15    10    11    1
    16     6    31    1
    17    42    27    1
    18    26    27   ar
    19    26    25   ar
    20    11    12   am
    21    27    28   ar
    22    40    25    1
    23    25    24   ar
    24    37    15    1
    25    13    12    2
    26    12    14    1
    27    28    43    1
    28    28    29   ar
    29    20    15    1
    30    20    19    1
    31    15    14    1
    32    15    16    1
    33    24    29   ar
    34    24    23    1
    35    14    35    1
    36    14    36    1
    37    29    30    1
    38    22    23    2
    39    22    21    1
    40    19    21    1
    41    19    18    2
    42    16    17    1
    43    16    18    2
    44    23    39    1
    45    17    38    1
    46    30    44    1
