@<TRIPOS>MOLECULE
4e2j_MOF_A_1.pdb
 35 39 0 0 0
SMALL
GASTEIGER

@<TRIPOS>ATOM
      1  O35      -26.3650   22.7370   14.5980 O.2   302  MOF302     -0.2866
      2  C34      -27.5650   23.0820   14.5650 C.2   302  MOF302      0.1948
      3  C33      -28.0900   23.6550   13.4090 C.2   302  MOF302      0.0378
      4  C32      -28.3660   22.8950   15.6840 C.2   302  MOF302      0.0339
      5  C29      -29.7080   23.2710   15.6740 C.2   302  MOF302     -0.0367
      6  C26      -30.5380   23.0550   16.9240 C.3   302  MOF302      0.0225
      7  C24      -30.3560   23.8960   14.4620 C.3   302  MOF302      0.0490
      8  C30      -29.4220   24.0590   13.3470 C.2   302  MOF302     -0.0185
      9  C31      -31.4150   22.9090   13.9670 C.3   302  MOF302      0.0097
     10  C19      -30.9080   25.2640   14.9170 C.3   302  MOF302      0.1016
     11 CL25      -29.5340   26.2200   15.5650 Cl    302  MOF302     -0.1130
     12  C15      -31.4830   26.1520   13.7890 C.3   302  MOF302      0.1664
     13  O21      -32.3740   25.4310   12.9260 O.3   302  MOF302     -0.2219
     14  C14      -31.8900   25.0710   16.0970 C.3   302  MOF302      0.0174
     15  C20      -31.2420   24.3610   17.2940 C.3   302  MOF302      0.0056
     16  C6       -32.4440   26.4360   16.5210 C.3   302  MOF302      0.0051
     17  C9       -33.3550   26.5200   17.7400 C.3   302  MOF302      0.0041
     18  C3       -34.0070   27.8950   17.5720 C.3   302  MOF302      0.0437
     19  C10      -33.7920   28.7710   18.8030 C.3   302  MOF302      0.0040
     20  C2       -33.1640   27.2120   15.4180 C.3   302  MOF302      0.0427
     21  C7       -32.1700   27.4430   14.2760 C.3   302  MOF302      0.0379
     22  C8       -34.4280   26.5060   14.8950 C.3   302  MOF302      0.0040
     23  C1       -33.5320   28.4730   16.2200 C.3   302  MOF302      0.1875
     24  C5       -34.5980   29.3380   15.5770 C.2   302  MOF302      0.2028
     25  O13      -35.7190   29.4020   16.0540 O.2   302  MOF302     -0.2911
     26  C12      -34.3050   30.1550   14.3370 C.3   302  MOF302      0.1626
     27 CL18      -35.7750   30.1810   13.3190 Cl    302  MOF302     -0.1051
     28  O4       -32.2980   29.2010   16.3560 O.3   302  MOF302     -0.4434
     29  C11      -32.0540   30.5360   16.8980 C.2   302  MOF302      0.3765
     30  O17      -32.9380   31.3740   17.0120 O.2   302  MOF302     -0.2414
     31  C16      -30.6580   30.8320   17.3100 C.ar  302  MOF302      0.2206
     32  C22      -29.4990   30.0890   17.2400 C.ar  302  MOF302      0.0475
     33  C27      -28.5080   30.8840   17.7770 C.ar  302  MOF302      0.0440
     34  C28      -29.0840   32.0800   18.1640 C.ar  302  MOF302      0.1799
     35  O23      -30.4350   32.0560   17.8670 O.2   302  MOF302     -0.4439
@<TRIPOS>BOND
     1    13    12    1
     2    27    26    1
     3     8     3    2
     4     8     7    1
     5     3     2    1
     6    12    21    1
     7    12    10    1
     8     9     7    1
     9    21    20    1
    10    26    24    1
    11     7    10    1
    12     7     5    1
    13     2     1    2
    14     2     4    1
    15    22    20    1
    16    10    11    1
    17    10    14    1
    18    20    23    1
    19    20    16    1
    20    24    25    2
    21    24    23    1
    22     5     4    2
    23     5     6    1
    24    14    16    1
    25    14    15    1
    26    23    28    1
    27    23    18    1
    28    28    29    1
    29    16    17    1
    30    29    30    2
    31    29    31    1
    32     6    15    1
    33    32    31   ar
    34    32    33   ar
    35    31    35   ar
    36    18    17    1
    37    18    19    1
    38    33    34   ar
    39    35    34   ar
