@<TRIPOS>MOLECULE
4e2w_SAH_A_1.pdb
 26 28 0 0 0
SMALL
GASTEIGER

@<TRIPOS>ATOM
      1  N         26.8420   21.0260    3.5430 N.3   505  SAH505     -0.1208
      2  CA        26.6900   19.5720    3.2820 C.3   505  SAH505      0.1952
      3  CB        25.7330   18.8090    4.1810 C.3   505  SAH505      0.0422
      4  CG        24.2320   18.9090    3.9550 C.3   505  SAH505      0.0597
      5  SD        23.4180   17.7930    5.0660 S.3   505  SAH505     -0.1375
      6  C         26.3410   19.3630    1.8320 C.2   505  SAH505      0.3819
      7  O         25.9210   20.3440    1.1930 O.co2 505  SAH505     -0.2441
      8  OXT       26.4380   18.2430    1.3280 O.co2 505  SAH505     -0.2441
      9  C5'       22.6790   18.9950    6.1420 C.3   505  SAH505      0.0899
     10  C4'       23.5310   19.0930    7.4110 C.3   505  SAH505      0.1630
     11  O4'       22.9380   20.1560    8.1730 O.3   505  SAH505     -0.3153
     12  C3'       23.3700   17.8340    8.2520 C.3   505  SAH505      0.2168
     13  O3'       24.6610   17.2340    8.4340 O.3   505  SAH505     -0.2175
     14  C2'       22.8020   18.3380    9.5700 C.3   505  SAH505      0.2569
     15  O2'       23.3030   17.6850   10.7380 O.3   505  SAH505     -0.2130
     16  C1'       23.2170   19.8090    9.5370 C.3   505  SAH505      0.3185
     17  N9        22.3700   20.7370   10.3410 N.pl3 505  SAH505     -0.1439
     18  C8        21.0530   20.7240   10.5480 C.3   505  SAH505      0.3377
     19  N7        20.6230   21.7780   11.2750 N.2   505  SAH505     -0.2095
     20  C5        21.7340   22.5420   11.5020 C.2   505  SAH505      0.2526
     21  C6        22.0100   23.7990   12.2140 C.2   505  SAH505      0.4393
     22  N6        21.0650   24.5140   12.8500 N.pl3 505  SAH505      0.2180
     23  N1        23.3070   24.1440   12.2130 N.2   505  SAH505      0.0021
     24  C2        24.3130   23.4820   11.6200 C.3   505  SAH505      0.5254
     25  N3        24.1510   22.3470   10.9430 N.2   505  SAH505     -0.0055
     26  C4        22.8770   21.8580   10.8750 C.2   505  SAH505      0.3518
@<TRIPOS>BOND
     1     7     6   ar
     2     8     6   ar
     3     6     2    1
     4     2     1    1
     5     2     3    1
     6     4     3    1
     7     4     5    1
     8     5     9    1
     9     9    10    1
    10    10    11    1
    11    10    12    1
    12    11    16    1
    13    12    13    1
    14    12    14    1
    15    16    14    1
    16    16    17    1
    17    14    15    1
    18    17    18    1
    19    17    26    1
    20    18    19    1
    21    26    25    2
    22    26    20    1
    23    25    24    1
    24    19    20    2
    25    20    21    1
    26    24    23    1
    27    23    21    2
    28    21    22    1
