@<TRIPOS>MOLECULE
4e2w_JHZ_A_1.pdb
 35 37 0 0 0
SMALL
GASTEIGER

@<TRIPOS>ATOM
      1  P         21.8790   12.8030   -2.5520 P.3   506  JHZ506      0.2189
      2  C1        20.5920   14.4380    1.3780 C.3   506  JHZ506      0.2423
      3  O1        19.6100   14.3680    0.3370 O.3   506  JHZ506     -0.2880
      4  C2        19.8810   14.8390    2.6860 C.3   506  JHZ506      0.0864
      5  P2        19.6950   13.1140   -0.6530 P.3   506  JHZ506      0.2207
      6  C3        19.9190   16.3780    2.5730 C.3   506  JHZ506      0.1352
      7  N3        18.6950   16.9610    3.1430 N.3   506  JHZ506     -0.1266
      8  C4        20.1510   17.0510    1.2160 C.2   506  JHZ506      0.1931
      9  O4        19.5480   18.0340    0.7950 O.2   506  JHZ506     -0.2921
     10  C5        21.2040   16.5460    0.2960 C.3   506  JHZ506      0.1761
     11  O5        21.6240   15.3460    0.9480 O.3   506  JHZ506     -0.3251
     12  C6        22.4570   17.4030    0.0910 C.3   506  JHZ506      0.0403
     13  C1X       24.0060    7.3470   -3.2140 C.3   506  JHZ506      0.2090
     14  N11       24.9830    7.3640   -4.3140 N.am  506  JHZ506     -0.1794
     15  O1P       23.2710   13.4530   -2.5330 O.3   506  JHZ506     -0.4371
     16  C2X       24.6190    8.0120   -1.9830 C.3   506  JHZ506      0.0874
     17  C21       25.4290    6.2030   -4.8150 C.1   506  JHZ506      0.2844
     18  O21       24.9530    5.1090   -4.4290 O.2   506  JHZ506     -0.1918
     19  O2P       21.1270   12.9380   -3.8600 O.2   506  JHZ506     -0.5170
     20  C3X       23.4780    8.7510   -1.3020 C.3   506  JHZ506      0.1857
     21  O3X       22.8220    7.8850   -0.3500 O.3   506  JHZ506     -0.2203
     22  N31       26.2930    6.2340   -5.8770 N.2   506  JHZ506     -0.2455
     23  C3M       21.1580   16.7850    3.3780 C.3   506  JHZ506      0.0269
     24  O3P       18.5690   13.0770   -1.6430 O.2   506  JHZ506     -0.5170
     25  C4X       22.5040    8.9640   -2.4580 C.3   506  JHZ506      0.1773
     26  O4X       22.8740    8.1450   -3.5500 O.3   506  JHZ506     -0.3339
     27  C41       26.8830    7.3520   -6.3450 C.1   506  JHZ506      0.2134
     28  O41       27.7010    7.2700   -7.2760 O.2   506  JHZ506     -0.2088
     29  O4P       19.8590   11.8660    0.1910 O.3   506  JHZ506     -0.4371
     30  C5X       22.5300   10.3140   -3.1440 C.3   506  JHZ506      0.1812
     31  O5X       21.9640   11.2300   -2.2080 O.3   506  JHZ506     -0.3112
     32  C51       26.4270    8.6680   -5.8240 C.2   506  JHZ506      0.0891
     33  C5A       26.9700    9.9960   -6.3120 C.3   506  JHZ506      0.0462
     34  C61       25.4930    8.5210   -4.7960 C.2   506  JHZ506      0.0877
     35  OPP       21.1470   13.4640   -1.2670 O.3   506  JHZ506     -0.2703
@<TRIPOS>BOND
     1    28    27    2
     2    27    22    2
     3    27    32    1
     4    33    32    1
     5    22    17    2
     6    32    34    2
     7    17    18    2
     8    17    14   am
     9    34    14    1
    10    14    13    1
    11    19     1    2
    12    26    13    1
    13    26    25    1
    14    13    16    1
    15    30    25    1
    16    30    31    1
    17     1    15    1
    18     1    31    1
    19     1    35    1
    20    25    20    1
    21    16    20    1
    22    24     5    2
    23    20    21    1
    24    35     5    1
    25     5    29    1
    26     5     3    1
    27    12    10    1
    28    10    11    1
    29    10     8    1
    30     3     2    1
    31     9     8    2
    32    11     2    1
    33     8     6    1
    34     2     4    1
    35     6     4    1
    36     6     7    1
    37     6    23    1
