@<TRIPOS>MOLECULE
4e2x_SAH_A_1.pdb
 26 28 0 0 0
SMALL
GASTEIGER

@<TRIPOS>ATOM
      1  N        -26.8340   20.8390   -3.5770 N.3   506  SAH506     -0.1208
      2  CA       -26.6130   19.3960   -3.2910 C.3   506  SAH506      0.1952
      3  CB       -25.6160   18.7040   -4.2120 C.3   506  SAH506      0.0422
      4  CG       -24.1440   18.9110   -3.8510 C.3   506  SAH506      0.0597
      5  SD       -23.1570   17.9330   -4.9590 S.3   506  SAH506     -0.1375
      6  C        -26.3020   19.3030   -1.8320 C.2   506  SAH506      0.3819
      7  O        -26.3760   18.1780   -1.3560 O.co2 506  SAH506     -0.2441
      8  OXT      -25.9380   20.2620   -1.1370 O.co2 506  SAH506     -0.2441
      9  C5'      -22.5980   19.0740   -6.1990 C.3   506  SAH506      0.0899
     10  C4'      -23.4730   19.0460   -7.4550 C.3   506  SAH506      0.1630
     11  O4'      -23.0580   20.1880   -8.2200 O.3   506  SAH506     -0.3153
     12  C3'      -23.3960   17.7260   -8.2490 C.3   506  SAH506      0.2168
     13  O3'      -24.7660   17.3020   -8.3400 O.3   506  SAH506     -0.2175
     14  C2'      -22.8750   18.2820   -9.5680 C.3   506  SAH506      0.2569
     15  O2'      -23.2590   17.5770  -10.7580 O.3   506  SAH506     -0.2130
     16  C1'      -23.3490   19.7270   -9.5590 C.3   506  SAH506      0.3185
     17  N9       -22.4830   20.6130  -10.3430 N.pl3 506  SAH506     -0.1439
     18  C8       -21.1540   20.5940  -10.5290 C.3   506  SAH506      0.3377
     19  N7       -20.6690   21.6090  -11.3060 N.2   506  SAH506     -0.2095
     20  C5       -21.7710   22.3900  -11.5500 C.2   506  SAH506      0.2526
     21  C6       -22.0670   23.6360  -12.2750 C.2   506  SAH506      0.4393
     22  N6       -21.0980   24.3330  -12.9120 N.pl3 506  SAH506      0.2180
     23  N1       -23.3650   24.0030  -12.2870 N.2   506  SAH506      0.0021
     24  C2       -24.3800   23.3480  -11.6720 C.3   506  SAH506      0.5254
     25  N3       -24.2300   22.1880  -11.0000 N.2   506  SAH506     -0.0055
     26  C4       -22.9470   21.7370  -10.9360 C.2   506  SAH506      0.3518
@<TRIPOS>BOND
     1    22    21    1
     2    23    21    2
     3    23    24    1
     4    21    20    1
     5    24    25    1
     6    20    19    2
     7    20    26    1
     8    19    18    1
     9    25    26    2
    10    26    17    1
    11    15    14    1
    12    18    17    1
    13    17    16    1
    14    14    16    1
    15    14    12    1
    16    16    11    1
    17    13    12    1
    18    12    10    1
    19    11    10    1
    20    10     9    1
    21     9     5    1
    22     5     4    1
    23     3     4    1
    24     3     2    1
    25     1     2    1
    26     2     6    1
    27     6     7   ar
    28     6     8   ar
