@<TRIPOS>MOLECULE
4e2x_TYD_A_1.pdb
 25 26 0 0 0
SMALL
GASTEIGER

@<TRIPOS>ATOM
      1  PA       -21.8700   12.5960    2.9020 P.3   507  TYD507      0.2231
      2  O1A      -23.2500   13.1700    2.8040 O.2   507  TYD507     -0.5169
      3  O2A      -21.2060   12.7180    4.2490 O.3   507  TYD507     -0.4370
      4  O3A      -21.0880   13.2450    1.6490 O.3   507  TYD507     -0.2261
      5  PB       -19.6710   12.8150    0.9780 P.3   507  TYD507      0.5373
      6  O1B      -19.8590   11.7160   -0.0290 O.2   507  TYD507     -0.2221
      7  O2B      -18.6040   12.5880    2.0080 O.3   507  TYD507     -0.1143
      8  O3B      -19.3890   14.1800    0.3640 O.3   507  TYD507     -0.1143
      9  O5'      -21.9270   11.0490    2.5160 O.3   507  TYD507     -0.3111
     10  C5'      -22.5720   10.1610    3.4080 C.3   507  TYD507      0.1812
     11  C4'      -22.5640    8.8040    2.7270 C.3   507  TYD507      0.1773
     12  O4'      -23.0030    7.9840    3.7830 O.3   507  TYD507     -0.3339
     13  C3'      -23.4800    8.6100    1.5270 C.3   507  TYD507      0.1857
     14  O3'      -22.8590    7.7430    0.5710 O.3   507  TYD507     -0.2203
     15  C2'      -24.6790    7.9310    2.1620 C.3   507  TYD507      0.0874
     16  C1'      -24.1710    7.2410    3.4330 C.3   507  TYD507      0.2090
     17  N1       -25.1270    7.2980    4.5550 N.am  507  TYD507     -0.1794
     18  C2       -25.6040    6.0960    5.0950 C.1   507  TYD507      0.2844
     19  O2       -25.1690    5.0220    4.6360 O.2   507  TYD507     -0.1918
     20  N3       -26.4920    6.0880    6.0970 N.2   507  TYD507     -0.2455
     21  C4       -27.0120    7.2200    6.5780 C.1   507  TYD507      0.2134
     22  O4       -27.8260    7.2230    7.5340 O.2   507  TYD507     -0.2088
     23  C5       -26.5270    8.5190    6.0500 C.2   507  TYD507      0.0891
     24  C5M      -27.0560    9.8230    6.6020 C.3   507  TYD507      0.0462
     25  C6       -25.5910    8.4750    5.0150 C.2   507  TYD507      0.0877
@<TRIPOS>BOND
     1     6     5    2
     2     8     5    1
     3    14    13    1
     4     5     4    1
     5     5     7    1
     6    13    15    1
     7    13    11    1
     8     4     1    1
     9    15    16    1
    10     9     1    1
    11     9    10    1
    12    11    10    1
    13    11    12    1
    14     2     1    2
    15     1     3    1
    16    16    12    1
    17    16    17    1
    18    17    25    1
    19    17    18   am
    20    19    18    2
    21    25    23    2
    22    18    20    2
    23    23    21    1
    24    23    24    1
    25    20    21    2
    26    21    22    2
