@<TRIPOS>MOLECULE
4e2y_SAH_A_1.pdb
 26 28 0 0 0
SMALL
GASTEIGER

@<TRIPOS>ATOM
      1  N         27.0510   20.9450    3.8050 N.3   502  SAH502     -0.1208
      2  CA        26.9550   19.4870    3.5160 C.3   502  SAH502      0.1952
      3  CB        25.9060   18.7870    4.3780 C.3   502  SAH502      0.0422
      4  CG        24.4490   19.0010    3.9860 C.3   502  SAH502      0.0597
      5  SD        23.3890   18.0080    5.0120 S.3   502  SAH502     -0.1375
      6  C         26.6330   19.3140    2.0600 C.2   502  SAH502      0.3819
      7  O         26.2860   20.3190    1.4370 O.co2 502  SAH502     -0.2441
      8  OXT       26.6010   18.2160    1.4990 O.co2 502  SAH502     -0.2441
      9  C5'       22.7280   19.1360    6.2070 C.3   502  SAH502      0.0899
     10  C4'       23.6920   19.1360    7.3980 C.3   502  SAH502      0.1630
     11  O4'       23.2930   20.1850    8.2970 O.3   502  SAH502     -0.3153
     12  C3'       23.7670   17.8700    8.2580 C.3   502  SAH502      0.2168
     13  O3'       25.1080   17.3720    8.4740 O.3   502  SAH502     -0.2175
     14  C2'       23.1380   18.3280    9.5670 C.3   502  SAH502      0.2569
     15  O2'       23.5100   17.6040   10.7460 O.3   502  SAH502     -0.2130
     16  C1'       23.5440   19.7890    9.6480 C.3   502  SAH502      0.3185
     17  N9        22.6610   20.6730   10.4680 N.pl3 502  SAH502     -0.1439
     18  C8        21.3390   20.5840   10.7350 C.3   502  SAH502      0.3377
     19  N7        20.9160   21.6610   11.4540 N.2   502  SAH502     -0.2095
     20  C5        22.0030   22.4410   11.7140 C.2   502  SAH502      0.2526
     21  C6        22.3120   23.7220   12.4030 C.2   502  SAH502      0.4393
     22  N6        21.3290   24.3660   13.0640 N.pl3 502  SAH502      0.2180
     23  N1        23.6000   24.1550   12.4090 N.2   502  SAH502      0.0021
     24  C2        24.5460   23.4980   11.7330 C.3   502  SAH502      0.5254
     25  N3        24.3780   22.3430   11.0550 N.2   502  SAH502     -0.0055
     26  C4        23.1420   21.7840   11.0310 C.2   502  SAH502      0.3518
@<TRIPOS>BOND
     1     7     6   ar
     2     8     6   ar
     3     6     2    1
     4     2     1    1
     5     2     3    1
     6     4     3    1
     7     4     5    1
     8     5     9    1
     9     9    10    1
    10    10    12    1
    11    10    11    1
    12    12    13    1
    13    12    14    1
    14    11    16    1
    15    14    16    1
    16    14    15    1
    17    16    17    1
    18    17    18    1
    19    17    26    1
    20    18    19    1
    21    26    25    2
    22    26    20    1
    23    25    24    1
    24    19    20    2
    25    20    21    1
    26    24    23    1
    27    21    23    2
    28    21    22    1
