@<TRIPOS>MOLECULE
4e2y_JHZ_A_1.pdb
 35 37 0 0 0
SMALL
GASTEIGER

@<TRIPOS>ATOM
      1  P         22.0580   12.5830   -2.9270 P.3   503  JHZ503      0.2189
      2  C1        20.7250   14.2290    1.0570 C.3   503  JHZ503      0.2423
      3  O1        19.7800   14.0520    0.0020 O.3   503  JHZ503     -0.2880
      4  C2        20.0250   14.6490    2.3470 C.3   503  JHZ503      0.0864
      5  P2        19.9110   12.7820   -0.9440 P.3   503  JHZ503      0.2207
      6  C3        20.4000   16.0720    2.7600 C.3   503  JHZ503      0.1352
      7  N3        19.3130   16.4830    3.6480 N.3   503  JHZ503     -0.1266
      8  C4        20.5600   16.9740    1.5540 C.2   503  JHZ503      0.1931
      9  O4        20.0270   18.0780    1.5150 O.2   503  JHZ503     -0.2921
     10  C5        21.3090   16.5000    0.3400 C.3   503  JHZ503      0.1761
     11  O5        21.7110   15.1740    0.6440 O.3   503  JHZ503     -0.3251
     12  C6        22.6580   17.1850    0.1130 C.3   503  JHZ503      0.0403
     13  C1X       24.0510    7.0970   -3.3530 C.3   503  JHZ503      0.2090
     14  N11       25.0260    7.0940   -4.4440 N.am  503  JHZ503     -0.1794
     15  O1P       23.4640   13.1210   -2.8230 O.3   503  JHZ503     -0.4371
     16  C2X       24.7010    7.6840   -2.1020 C.3   503  JHZ503      0.0874
     17  C21       25.4300    5.9170   -4.9490 C.1   503  JHZ503      0.2844
     18  O21       24.9190    4.8330   -4.5820 O.2   503  JHZ503     -0.1918
     19  O2P       21.2570   12.7440   -4.2040 O.2   503  JHZ503     -0.5170
     20  C3X       23.5690    8.3870   -1.3650 C.3   503  JHZ503      0.1857
     21  O3X       22.8630    7.4100   -0.5730 O.3   503  JHZ503     -0.2203
     22  N31       26.3220    5.8910   -5.9670 N.2   503  JHZ503     -0.2455
     23  C3M       21.6690   16.0060    3.5920 C.3   503  JHZ503      0.0269
     24  O3P       18.7450   12.8530   -1.9170 O.2   503  JHZ503     -0.5170
     25  C4X       22.5890    8.7320   -2.4780 C.3   503  JHZ503      0.1773
     26  O4X       22.9860    7.9950   -3.6240 O.3   503  JHZ503     -0.3339
     27  C41       26.9120    7.0180   -6.4180 C.1   503  JHZ503      0.2134
     28  O41       27.7680    7.0190   -7.3380 O.2   503  JHZ503     -0.2088
     29  O4P       20.0930   11.4940   -0.1830 O.3   503  JHZ503     -0.4371
     30  C5X       22.7730   10.0170   -3.2690 C.3   503  JHZ503      0.1812
     31  O5X       22.1300   11.0280   -2.5440 O.3   503  JHZ503     -0.3112
     32  C51       26.4690    8.3120   -5.8660 C.2   503  JHZ503      0.0891
     33  C5A       27.0940    9.5970   -6.3480 C.3   503  JHZ503      0.0462
     34  C61       25.5360    8.2790   -4.8340 C.2   503  JHZ503      0.0877
     35  OPP       21.3760   13.0010   -1.5570 O.3   503  JHZ503     -0.2703
@<TRIPOS>BOND
     1    28    27    2
     2    27    22    2
     3    27    32    1
     4    33    32    1
     5    22    17    2
     6    32    34    2
     7    17    18    2
     8    17    14   am
     9    34    14    1
    10    14    13    1
    11    19     1    2
    12    26    13    1
    13    26    25    1
    14    13    16    1
    15    30    31    1
    16    30    25    1
    17     1    15    1
    18     1    31    1
    19     1    35    1
    20    25    20    1
    21    16    20    1
    22    24     5    2
    23    35     5    1
    24    20    21    1
    25     5    29    1
    26     5     3    1
    27     3     2    1
    28    12    10    1
    29    10    11    1
    30    10     8    1
    31    11     2    1
    32     2     4    1
    33     9     8    2
    34     8     6    1
    35     4     6    1
    36     6    23    1
    37     6     7    1
