@<TRIPOS>MOLECULE
4e2z_JHZ_A_1.pdb
 35 37 0 0 0
SMALL
GASTEIGER

@<TRIPOS>ATOM
      1  P         28.7790  -12.7010   -2.6480 P.3   504  JHZ504      0.2189
      2  C1        30.0860  -14.3900    1.3640 C.3   504  JHZ504      0.2423
      3  O1        31.0780  -14.2490    0.3380 O.3   504  JHZ504     -0.2880
      4  C2        30.7230  -14.8850    2.6670 C.3   504  JHZ504      0.0864
      5  P2        31.0090  -12.9820   -0.6260 P.3   504  JHZ504      0.2207
      6  C3        30.7150  -16.4240    2.6710 C.3   504  JHZ504      0.1352
      7  N3        31.9050  -16.9260    3.3770 N.3   504  JHZ504     -0.1266
      8  C4        30.4970  -17.0550    1.3080 C.2   504  JHZ504      0.1931
      9  O4        31.1510  -18.0270    0.9420 O.2   504  JHZ504     -0.2921
     10  C5        29.5000  -16.4930    0.3340 C.3   504  JHZ504      0.1761
     11  O5        29.0510  -15.2720    0.9130 O.3   504  JHZ504     -0.3251
     12  C6        28.2490  -17.3520    0.1320 C.3   504  JHZ504      0.0403
     13  C1X       26.5950   -7.2810   -3.3320 C.3   504  JHZ504      0.2090
     14  N11       25.5960   -7.3220   -4.4080 N.am  504  JHZ504     -0.1794
     15  O1P       27.3420  -13.2150   -2.6860 O.3   504  JHZ504     -0.4371
     16  C2X       26.0130   -7.9960   -2.1180 C.3   504  JHZ504      0.0874
     17  C21       25.1870   -6.1430   -4.9020 C.1   504  JHZ504      0.2844
     18  O21       25.5810   -5.0120   -4.5460 O.2   504  JHZ504     -0.1918
     19  O2P       29.5940  -12.8380   -3.8940 O.2   504  JHZ504     -0.5170
     20  C3X       27.2120   -8.6490   -1.4460 C.3   504  JHZ504      0.1857
     21  O3X       27.7860   -7.7620   -0.4510 O.3   504  JHZ504     -0.2203
     22  N31       24.2770   -6.1310   -5.9320 N.2   504  JHZ504     -0.2455
     23  C3M       29.5610  -16.9350    3.5480 C.3   504  JHZ504      0.0269
     24  O3P       32.1520  -13.0590   -1.6050 O.2   504  JHZ504     -0.5170
     25  C4X       28.1760   -8.8990   -2.5970 C.3   504  JHZ504      0.1773
     26  O4X       27.7730   -8.0330   -3.6410 O.3   504  JHZ504     -0.3339
     27  C41       23.7290   -7.2800   -6.3820 C.1   504  JHZ504      0.2134
     28  O41       22.8950   -7.2610   -7.3260 O.2   504  JHZ504     -0.2088
     29  O4P       30.8180  -11.6980    0.1150 O.3   504  JHZ504     -0.4371
     30  C5X       28.1020  -10.2830   -3.2390 C.3   504  JHZ504      0.1812
     31  O5X       28.7100  -11.1480   -2.2930 O.3   504  JHZ504     -0.3112
     32  C51       24.2070   -8.5870   -5.8670 C.2   504  JHZ504      0.0891
     33  C5A       23.6820   -9.9080   -6.3590 C.3   504  JHZ504      0.0462
     34  C61       25.1630   -8.5220   -4.8540 C.2   504  JHZ504      0.0877
     35  OPP       29.6350  -13.2550   -1.4060 O.3   504  JHZ504     -0.2703
@<TRIPOS>BOND
     1    28    27    2
     2    27    22    2
     3    27    32    1
     4    33    32    1
     5    22    17    2
     6    32    34    2
     7    17    18    2
     8    17    14   am
     9    34    14    1
    10    14    13    1
    11    19     1    2
    12    26    13    1
    13    26    25    1
    14    13    16    1
    15    30    25    1
    16    30    31    1
    17    15     1    1
    18     1    31    1
    19     1    35    1
    20    25    20    1
    21    16    20    1
    22    24     5    2
    23    20    21    1
    24    35     5    1
    25     5    29    1
    26     5     3    1
    27    12    10    1
    28    10    11    1
    29    10     8    1
    30     3     2    1
    31    11     2    1
    32     9     8    2
    33     8     6    1
    34     2     4    1
    35     4     6    1
    36     6     7    1
    37     6    23    1
