@<TRIPOS>MOLECULE
4e2z_SAH_A_1.pdb
 26 28 0 0 0
SMALL
GASTEIGER

@<TRIPOS>ATOM
      1  N         23.8650  -20.9280    3.6620 N.3   503  SAH503     -0.1208
      2  CA        24.0340  -19.4610    3.4020 C.3   503  SAH503      0.1952
      3  CB        25.0650  -18.9750    4.4190 C.3   503  SAH503      0.0422
      4  CG        26.3240  -18.3280    3.8850 C.3   503  SAH503      0.0597
      5  SD        27.0440  -17.5150    5.2790 S.3   503  SAH503     -0.1375
      6  C         24.3090  -19.3010    1.9330 C.2   503  SAH503      0.3819
      7  O         24.6880  -20.2770    1.2780 O.co2 503  SAH503     -0.2441
      8  OXT       24.2130  -18.1960    1.4200 O.co2 503  SAH503     -0.2441
      9  C5'       27.8920  -18.7470    6.2340 C.3   503  SAH503      0.0899
     10  C4'       27.1360  -18.9090    7.5580 C.3   503  SAH503      0.1630
     11  O4'       27.7860  -19.9620    8.2760 O.3   503  SAH503     -0.3153
     12  C3'       27.2100  -17.6380    8.4170 C.3   503  SAH503      0.2168
     13  O3'       25.8570  -17.1570    8.5720 O.3   503  SAH503     -0.2175
     14  C2'       27.7900  -18.1400    9.7460 C.3   503  SAH503      0.2569
     15  O2'       27.3820  -17.5750   11.0110 O.3   503  SAH503     -0.2130
     16  C1'       27.4640  -19.6290    9.6480 C.3   503  SAH503      0.3185
     17  N9        28.3260  -20.5410   10.4500 N.pl3 503  SAH503     -0.1439
     18  C8        29.6660  -20.5150   10.7060 C.3   503  SAH503      0.3377
     19  N7        30.1200  -21.5920   11.3800 N.2   503  SAH503     -0.2095
     20  C5        29.0160  -22.3510   11.6480 C.2   503  SAH503      0.2526
     21  C6        28.7730  -23.6430   12.3150 C.2   503  SAH503      0.4393
     22  N6        29.7490  -24.3370   12.9390 N.pl3 503  SAH503      0.2180
     23  N1        27.4570  -23.9610   12.3330 N.2   503  SAH503      0.0021
     24  C2        26.4250  -23.3360   11.7210 C.3   503  SAH503      0.5254
     25  N3        26.5860  -22.1720   11.0810 N.2   503  SAH503     -0.0055
     26  C4        27.8670  -21.6950   10.9870 C.2   503  SAH503      0.3518
@<TRIPOS>BOND
     1     7     6   ar
     2     8     6   ar
     3     6     2    1
     4     2     1    1
     5     2     3    1
     6     4     3    1
     7     4     5    1
     8     5     9    1
     9     9    10    1
    10    10    11    1
    11    10    12    1
    12    11    16    1
    13    12    13    1
    14    12    14    1
    15    16    14    1
    16    16    17    1
    17    14    15    1
    18    17    18    1
    19    17    26    1
    20    18    19    1
    21    26    25    2
    22    26    20    1
    23    25    24    1
    24    19    20    2
    25    20    21    1
    26    24    23    1
    27    21    23    2
    28    21    22    1
