@<TRIPOS>MOLECULE
4e30_TYD_A_1.pdb
 25 26 0 0 0
SMALL
GASTEIGER

@<TRIPOS>ATOM
      1  PA        21.7800   12.7770   -2.6170 P.3   503  TYD503      0.2231
      2  O1A       21.0610   12.9400   -3.9280 O.2   503  TYD503     -0.5169
      3  O2A       23.1580   13.3890   -2.5400 O.3   503  TYD503     -0.4370
      4  O3A       21.0200   13.3950   -1.3400 O.3   503  TYD503     -0.2261
      5  PB        19.5720   13.2690   -0.6560 P.3   503  TYD503      0.5373
      6  O1B       18.5350   12.9600   -1.6930 O.2   503  TYD503     -0.2221
      7  O2B       19.6400   12.2650    0.4740 O.3   503  TYD503     -0.1143
      8  O3B       19.4020   14.7150   -0.2200 O.3   503  TYD503     -0.1143
      9  O5'       21.9090   11.2240   -2.2660 O.3   503  TYD503     -0.3111
     10  C5'       22.5980   10.3300   -3.1150 C.3   503  TYD503      0.1812
     11  C4'       22.4650    8.9260   -2.5340 C.3   503  TYD503      0.1773
     12  O4'       22.9000    8.1510   -3.6550 O.3   503  TYD503     -0.3339
     13  C3'       23.4570    8.7180   -1.3780 C.3   503  TYD503      0.1857
     14  O3'       22.8710    7.7620   -0.4620 O.3   503  TYD503     -0.2203
     15  C2'       24.6000    8.0760   -2.1470 C.3   503  TYD503      0.0874
     16  C1'       24.0260    7.3300   -3.3400 C.3   503  TYD503      0.2090
     17  N1        25.0030    7.4150   -4.4340 N.am  503  TYD503     -0.1794
     18  C2        25.4230    6.2040   -4.9920 C.1   503  TYD503      0.2844
     19  O2        24.9560    5.1330   -4.5630 O.2   503  TYD503     -0.1918
     20  N3        26.3050    6.2280   -5.9960 N.2   503  TYD503     -0.2455
     21  C4        26.8680    7.3450   -6.4810 C.1   503  TYD503      0.2134
     22  O4        27.6840    7.2760   -7.4260 O.2   503  TYD503     -0.2088
     23  C5        26.4370    8.6490   -5.9210 C.2   503  TYD503      0.0891
     24  C5M       26.9380    9.9960   -6.3650 C.3   503  TYD503      0.0462
     25  C6        25.4940    8.5880   -4.9040 C.2   503  TYD503      0.0877
@<TRIPOS>BOND
     1    22    21    2
     2    21    20    2
     3    21    23    1
     4    24    23    1
     5    20    18    2
     6    23    25    2
     7    18    19    2
     8    18    17   am
     9    25    17    1
    10    17    16    1
    11     2     1    2
    12    12    16    1
    13    12    11    1
    14    16    15    1
    15    10    11    1
    16    10     9    1
    17     1     3    1
    18     1     9    1
    19     1     4    1
    20    11    13    1
    21    15    13    1
    22     6     5    2
    23    13    14    1
    24     4     5    1
    25     5     8    1
    26     5     7    1
