@<TRIPOS>MOLECULE
4e30_SAH_A_1.pdb
 26 28 0 0 0
SMALL
GASTEIGER

@<TRIPOS>ATOM
      1  N         26.7740   20.8430    3.4780 N.3   504  SAH504     -0.1208
      2  CA        26.7230   19.3710    3.2880 C.3   504  SAH504      0.1952
      3  CB        25.6820   18.7410    4.2330 C.3   504  SAH504      0.0422
      4  CG        24.2110   18.9510    3.8530 C.3   504  SAH504      0.0597
      5  SD        23.0900   17.9360    4.7870 S.3   504  SAH504     -0.1375
      6  C         26.4090   19.2060    1.8260 C.2   504  SAH504      0.3819
      7  O         26.0300   20.1790    1.1530 O.co2 504  SAH504     -0.2441
      8  OXT       26.4570   18.0830    1.3160 O.co2 504  SAH504     -0.2441
      9  C5'       22.6170   19.1340    6.0110 C.3   504  SAH504      0.0899
     10  C4'       23.5380   19.1150    7.2490 C.3   504  SAH504      0.1630
     11  O4'       23.1060   20.1780    8.1270 O.3   504  SAH504     -0.3153
     12  C3'       23.4940   17.8030    8.0600 C.3   504  SAH504      0.2168
     13  O3'       24.8120   17.2540    8.2260 O.3   504  SAH504     -0.2175
     14  C2'       22.8990   18.2840    9.3830 C.3   504  SAH504      0.2569
     15  O2'       23.2430   17.6030   10.6030 O.3   504  SAH504     -0.2130
     16  C1'       23.3570   19.7300    9.4710 C.3   504  SAH504      0.3185
     17  N9        22.4570   20.6210   10.2540 N.pl3 504  SAH504     -0.1439
     18  C8        21.1250   20.6080   10.4350 C.3   504  SAH504      0.3377
     19  N7        20.6750   21.6160   11.2080 N.2   504  SAH504     -0.2095
     20  C5        21.7750   22.3890   11.4780 C.2   504  SAH504      0.2526
     21  C6        22.0720   23.6450   12.2130 C.2   504  SAH504      0.4393
     22  N6        21.0680   24.3050   12.8160 N.pl3 504  SAH504      0.2180
     23  N1        23.3810   23.9860   12.2440 N.2   504  SAH504      0.0021
     24  C2        24.3870   23.3240   11.6510 C.3   504  SAH504      0.5254
     25  N3        24.2370   22.1780   10.9540 N.2   504  SAH504     -0.0055
     26  C4        22.9440   21.7400   10.8380 C.2   504  SAH504      0.3518
@<TRIPOS>BOND
     1     7     6   ar
     2     8     6   ar
     3     6     2    1
     4     2     1    1
     5     2     3    1
     6     4     3    1
     7     4     5    1
     8     5     9    1
     9     9    10    1
    10    10    12    1
    11    10    11    1
    12    12    13    1
    13    12    14    1
    14    11    16    1
    15    14    16    1
    16    14    15    1
    17    16    17    1
    18    17    18    1
    19    17    26    1
    20    18    19    1
    21    26    25    2
    22    26    20    1
    23    25    24    1
    24    19    20    2
    25    20    21    1
    26    24    23    1
    27    21    23    2
    28    21    22    1
