@<TRIPOS>MOLECULE
4e31_SAH_A_1.pdb
 26 28 0 0 0
SMALL
GASTEIGER

@<TRIPOS>ATOM
      1  N         27.1000   21.0160    3.5720 N.3   504  SAH504     -0.1208
      2  CA        26.9520   19.5690    3.2440 C.3   504  SAH504      0.1952
      3  CB        26.0210   18.8190    4.1830 C.3   504  SAH504      0.0422
      4  CG        24.5220   18.9330    3.9240 C.3   504  SAH504      0.0597
      5  SD        23.6130   17.8140    4.9410 S.3   504  SAH504     -0.1375
      6  C         26.5640   19.3550    1.8030 C.2   504  SAH504      0.3819
      7  O         26.1430   20.3270    1.1730 O.co2 504  SAH504     -0.2441
      8  OXT       26.6160   18.2420    1.2540 O.co2 504  SAH504     -0.2441
      9  C5'       22.8110   18.9620    6.0300 C.3   504  SAH504      0.0899
     10  C4'       23.6300   19.0270    7.3120 C.3   504  SAH504      0.1630
     11  O4'       23.1090   20.0720    8.1380 O.3   504  SAH504     -0.3153
     12  C3'       23.5380   17.7420    8.1390 C.3   504  SAH504      0.2168
     13  O3'       24.8660   17.2220    8.3620 O.3   504  SAH504     -0.2175
     14  C2'       22.9260   18.2560    9.4370 C.3   504  SAH504      0.2569
     15  O2'       23.3310   17.6590   10.6690 O.3   504  SAH504     -0.2130
     16  C1'       23.3660   19.7190    9.4950 C.3   504  SAH504      0.3185
     17  N9        22.4600   20.6180   10.2660 N.pl3 504  SAH504     -0.1439
     18  C8        21.1240   20.6250   10.4810 C.3   504  SAH504      0.3377
     19  N7        20.6840   21.6900   11.2050 N.2   504  SAH504     -0.2095
     20  C5        21.8260   22.3830   11.4530 C.2   504  SAH504      0.2526
     21  C6        22.1230   23.6350   12.1890 C.2   504  SAH504      0.4393
     22  N6        21.1500   24.3210   12.8140 N.pl3 504  SAH504      0.2180
     23  N1        23.4080   24.0160   12.2360 N.2   504  SAH504      0.0021
     24  C2        24.3870   23.3100   11.6470 C.3   504  SAH504      0.5254
     25  N3        24.2560   22.1910   10.9270 N.2   504  SAH504     -0.0055
     26  C4        22.9840   21.7090   10.8310 C.2   504  SAH504      0.3518
@<TRIPOS>BOND
     1     7     6   ar
     2     8     6   ar
     3     6     2    1
     4     2     1    1
     5     2     3    1
     6     4     3    1
     7     4     5    1
     8     5     9    1
     9     9    10    1
    10    10    11    1
    11    10    12    1
    12    11    16    1
    13    12    13    1
    14    12    14    1
    15    14    16    1
    16    14    15    1
    17    16    17    1
    18    17    18    1
    19    17    26    1
    20    18    19    1
    21    26    25    2
    22    26    20    1
    23    25    24    1
    24    19    20    2
    25    20    21    1
    26    24    23    1
    27    21    23    2
    28    21    22    1
