@<TRIPOS>MOLECULE
4e31_JHZ_A_1.pdb
 35 37 0 0 0
SMALL
GASTEIGER

@<TRIPOS>ATOM
      1  P         21.9610   12.6480   -2.6540 P.3   505  JHZ505      0.2189
      2  C1        20.5440   14.1560    1.3950 C.3   505  JHZ505      0.2423
      3  O1        19.6560   14.1770    0.2650 O.3   505  JHZ505     -0.2880
      4  C2        19.7520   14.6220    2.6110 C.3   505  JHZ505      0.0864
      5  P2        19.7360   12.9080   -0.7020 P.3   505  JHZ505      0.2207
      6  C3        19.7790   16.1490    2.7910 C.3   505  JHZ505      0.1352
      7  N3        18.5100   16.5960    3.3680 N.3   505  JHZ505     -0.1266
      8  C4        20.1540   16.8860    1.5280 C.2   505  JHZ505      0.1931
      9  O4        19.6230   17.8970    1.0930 O.2   505  JHZ505     -0.2921
     10  C5        21.2450   16.3270    0.6720 C.3   505  JHZ505      0.1761
     11  O5        21.6310   15.0380    1.1100 O.3   505  JHZ505     -0.3251
     12  C6        22.4650   17.2210    0.5370 C.3   505  JHZ505      0.0403
     13  C1X       24.0780    7.2340   -3.2120 C.3   505  JHZ505      0.2090
     14  N11       25.0400    7.2240   -4.3220 N.am  505  JHZ505     -0.1794
     15  O1P       23.3530   13.2380   -2.7020 O.3   505  JHZ505     -0.4371
     16  C2X       24.6880    7.9420   -2.0000 C.3   505  JHZ505      0.0874
     17  C21       25.4980    6.0730   -4.8480 C.1   505  JHZ505      0.2844
     18  O21       25.0730    4.9870   -4.3920 O.2   505  JHZ505     -0.1918
     19  O2P       21.0940   12.7780   -3.8960 O.2   505  JHZ505     -0.5170
     20  C3X       23.5300    8.6250   -1.2840 C.3   505  JHZ505      0.1857
     21  O3X       22.8870    7.6410   -0.4590 O.3   505  JHZ505     -0.2203
     22  N31       26.3810    6.0820   -5.8780 N.2   505  JHZ505     -0.2455
     23  C3M       20.9130   16.5330    3.7470 C.3   505  JHZ505      0.0269
     24  O3P       18.5800   13.1010   -1.6530 O.2   505  JHZ505     -0.5170
     25  C4X       22.5770    8.8100   -2.4680 C.3   505  JHZ505      0.1773
     26  O4X       22.8800    7.9270   -3.5450 O.3   505  JHZ505     -0.3339
     27  C41       26.9200    7.2070   -6.4000 C.1   505  JHZ505      0.2134
     28  O41       27.7430    7.1730   -7.3460 O.2   505  JHZ505     -0.2088
     29  O4P       19.8450   11.5930    0.0420 O.3   505  JHZ505     -0.4371
     30  C5X       22.5780   10.1800   -3.1480 C.3   505  JHZ505      0.1812
     31  O5X       22.0530   11.1030   -2.1960 O.3   505  JHZ505     -0.3112
     32  C51       26.4460    8.4970   -5.8320 C.2   505  JHZ505      0.0891
     33  C5A       26.9100    9.8600   -6.3210 C.3   505  JHZ505      0.0462
     34  C61       25.4850    8.3980   -4.8260 C.2   505  JHZ505      0.0877
     35  OPP       21.1430   13.2500   -1.4250 O.3   505  JHZ505     -0.2703
@<TRIPOS>BOND
     1    28    27    2
     2    27    22    2
     3    27    32    1
     4    33    32    1
     5    22    17    2
     6    32    34    2
     7    17    18    2
     8    17    14   am
     9    34    14    1
    10    14    13    1
    11    19     1    2
    12    26    13    1
    13    26    25    1
    14    13    16    1
    15    30    25    1
    16    30    31    1
    17    15     1    1
    18     1    31    1
    19     1    35    1
    20    25    20    1
    21    16    20    1
    22    24     5    2
    23    35     5    1
    24    20    21    1
    25     5    29    1
    26     5     3    1
    27     3     2    1
    28    12    10    1
    29    10    11    1
    30    10     8    1
    31     9     8    2
    32    11     2    1
    33     2     4    1
    34     8     6    1
    35     4     6    1
    36     6     7    1
    37     6    23    1
