@<TRIPOS>MOLECULE
4e32_DWN_A_1.pdb
 34 36 0 0 0
SMALL
GASTEIGER

@<TRIPOS>ATOM
      1  O4        19.6560   18.0030    1.1290 O.2   505  DWN505     -0.2920
      2  C4        20.2840   16.9830    1.4340 C.2   505  DWN505      0.1949
      3  C5        21.3200   16.4590    0.4770 C.3   505  DWN505      0.1761
      4  C6        22.5870   17.3140    0.3530 C.3   505  DWN505      0.0403
      5  O5        21.8630   15.2160    0.8780 O.3   505  DWN505     -0.3251
      6  C3        20.1390   16.2500    2.7370 C.3   505  DWN505      0.1563
      7  N3        18.9570   16.7380    3.4100 N.3   505  DWN505     -0.1247
      8  C2        20.2960   14.7340    2.7180 C.3   505  DWN505      0.0883
      9  C1        20.8950   14.2900    1.3800 C.3   505  DWN505      0.2424
     10  O1        19.8280   14.1740    0.4460 O.3   505  DWN505     -0.2880
     11  P2        19.8890   12.9910   -0.6500 P.3   505  DWN505      0.2207
     12  O3P       20.0120   11.6850    0.1220 O.3   505  DWN505     -0.4371
     13  O4P       18.7480   13.2010   -1.6160 O.2   505  DWN505     -0.5170
     14  OPP       21.2870   13.2760   -1.3830 O.3   505  DWN505     -0.2703
     15  P         22.0300   12.6440   -2.6760 P.3   505  DWN505      0.2189
     16  O1P       23.3910   13.3070   -2.6940 O.3   505  DWN505     -0.4371
     17  O2P       21.1890   12.8290   -3.8910 O.2   505  DWN505     -0.5170
     18  O5X       22.1210   11.1100   -2.2260 O.3   505  DWN505     -0.3112
     19  C5X       22.7480   10.2110   -3.1370 C.3   505  DWN505      0.1812
     20  C4X       22.5960    8.8230   -2.5360 C.3   505  DWN505      0.1773
     21  O4X       22.9970    7.9590   -3.5980 O.3   505  DWN505     -0.3339
     22  C3X       23.5680    8.6240   -1.3800 C.3   505  DWN505      0.1857
     23  O3X       22.9310    7.7230   -0.4560 O.3   505  DWN505     -0.2203
     24  C2X       24.7250    7.9400   -2.0710 C.3   505  DWN505      0.0874
     25  C1X       24.1420    7.1930   -3.2610 C.3   505  DWN505      0.2090
     26  N11       25.1030    7.2720   -4.3690 N.am  505  DWN505     -0.1794
     27  C21       25.5450    6.1230   -4.8970 C.1   505  DWN505      0.2844
     28  O21       25.0990    5.0280   -4.5060 O.2   505  DWN505     -0.1918
     29  N31       26.3970    6.1220   -5.9490 N.2   505  DWN505     -0.2455
     30  C61       25.5620    8.4710   -4.7760 C.2   505  DWN505      0.0877
     31  C51       26.4900    8.5590   -5.8010 C.2   505  DWN505      0.0891
     32  C5A       27.0320    9.8810   -6.2800 C.3   505  DWN505      0.0462
     33  C41       26.9530    7.2730   -6.3850 C.1   505  DWN505      0.2134
     34  O41       27.7740    7.2450   -7.3290 O.2   505  DWN505     -0.2088
@<TRIPOS>BOND
     1    34    33    2
     2    33    29    2
     3    33    31    1
     4    32    31    1
     5    29    27    2
     6    31    30    2
     7    27    28    2
     8    27    26   am
     9    30    26    1
    10    26    25    1
    11    17    15    2
    12    21    25    1
    13    21    20    1
    14    25    24    1
    15    19    20    1
    16    19    18    1
    17    16    15    1
    18    15    18    1
    19    15    14    1
    20    20    22    1
    21    24    22    1
    22    13    11    2
    23    14    11    1
    24    22    23    1
    25    11    12    1
    26    11    10    1
    27     4     3    1
    28    10     9    1
    29     3     5    1
    30     3     2    1
    31     5     9    1
    32     1     2    2
    33     9     8    1
    34     2     6    1
    35     8     6    1
    36     6     7    1
