@<TRIPOS>MOLECULE
4e32_SAH_A_1.pdb
 26 28 0 0 0
SMALL
GASTEIGER

@<TRIPOS>ATOM
      1  N         26.6920   20.7660    3.5950 N.3   504  SAH504     -0.1208
      2  CA        26.6390   19.3160    3.2660 C.3   504  SAH504      0.1952
      3  CB        25.6620   18.5100    4.1130 C.3   504  SAH504      0.0422
      4  CG        24.2040   18.8550    3.8400 C.3   504  SAH504      0.0597
      5  SD        23.0780   17.7860    4.6770 S.3   504  SAH504     -0.1375
      6  C         26.3720   19.1960    1.7980 C.2   504  SAH504      0.3819
      7  O         26.0070   20.1850    1.1410 O.co2 504  SAH504     -0.2441
      8  OXT       26.4860   18.0770    1.2860 O.co2 504  SAH504     -0.2441
      9  C5'       22.4270   18.8800    5.9100 C.3   504  SAH504      0.0899
     10  C4'       23.3570   18.9900    7.1320 C.3   504  SAH504      0.1630
     11  O4'       22.9020   20.0140    8.0310 O.3   504  SAH504     -0.3153
     12  C3'       23.4810   17.7310    8.0090 C.3   504  SAH504      0.2168
     13  O3'       24.8110   17.1730    8.0800 O.3   504  SAH504     -0.2175
     14  C2'       22.8470   18.1490    9.3430 C.3   504  SAH504      0.2569
     15  O2'       23.3220   17.4670   10.4930 O.3   504  SAH504     -0.2130
     16  C1'       23.2780   19.6100    9.3560 C.3   504  SAH504      0.3185
     17  N9        22.4030   20.4890   10.1810 N.pl3 504  SAH504     -0.1439
     18  C8        21.0880   20.5120   10.4410 C.3   504  SAH504      0.3377
     19  N7        20.6490   21.5500   11.1920 N.2   504  SAH504     -0.2095
     20  C5        21.7880   22.2970   11.4030 C.2   504  SAH504      0.2526
     21  C6        22.0930   23.5690   12.0950 C.2   504  SAH504      0.4393
     22  N6        21.1550   24.2770   12.7740 N.pl3 504  SAH504      0.2180
     23  N1        23.3970   23.9040   12.0890 N.2   504  SAH504      0.0021
     24  C2        24.3600   23.2310   11.4260 C.3   504  SAH504      0.5254
     25  N3        24.1800   22.0860   10.7580 N.2   504  SAH504     -0.0055
     26  C4        22.9080   21.6220   10.6890 C.2   504  SAH504      0.3518
@<TRIPOS>BOND
     1     7     6   ar
     2     8     6   ar
     3     6     2    1
     4     2     1    1
     5     2     3    1
     6     4     3    1
     7     4     5    1
     8     5     9    1
     9     9    10    1
    10    10    12    1
    11    10    11    1
    12    12    13    1
    13    12    14    1
    14    11    16    1
    15    14    16    1
    16    14    15    1
    17    16    17    1
    18    17    18    1
    19    17    26    1
    20    18    19    1
    21    26    25    2
    22    26    20    1
    23    25    24    1
    24    19    20    2
    25    20    21    1
    26    24    23    1
    27    23    21    2
    28    21    22    1
