@<TRIPOS>MOLECULE
4e33_0N2_A_1.pdb
 34 36 0 0 0
SMALL
GASTEIGER

@<TRIPOS>ATOM
      1  O41       27.6610    7.2480   -7.3360 O.2   503  0N2503     -0.2088
      2  C41       26.8480    7.3820   -6.3900 C.1   503  0N2503      0.2134
      3  C51       26.4410    8.6100   -5.8610 C.2   503  0N2503      0.0891
      4  C5A       26.9580    9.9370   -6.3750 C.3   503  0N2503      0.0462
      5  C61       25.5080    8.5390   -4.8340 C.2   503  0N2503      0.0877
      6  N31       26.2970    6.2400   -5.9350 N.2   503  0N2503     -0.2455
      7  C21       25.4520    6.2180   -4.8810 C.1   503  0N2503      0.2844
      8  O21       25.0300    5.1190   -4.4780 O.2   503  0N2503     -0.1918
      9  N11       25.0430    7.3780   -4.3330 N.am  503  0N2503     -0.1794
     10  C1X       24.0920    7.2980   -3.2160 C.3   503  0N2503      0.2090
     11  O4X       22.9350    8.0490   -3.5780 O.3   503  0N2503     -0.3339
     12  C2X       24.6530    8.0760   -2.0150 C.3   503  0N2503      0.0874
     13  C3X       23.4500    8.7010   -1.3250 C.3   503  0N2503      0.1857
     14  O3X       22.8680    7.7920   -0.3700 O.3   503  0N2503     -0.2203
     15  C4X       22.5200    8.9020   -2.5110 C.3   503  0N2503      0.1773
     16  C5X       22.5720   10.3040   -3.0970 C.3   503  0N2503      0.1812
     17  O5X       21.9560   11.2390   -2.1930 O.3   503  0N2503     -0.3112
     18  P         21.9250   12.7770   -2.6790 P.3   503  0N2503      0.2189
     19  O1P       23.3480   13.3120   -2.6380 O.3   503  0N2503     -0.4371
     20  O2P       21.1170   12.8290   -3.9580 O.2   503  0N2503     -0.5170
     21  OPP       21.2140   13.4050   -1.3710 O.3   503  0N2503     -0.2703
     22  P2        19.7980   13.0960   -0.6490 P.3   503  0N2503      0.2207
     23  O3P       18.6070   13.2120   -1.5430 O.2   503  0N2503     -0.5170
     24  O4P       19.8060   11.8120    0.1660 O.3   503  0N2503     -0.4371
     25  O1        19.6550   14.3250    0.3710 O.3   503  0N2503     -0.2880
     26  C1        20.7810   14.4050    1.2400 C.3   503  0N2503      0.2417
     27  C2        20.2490   14.8960    2.5840 C.3   503  0N2503      0.0833
     28  C3        20.0240   16.4100    2.5660 C.3   503  0N2503      0.1296
     29  N3        18.9280   16.8170    3.4400 N.3   503  0N2503     -0.1300
     30  C4        19.9060   16.9720    1.1420 C.3   503  0N2503      0.1965
     31  O4        19.6820   18.3890    1.0430 O.3   503  0N2503     -0.2190
     32  C5        21.1690   16.6300    0.3530 C.3   503  0N2503      0.1495
     33  O5        21.7210   15.3810    0.7910 O.3   503  0N2503     -0.3301
     34  C6        22.3120   17.6230    0.5340 C.3   503  0N2503      0.0349
@<TRIPOS>BOND
     1     1     2    2
     2     2     6    2
     3     2     3    1
     4     4     3    1
     5     6     7    2
     6     3     5    2
     7     7     8    2
     8     7     9   am
     9     5     9    1
    10     9    10    1
    11    20    18    2
    12    11    10    1
    13    11    15    1
    14    10    12    1
    15    16    15    1
    16    16    17    1
    17    18    19    1
    18    18    17    1
    19    18    21    1
    20    15    13    1
    21    12    13    1
    22    23    22    2
    23    21    22    1
    24    13    14    1
    25    22    24    1
    26    22    25    1
    27    32    34    1
    28    32    33    1
    29    32    30    1
    30    25    26    1
    31    33    26    1
    32    31    30    1
    33    30    28    1
    34    26    27    1
    35    28    27    1
    36    28    29    1
