@<TRIPOS>MOLECULE
4e33_SAH_A_1.pdb
 26 28 0 0 0
SMALL
GASTEIGER

@<TRIPOS>ATOM
      1  N         26.6290   20.8300    3.5600 N.3   502  SAH502     -0.1208
      2  CA        26.5310   19.3760    3.2800 C.3   502  SAH502      0.1952
      3  CB        25.4470   18.7090    4.1230 C.3   502  SAH502      0.0422
      4  CG        23.9730   19.0120    3.8370 C.3   502  SAH502      0.0597
      5  SD        22.9300   17.8940    4.7450 S.3   502  SAH502     -0.1375
      6  C         26.2800   19.2640    1.8050 C.2   502  SAH502      0.3819
      7  O         25.9460   20.3190    1.2360 O.co2 502  SAH502     -0.2441
      8  OXT       26.3490   18.1540    1.2630 O.co2 502  SAH502     -0.2441
      9  C5'       22.3700   19.0520    5.9670 C.3   502  SAH502      0.0899
     10  C4'       23.2350   19.0740    7.2330 C.3   502  SAH502      0.1630
     11  O4'       22.7830   20.1670    8.0490 O.3   502  SAH502     -0.3153
     12  C3'       23.3080   17.8050    8.0910 C.3   502  SAH502      0.2168
     13  O3'       24.6680   17.3430    8.2420 O.3   502  SAH502     -0.2175
     14  C2'       22.7350   18.3370    9.3970 C.3   502  SAH502      0.2569
     15  O2'       23.1570   17.6120   10.5450 O.3   502  SAH502     -0.2130
     16  C1'       23.1510   19.8000    9.3910 C.3   502  SAH502      0.3185
     17  N9        22.2570   20.6650   10.2040 N.pl3 502  SAH502     -0.1439
     18  C8        20.9360   20.5840   10.3770 C.3   502  SAH502      0.3377
     19  N7        20.4990   21.6090   11.1430 N.2   502  SAH502     -0.2095
     20  C5        21.5910   22.3750   11.4400 C.2   502  SAH502      0.2526
     21  C6        21.9060   23.6380   12.1560 C.2   502  SAH502      0.4393
     22  N6        20.9740   24.3550   12.8130 N.pl3 502  SAH502      0.2180
     23  N1        23.2060   23.9880   12.2180 N.2   502  SAH502      0.0021
     24  C2        24.2310   23.3760   11.6170 C.3   502  SAH502      0.5254
     25  N3        24.0500   22.2540   10.9040 N.2   502  SAH502     -0.0055
     26  C4        22.7750   21.7620   10.7900 C.2   502  SAH502      0.3518
@<TRIPOS>BOND
     1     7     6   ar
     2     8     6   ar
     3     6     2    1
     4     2     1    1
     5     2     3    1
     6     4     3    1
     7     4     5    1
     8     5     9    1
     9     9    10    1
    10    10    11    1
    11    10    12    1
    12    11    16    1
    13    12    13    1
    14    12    14    1
    15    16    14    1
    16    16    17    1
    17    14    15    1
    18    17    18    1
    19    17    26    1
    20    18    19    1
    21    26    25    2
    22    26    20    1
    23    25    24    1
    24    19    20    2
    25    20    21    1
    26    24    23    1
    27    21    23    2
    28    21    22    1
