@<TRIPOS>MOLECULE
4e36_LYS_A_1.pdb
 10 9 0 0 0
SMALL
GASTEIGER

@<TRIPOS>ATOM
      1  N         17.6620    4.9980    0.2890 N.3   1001  LYS1001    -0.1208
      2  CA        18.3160    4.5290    1.5140 C.3   1001  LYS1001     0.1943
      3  C         19.7660    4.1900    1.2490 C.2   1001  LYS1001     0.3819
      4  O         20.3090    3.2540    1.8380 O.co2 1001  LYS1001    -0.2441
      5  CB        17.5870    3.3210    2.1180 C.3   1001  LYS1001     0.0307
      6  CG        16.4490    3.6940    3.0510 C.3   1001  LYS1001     0.0036
      7  CD        15.2610    2.7530    2.8800 C.3   1001  LYS1001     0.0206
      8  CE        14.3890    2.6980    4.1360 C.3   1001  LYS1001     0.1093
      9  NZ        13.9320    4.0390    4.5970 N.3   1001  LYS1001    -0.1314
     10  OXT       20.3890    4.8550    0.4280 O.co2 1001  LYS1001    -0.2441
@<TRIPOS>BOND
     1     1     2    1
     2    10     3   ar
     3     3     2    1
     4     3     4   ar
     5     2     5    1
     6     5     6    1
     7     7     6    1
     8     7     8    1
     9     8     9    1
