@<TRIPOS>MOLECULE
4e3a_ADN_A_1.pdb
 19 21 0 0 0
SMALL
GASTEIGER

@<TRIPOS>ATOM
      1  O5'       -8.0860   -4.3910   -2.1680 O.3   500  ADN500     -0.2176
      2  C5'       -7.7620   -4.1370   -0.7970 C.3   500  ADN500      0.2143
      3  C4'       -7.4120   -2.6680   -0.6500 C.3   500  ADN500      0.1851
      4  O4'       -8.4990   -1.8640   -1.0720 O.3   500  ADN500     -0.3134
      5  C3'       -7.1950   -2.2220    0.7930 C.3   500  ADN500      0.2186
      6  O3'       -5.8220   -2.3200    1.0930 O.3   500  ADN500     -0.2174
      7  C2'       -7.7320   -0.7850    0.8270 C.3   500  ADN500      0.2570
      8  O2'       -6.7870    0.1940    1.1890 O.3   500  ADN500     -0.2130
      9  C1'       -8.1380   -0.5730   -0.6240 C.3   500  ADN500      0.3186
     10  N9        -9.2420    0.3870   -0.7720 N.pl3 500  ADN500     -0.1439
     11  C8       -10.2760    0.6220    0.0750 C.3   500  ADN500      0.3377
     12  N7       -11.0590    1.6010   -0.4350 N.2   500  ADN500     -0.2095
     13  C5       -10.4980    1.9940   -1.6110 C.2   500  ADN500      0.2526
     14  C6       -10.7820    3.0040   -2.6500 C.2   500  ADN500      0.4393
     15  N6       -11.8750    3.8000   -2.5430 N.pl3 500  ADN500      0.2180
     16  N1        -9.9270    3.0890   -3.6940 N.2   500  ADN500      0.0021
     17  C2        -8.8310    2.2930   -3.8280 C.3   500  ADN500      0.5254
     18  N3        -8.4950    1.3580   -2.9360 N.2   500  ADN500     -0.0055
     19  C4        -9.2900    1.1860   -1.8250 C.2   500  ADN500      0.3518
@<TRIPOS>BOND
     1    17    16    1
     2    17    18    1
     3    16    14    2
     4    18    19    2
     5    14    15    1
     6    14    13    1
     7     1     2    1
     8    19    13    1
     9    19    10    1
    10    13    12    2
    11     4     3    1
    12     4     9    1
    13     2     3    1
    14    10     9    1
    15    10    11    1
    16     3     5    1
    17     9     7    1
    18    12    11    1
    19     5     7    1
    20     5     6    1
    21     7     8    1
