@<TRIPOS>MOLECULE
4e3d_GTQ_A_1.pdb
 11 11 0 0 0
SMALL
GASTEIGER

@<TRIPOS>ATOM
      1  OAA       15.3500    2.1830   15.9970 O.co2 303  GTQ303     -0.2404
      2  OAB       17.5870    1.8570   15.9730 O.co2 303  GTQ303     -0.2404
      3  OAC       19.3590    5.9540   13.6850 O.3   303  GTQ303     -0.2866
      4  OAD       14.4120    4.0670   14.8440 O.3   303  GTQ303     -0.2863
      5  CAE       17.0170    6.2110   13.5670 C.ar  303  GTQ303      0.0453
      6  CAF       15.7570    5.7290   13.9080 C.ar  303  GTQ303      0.0455
      7  CAG       18.0000    4.2460   14.5570 C.ar  303  GTQ303      0.0518
      8  CAH       16.5510    2.4600   15.6140 C.2   303  GTQ303      0.3910
      9  CAI       18.1060    5.4670   13.9090 C.ar  303  GTQ303      0.1962
     10  CAJ       15.6430    4.5300   14.5160 C.ar  303  GTQ303      0.2022
     11  CAK       16.7380    3.7470   14.8820 C.ar  303  GTQ303      0.1217
@<TRIPOS>BOND
     1     5     6   ar
     2     5     9   ar
     3     3     9    1
     4     6    10   ar
     5     9     7   ar
     6    10     4    1
     7    10    11   ar
     8     7    11   ar
     9    11     8    1
    10     8     2   ar
    11     8     1   ar
