@<TRIPOS>MOLECULE
4e3f_GRE_A_1.pdb
 11 11 0 0 0
SMALL
GASTEIGER

@<TRIPOS>ATOM
      1  C1A       16.8350    2.2560   16.0540 C.2   303  GRE303      0.3940
      2  O1A       17.9450    1.7340   16.0400 O.co2 303  GRE303     -0.2403
      3  O2A       15.9630    1.8420   16.8640 O.co2 303  GRE303     -0.2403
      4  C1        16.5880    3.3400   15.1800 C.ar  303  GRE303      0.1573
      5  C2        15.2980    3.8710   15.1100 C.ar  303  GRE303      0.2052
      6  C3        15.0440    5.0110   14.3740 C.ar  303  GRE303      0.0425
      7  C4        15.9890    5.5990   13.5570 C.ar  303  GRE303      0.0066
      8  C5        17.3010    5.0710   13.6010 C.ar  303  GRE303      0.0425
      9  C6        17.5730    3.9560   14.4010 C.ar  303  GRE303      0.2052
     10  O2        14.3640    3.2860   15.9020 O.3   303  GRE303     -0.2862
     11  O6        18.8660    3.4670   14.4620 O.3   303  GRE303     -0.2862
@<TRIPOS>BOND
     1     7     8   ar
     2     7     6   ar
     3     8     9   ar
     4     6     5   ar
     5     9    11    1
     6     9     4   ar
     7     5     4   ar
     8     5    10    1
     9     4     1    1
    10     2     1   ar
    11     1     3   ar
