@<TRIPOS>MOLECULE
4e3g_PHB_A_1.pdb
 10 10 0 0 0
SMALL
GASTEIGER

@<TRIPOS>ATOM
      1  C1'       16.4400    2.1870   15.2350 C.2   303  PHB303      0.3878
      2  O1'       15.2530    1.8470   15.5410 O.co2 303  PHB303     -0.2406
      3  O2'       17.3410    1.4040   15.6300 O.co2 303  PHB303     -0.2406
      4  C1        16.7060    3.4620   14.6760 C.ar  303  PHB303      0.0800
      5  C2        18.0480    3.9210   14.6600 C.ar  303  PHB303      0.0099
      6  C3        18.4420    5.2100   14.1920 C.ar  303  PHB303      0.0422
      7  C4        17.3440    5.9500   13.6530 C.ar  303  PHB303      0.1958
      8  C5        16.0150    5.4960   13.6580 C.ar  303  PHB303      0.0422
      9  C6        15.6810    4.2780   14.2290 C.ar  303  PHB303      0.0099
     10  O4        17.5460    7.2150   13.0840 O.3   303  PHB303     -0.2866
@<TRIPOS>BOND
     1    10     7    1
     2     7     8   ar
     3     7     6   ar
     4     8     9   ar
     5     6     5   ar
     6     9     4   ar
     7     5     4   ar
     8     4     1    1
     9     1     2   ar
    10     1     3   ar
