@<TRIPOS>MOLECULE
4e3i_0N3_A_1.pdb
 18 18 0 0 0
SMALL
GASTEIGER

@<TRIPOS>ATOM
      1  B03       26.3100    4.9640   16.2970 B     401  0N3401      0.0000
      2  O04       25.3410    4.0700   16.9300 O.3   401  0N3401      0.0000
      3  O05       26.5000    6.0890   17.2250 O.3   401  0N3401      0.0000
      4  C06       25.7200    5.4320   14.9170 C.3   401  0N3401      0.0000
      5  N07       24.2580    5.5550   14.8780 N.3   401  0N3401      0.0000
      6  S08       23.4720    6.0060   13.5450 S.O2  401  0N3401      0.0000
      7  O09       24.0950    7.1940   13.0020 O.2   401  0N3401      0.0000
      8  O10       22.1280    6.3050   13.8760 O.2   401  0N3401      0.0000
      9  C11       23.5280    4.7580   12.3710 C.3   401  0N3401      0.0000
     10  C12       22.7380    4.9900   11.1100 C.ar  401  0N3401      0.0000
     11  C13       23.2060    5.8990   10.1580 C.ar  401  0N3401      0.0000
     12  C14       22.4530    6.0820    8.9920 C.ar  401  0N3401      0.0000
     13  C15       21.2670    5.3920    8.7560 C.ar  401  0N3401      0.0000
     14  C16       20.8390    4.5030    9.7250 C.ar  401  0N3401      0.0000
     15  C17       19.5560    3.7030    9.5130 C.2   401  0N3401      0.0000
     16  O18       19.0990    3.0300   10.4600 O.co2 401  0N3401      0.0000
     17  O19       18.9940    3.7040    8.3850 O.co2 401  0N3401      0.0000
     18  C20       21.5720    4.3010   10.8820 C.ar  401  0N3401      0.0000
@<TRIPOS>BOND
     1    17    15   ar
     2    13    12   ar
     3    13    14   ar
     4    12    11   ar
     5    15    14    1
     6    15    16   ar
     7    14    18   ar
     8    11    10   ar
     9    18    10   ar
    10    10     9    1
    11     9     6    1
    12     7     6    2
    13     6     8    2
    14     6     5    1
    15     5     4    1
    16     4     1    1
    17     1     2    1
    18     1     3    1
