@<TRIPOS>MOLECULE
4e3j_0N4_A_1.pdb
 19 20 0 0 0
SMALL
GASTEIGER

@<TRIPOS>ATOM
      1  B03       26.0310    5.0940   16.2120 B     401  0N4401      0.0000
      2  O04       26.1850    5.9040   17.4140 O.3   401  0N4401      0.0000
      3  O05       24.9950    4.0830   16.4540 O.3   401  0N4401      0.0000
      4  C06       25.7080    6.0270   14.9760 C.2   401  0N4401      0.0000
      5  N07       24.5610    6.9110   15.1320 N.2   401  0N4401      0.0000
      6  S08       23.9410    7.7430   13.9000 S.O2  401  0N4401      0.0000
      7  O09       23.0800    8.7320   14.4500 O.2   401  0N4401      0.0000
      8  O10       24.9260    8.4090   13.1270 O.2   401  0N4401      0.0000
      9  C11       22.9660    6.7580   12.8230 C.ar  401  0N4401      0.0000
     10  C12       23.4480    6.3290   11.5750 C.ar  401  0N4401      0.0000
     11  C13       22.6160    5.5650   10.7060 C.ar  401  0N4401      0.0000
     12  C14       21.3230    5.2330   11.1020 C.ar  401  0N4401      0.0000
     13  C15       20.5090    4.5020   10.2580 C.1   401  0N4401      0.0000
     14  N16       20.6800    4.3510    8.8920 N.2   401  0N4401      0.0000
     15  N17       19.6490    3.6200    8.4430 N.2   401  0N4401      0.0000
     16  N18       18.8280    3.3160    9.5500 N.2   401  0N4401      0.0000
     17  N19       19.3910    3.8690   10.6450 N.2   401  0N4401      0.0000
     18  C20       20.8240    5.6810   12.3430 C.ar  401  0N4401      0.0000
     19  C21       21.6470    6.4470   13.1990 C.ar  401  0N4401      0.0000
@<TRIPOS>BOND
     1    15    14    1
     2    15    16    2
     3    14    13    2
     4    16    17    1
     5    13    17    2
     6    13    12    1
     7    11    12   ar
     8    11    10   ar
     9    12    18   ar
    10    10     9   ar
    11    18    19   ar
    12     9    19   ar
    13     9     6    1
    14     8     6    2
    15     6     7    2
    16     6     5    1
    17     4     5    2
    18     4     1    1
    19     1     3    1
    20     1     2    1
