@<TRIPOS>MOLECULE
4e3k_0NA_A_1.pdb
 19 20 0 0 0
SMALL
GASTEIGER

@<TRIPOS>ATOM
      1  B03       26.5540    4.7160   16.2300 B     401  0NA401      0.0000
      2  O04       26.7600    5.5300   17.4320 O.3   401  0NA401      0.0000
      3  O05       25.5060    3.7350   16.5030 O.3   401  0NA401      0.0000
      4  C06       26.1530    5.6210   15.0050 C.2   401  0NA401      0.0000
      5  N07       24.9120    6.3570   15.1640 N.2   401  0NA401      0.0000
      6  S08       24.3360    7.2720   13.9560 S.O2  401  0NA401      0.0000
      7  O09       23.4190    8.2390   14.5170 O.2   401  0NA401      0.0000
      8  O10       25.3610    7.9820   13.2630 O.2   401  0NA401      0.0000
      9  C11       23.4490    6.3050   12.8050 C.ar  401  0NA401      0.0000
     10  C12       23.9530    5.9910   11.5520 C.ar  401  0NA401      0.0000
     11  C13       23.1530    5.2290   10.7060 C.ar  401  0NA401      0.0000
     12  C14       21.8940    4.8210   11.1370 C.ar  401  0NA401      0.0000
     13  C15       21.0500    4.0940   10.3190 C.1   401  0NA401      0.0000
     14  N16       21.1330    3.9260    8.9840 N.2   401  0NA401      0.0000
     15  N17       20.0620    3.1690    8.6080 N.2   401  0NA401      0.0000
     16  N18       19.3110    2.9080    9.7210 N.2   401  0NA401      0.0000
     17  N19       19.9200    3.5240   10.7610 N.2   401  0NA401      0.0000
     18  N20       21.4280    5.1700   12.3510 N.ar  401  0NA401      0.0000
     19  C21       22.1880    5.8910   13.1740 C.ar  401  0NA401      0.0000
@<TRIPOS>BOND
     1    15    14    1
     2    15    16    2
     3    14    13    2
     4    16    17    1
     5    13    17    2
     6    13    12    1
     7    11    12   ar
     8    11    10   ar
     9    12    18   ar
    10    10     9   ar
    11    18    19   ar
    12     9    19   ar
    13     9     6    1
    14     8     6    2
    15     6     7    2
    16     6     5    1
    17     4     5    2
    18     4     1    1
    19     1     3    1
    20     1     2    1
