@<TRIPOS>MOLECULE
4e3l_0NB_A_1.pdb
 20 21 0 0 0
SMALL
GASTEIGER

@<TRIPOS>ATOM
      1  B03       25.9540    4.9170   16.2590 B     401  0NB401      0.0000
      2  O04       26.1390    5.7480   17.4440 O.3   401  0NB401      0.0000
      3  O05       24.9000    3.9160   16.4900 O.3   401  0NB401      0.0000
      4  C06       25.5960    5.8390   15.0320 C.3   401  0NB401      0.0000
      5  N07       24.3850    6.6510   15.2090 N.3   401  0NB401      0.0000
      6  S08       23.7790    7.5840   14.0230 S.O2  401  0NB401      0.0000
      7  O09       22.9230    8.6090   14.5960 O.2   401  0NB401      0.0000
      8  O10       24.8040    8.2500   13.2470 O.2   401  0NB401      0.0000
      9  C11       22.7570    6.6180   12.9530 C.ar  401  0NB401      0.0000
     10  C12       23.3050    5.8530   11.9370 C.ar  401  0NB401      0.0000
     11  C13       22.4990    5.0900   11.1050 C.ar  401  0NB401      0.0000
     12  C14       21.1120    5.0970   11.2760 C.ar  401  0NB401      0.0000
     13  C15       20.2910    4.3350   10.4250 C.1   401  0NB401      0.0000
     14  N16       20.4170    4.1600    9.0770 N.2   401  0NB401      0.0000
     15  N17       19.4020    3.3600    8.6320 N.2   401  0NB401      0.0000
     16  N18       18.6500    3.0120    9.7190 N.2   401  0NB401      0.0000
     17  N19       19.1970    3.6360   10.7990 N.2   401  0NB401      0.0000
     18  C20       20.5770    5.8820   12.3100 C.ar  401  0NB401      0.0000
     19 CL2        18.8760    6.0120   12.6620 Cl    401  0NB401      0.0000
     20  C22       21.3940    6.6180   13.1380 C.ar  401  0NB401      0.0000
@<TRIPOS>BOND
     1    15    14    1
     2    15    16    2
     3    14    13    2
     4    16    17    1
     5    13    17    2
     6    13    12    1
     7    11    12   ar
     8    11    10   ar
     9    12    18   ar
    10    10     9   ar
    11    18    19    1
    12    18    20   ar
    13     9    20   ar
    14     9     6    1
    15     8     6    2
    16     6     7    2
    17     6     5    1
    18     4     5    1
    19     4     1    1
    20     1     3    1
    21     1     2    1
