@<TRIPOS>MOLECULE
4e3m_0ND_A_1.pdb
 20 21 0 0 0
SMALL
GASTEIGER

@<TRIPOS>ATOM
      1  B03       26.1440    5.0250   16.1850 B     401  0ND401      0.0000
      2  O04       25.1090    4.0090   16.4270 O.3   401  0ND401      0.0000
      3  O05       26.3260    5.8480   17.3830 O.3   401  0ND401      0.0000
      4  C06       25.7540    5.9090   14.9390 C.3   401  0ND401      0.0000
      5  N07       24.6300    6.7810   15.1840 N.3   401  0ND401      0.0000
      6  S08       23.9930    7.6770   13.9960 S.O2  401  0ND401      0.0000
      7  O09       25.0120    8.2740   13.1960 O.2   401  0ND401      0.0000
      8  O10       23.1930    8.7440   14.5620 O.2   401  0ND401      0.0000
      9  C11       22.9830    6.6840   12.9390 C.ar  401  0ND401      0.0000
     10  C12       23.4010    6.4740   11.6290 C.ar  401  0ND401      0.0000
     11  C13       22.6250    5.7290   10.7460 C.ar  401  0ND401      0.0000
     12  C14       21.4080    5.1840   11.1880 C.ar  401  0ND401      0.0000
     13  C15       20.5700    4.4290   10.3660 C.1   401  0ND401      0.0000
     14  N16       19.4630    3.7710   10.7770 N.2   401  0ND401      0.0000
     15  N17       18.8840    3.1770    9.6940 N.2   401  0ND401      0.0000
     16  N18       19.6320    3.5080    8.6010 N.2   401  0ND401      0.0000
     17  N19       20.6590    4.2940    9.0290 N.2   401  0ND401      0.0000
     18  C20       21.0130    5.3880   12.4980 C.ar  401  0ND401      0.0000
     19  C21       21.7880    6.1140   13.3740 C.ar  401  0ND401      0.0000
     20 CL2        21.2240    6.3130   15.0050 Cl    401  0ND401      0.0000
@<TRIPOS>BOND
     1    16    17    1
     2    16    15    2
     3    17    13    2
     4    15    14    1
     5    13    14    2
     6    13    12    1
     7    11    12   ar
     8    11    10   ar
     9    12    18   ar
    10    10     9   ar
    11    18    19   ar
    12     9    19   ar
    13     9     6    1
    14     7     6    2
    15    19    20    1
    16     6     8    2
    17     6     5    1
    18     4     5    1
    19     4     1    1
    20     1     2    1
    21     1     3    1
