@<TRIPOS>MOLECULE
4e3n_0NE_A_1.pdb
 23 24 0 0 0
SMALL
GASTEIGER

@<TRIPOS>ATOM
      1  B03       25.9170    4.8680   16.1450 B     401  0NE401      0.0000
      2  O04       24.8560    3.8840   16.3720 O.3   401  0NE401      0.0000
      3  O05       26.0710    5.6610   17.3690 O.3   401  0NE401      0.0000
      4  C06       25.5570    5.8110   14.9260 C.3   401  0NE401      0.0000
      5  N07       24.3580    6.6190   15.1560 N.3   401  0NE401      0.0000
      6  S08       23.6920    7.5400   13.9990 S.O2  401  0NE401      0.0000
      7  O09       22.8930    8.5910   14.5840 O.2   401  0NE401      0.0000
      8  O10       24.7060    8.1390   13.1560 O.2   401  0NE401      0.0000
      9  C11       22.6250    6.5180   12.9440 C.ar  401  0NE401      0.0000
     10  C12       23.1380    6.1730   11.6830 C.ar  401  0NE401      0.0000
     11  C13       22.3950    5.4480   10.8180 C.ar  401  0NE401      0.0000
     12  C14       21.1180    5.0290   11.1890 C.ar  401  0NE401      0.0000
     13  C15       20.3280    4.2870   10.3220 C.1   401  0NE401      0.0000
     14  N16       19.2210    3.6270   10.6780 N.2   401  0NE401      0.0000
     15  N17       18.6800    3.0410    9.5760 N.2   401  0NE401      0.0000
     16  N18       19.4810    3.3580    8.4990 N.2   401  0NE401      0.0000
     17  N19       20.5000    4.1280    8.9630 N.2   401  0NE401      0.0000
     18  C20       20.6270    5.3680   12.4530 C.ar  401  0NE401      0.0000
     19  C21       21.3490    6.1070   13.3330 C.ar  401  0NE401      0.0000
     20  C22       20.7410    6.4050   14.6890 C.3   401  0NE401      0.0000
     21  F23       19.7500    5.4760   14.9300 F     401  0NE401      0.0000
     22  F24       20.1680    7.6000   14.6980 F     401  0NE401      0.0000
     23  F25       21.5760    6.3050   15.6730 F     401  0NE401      0.0000
@<TRIPOS>BOND
     1    16    17    1
     2    16    15    2
     3    17    13    2
     4    15    14    1
     5    13    14    2
     6    13    12    1
     7    11    12   ar
     8    11    10   ar
     9    12    18   ar
    10    10     9   ar
    11    18    19   ar
    12     9    19   ar
    13     9     6    1
    14     8     6    2
    15    19    20    1
    16     6     7    2
    17     6     5    1
    18    20    22    1
    19    20    21    1
    20    20    23    1
    21     4     5    1
    22     4     1    1
    23     1     2    1
    24     1     3    1
