@<TRIPOS>MOLECULE
4e3o_0NG_A_1.pdb
 10 9 0 0 0
SMALL
GASTEIGER

@<TRIPOS>ATOM
      1  B03       26.2210    4.9720   16.2820 B     401  0NG401      0.0000
      2  O04       25.1640    3.9830   16.5720 O.3   401  0NG401      0.0000
      3  O05       26.3860    5.8280   17.4480 O.3   401  0NG401      0.0000
      4  C06       25.8650    5.7950   14.9930 C.3   401  0NG401      0.0000
      5  N07       24.4530    6.1520   14.8850 N.3   401  0NG401      0.0000
      6  S08       23.7340    6.2360   13.4460 S.O2  401  0NG401      0.0000
      7  O09       22.4460    6.8440   13.5520 O.2   401  0NG401      0.0000
      8  O10       24.4470    7.1600   12.6080 O.2   401  0NG401      0.0000
      9  C11       23.6390    4.6490   12.6630 C.3   401  0NG401      0.0000
     10 CL1        22.4770    4.4380   11.3960 Cl    401  0NG401      0.0000
@<TRIPOS>BOND
     1    10     9    1
     2     8     6    2
     3     9     6    1
     4     6     7    2
     5     6     5    1
     6     5     4    1
     7     4     1    1
     8     1     2    1
     9     1     3    1
