@<TRIPOS>MOLECULE
4e3q_PMP_A_1.pdb
 16 16 0 0 0
SMALL
GASTEIGER

@<TRIPOS>ATOM
      1  N1        -0.7900    8.2810   22.2040 N.ar  505  PMP505     -0.2452
      2  C2        -0.1360    7.2820   21.6220 C.ar  505  PMP505      0.0978
      3  C2A       -0.6290    5.8270   21.7920 C.3   505  PMP505      0.0555
      4  C3         1.0470    7.5840   20.8980 C.ar  505  PMP505      0.2063
      5  O3         1.7110    6.5670   20.3230 O.3   505  PMP505     -0.2856
      6  C4         1.4970    8.9430   20.7360 C.ar  505  PMP505      0.0369
      7  C4A        2.7610    9.3470   19.9970 C.3   505  PMP505      0.1386
      8  N4A        3.7450    8.3180   19.8670 N.3   505  PMP505     -0.1261
      9  C5         0.7410    9.9720   21.3890 C.ar  505  PMP505      0.0275
     10  C6        -0.4140    9.6000   22.0990 C.ar  505  PMP505      0.0965
     11  C5A        1.1560   11.4370   21.3330 C.3   505  PMP505      0.1816
     12  O4P        0.9730   11.8410   19.9450 O.3   505  PMP505     -0.2653
     13  P          1.8410   13.1610   19.4990 P.3   505  PMP505      0.5329
     14  O1P        1.8010   14.1950   20.5400 O.3   505  PMP505     -0.1145
     15  O2P        1.2270   13.5550   18.1600 O.2   505  PMP505     -0.2224
     16  O3P        3.3660   12.6780   19.3500 O.3   505  PMP505     -0.1145
@<TRIPOS>BOND
     1    15    13    2
     2    16    13    1
     3    13    12    1
     4    13    14    1
     5     8     7    1
     6    12    11    1
     7     7     6    1
     8     5     4    1
     9     6     4   ar
    10     6     9   ar
    11     4     2   ar
    12    11     9    1
    13     9    10   ar
    14     2     3    1
    15     2     1   ar
    16    10     1   ar
