@<TRIPOS>MOLECULE
4e3s_QTP_A_1.pdb
 30 32 0 0 0
SMALL
GASTEIGER

@<TRIPOS>ATOM
      1  O2A       -0.5470  -12.9320   50.3250 O.3   1001  QTP1001    -0.4371
      2  PA        -0.9200  -12.5640   48.9200 P.3   1001  QTP1001     0.2189
      3  O1A       -0.4370  -13.3120   47.7340 O.2   1001  QTP1001    -0.5170
      4  O3A       -2.5080  -12.7390   48.7130 O.3   1001  QTP1001    -0.2700
      5  PB        -3.7380  -12.3320   49.6630 P.3   1001  QTP1001     0.2277
      6  O1B       -4.5730  -11.3520   48.8690 O.2   1001  QTP1001    -0.5168
      7  O2B       -3.3270  -11.9630   51.0640 O.3   1001  QTP1001    -0.4368
      8  O3B       -4.5040  -13.7470   49.6210 O.3   1001  QTP1001    -0.2258
      9  PG        -4.2950  -15.0220   50.6010 P.3   1001  QTP1001     0.5373
     10  O3G       -4.2180  -16.1230   49.5790 O.2   1001  QTP1001    -0.2221
     11  O2G       -5.5430  -14.9880   51.4350 O.3   1001  QTP1001    -0.1143
     12  O1G       -3.0240  -14.8430   51.3880 O.3   1001  QTP1001    -0.1143
     13  O5'       -0.6040  -11.0030   48.6770 O.3   1001  QTP1001    -0.3112
     14  C5'       -0.8200  -10.0250   49.6930 C.3   1001  QTP1001     0.1812
     15  C4'       -1.3170   -8.7440   49.0120 C.3   1001  QTP1001     0.1772
     16  C3'       -2.6860   -8.8930   48.3910 C.3   1001  QTP1001     0.1857
     17  O3'       -3.7770   -8.8320   49.3290 O.3   1001  QTP1001    -0.2203
     18  C2'       -2.6890   -7.7770   47.3600 C.3   1001  QTP1001     0.0864
     19  C1'       -1.2250   -7.7360   46.8950 C.3   1001  QTP1001     0.1973
     20  O4'       -0.4610   -8.3670   47.9100 O.3   1001  QTP1001    -0.3348
     21  N9        -1.1060   -8.5820   45.6850 N.pl3 1001  QTP1001    -0.2489
     22  C4        -1.4950   -8.2180   44.4630 C.ar  1001  QTP1001     0.1521
     23  C5        -1.2170   -9.3740   43.5990 C.ar  1001  QTP1001     0.1096
     24  N7        -0.6890  -10.3340   44.3850 N.2   1001  QTP1001    -0.2452
     25  C8        -0.6360   -9.8450   45.6490 C.3   1001  QTP1001     0.2228
     26  N3        -2.0520   -7.0980   43.9320 N.ar  1001  QTP1001    -0.2275
     27  C2        -2.3340   -7.0310   42.6130 C.ar  1001  QTP1001     0.1004
     28  C1        -2.0890   -8.0530   41.7550 C.ar  1001  QTP1001     0.0223
     29  C6        -1.5450   -9.2380   42.1630 C.ar  1001  QTP1001     0.0216
     30  C7        -1.2990  -10.2740   41.3070 C.2   1001  QTP1001     0.0017
@<TRIPOS>BOND
     1    30    29    2
     2    28    29   ar
     3    28    27   ar
     4    29    23   ar
     5    27    26   ar
     6    23    24    2
     7    23    22   ar
     8    26    22   ar
     9    24    25    1
    10    22    21    1
    11    25    21    1
    12    21    19    1
    13    19    18    1
    14    19    20    1
    15    18    16    1
    16     3     2    2
    17    20    15    1
    18    16    15    1
    19    16    17    1
    20    13     2    1
    21    13    14    1
    22     4     2    1
    23     4     5    1
    24     6     5    2
    25     2     1    1
    26    15    14    1
    27    10     9    2
    28     8     5    1
    29     8     9    1
    30     5     7    1
    31     9    12    1
    32     9    11    1
