@<TRIPOS>MOLECULE
4e3t_HLN_B_1.pdb
 20 21 0 0 0
SMALL
GASTEIGER

@<TRIPOS>ATOM
      1  CAA       10.3500   32.1690   30.2690 C.3   404  HLN404      0.0000
      2  CAB       11.6370   31.5650   30.7350 C.3   404  HLN404      0.0000
      3  CAC       12.1020   31.5900   32.1630 C.3   404  HLN404      0.0000
      4  CAD       12.8880   30.4310   32.6900 C.3   404  HLN404      0.0007
      5  CAE       12.6900   30.0560   34.1380 C.3   404  HLN404      0.0140
      6  CAF       11.7760   28.8940   34.4250 C.3   404  HLN404      0.1313
      7  PAG       10.5820   29.0460   35.8480 P.3   404  HLN404      0.4175
      8  OAH       10.9370   28.0730   37.0970 O.3   404  HLN404     -0.1296
      9  OAI        9.1920   28.6080   35.3460 O.2   404  HLN404     -0.2411
     10  OAJ       10.4920   30.5750   36.1420 O.3   404  HLN404     -0.4208
     11  CAR        9.3320   31.3470   36.0570 C.ar  404  HLN404      0.1468
     12  CAQ        8.2730   31.1180   36.9410 C.ar  404  HLN404      0.0373
     13  CAK        7.0770   31.9020   36.9150 C.ar  404  HLN404      0.0030
     14  CAP        6.0160   31.6180   37.8350 C.ar  404  HLN404      0.0001
     15  CAO        4.8510   32.3880   37.8150 C.ar  404  HLN404      0.0000
     16  CAN        4.7390   33.4430   36.9090 C.ar  404  HLN404      0.0000
     17  CAM        5.7720   33.7070   36.0070 C.ar  404  HLN404      0.0000
     18  CAL        6.9630   32.9250   36.0200 C.ar  404  HLN404      0.0002
     19  CAT        8.0440   33.1890   35.1180 C.ar  404  HLN404      0.0031
     20  CAS        9.2090   32.4080   35.1430 C.ar  404  HLN404      0.0374
@<TRIPOS>BOND
     1     1     2    1
     2     2     3    1
     3     3     4    1
     4     4     5    1
     5     5     6    1
     6     6     7    1
     7    19    20   ar
     8    19    18   ar
     9    20    11   ar
    10     9     7    2
    11     7    10    1
    12     7     8    1
    13    17    18   ar
    14    17    16   ar
    15    18    13   ar
    16    11    10    1
    17    11    12   ar
    18    16    15   ar
    19    13    12   ar
    20    13    14   ar
    21    15    14   ar
