@<TRIPOS>MOLECULE
4e47_SAM_A_1.pdb
 27 29 0 0 0
SMALL
GASTEIGER

@<TRIPOS>ATOM
      1  N        -39.4180   20.1540   17.0100 N.3   401  SAM401     -0.1208
      2  CA       -38.1910   19.7630   17.6640 C.3   401  SAM401      0.1952
      3  C        -38.4110   19.5890   19.1600 C.2   401  SAM401      0.3819
      4  O        -37.4400   19.4490   19.9690 O.co2 401  SAM401     -0.2441
      5  OXT      -39.5570   19.5710   19.5840 O.co2 401  SAM401     -0.2441
      6  CB       -37.2470   20.9950   17.4330 C.3   401  SAM401      0.0414
      7  CG       -36.4410   20.9990   16.0730 C.3   401  SAM401      0.0503
      8  SD       -35.3650   19.4940   16.0710 S.3   401  SAM401     -0.1761
      9  CE       -33.8340   20.2910   15.3910 C.3   401  SAM401      0.0590
     10  C5'      -35.7990   18.5920   14.5680 C.3   401  SAM401      0.0806
     11  C4'      -37.0700   17.7880   14.7220 C.3   401  SAM401      0.1622
     12  O4'      -38.2510   18.6550   14.6670 O.3   401  SAM401     -0.3153
     13  C3'      -37.2940   16.8560   13.4860 C.3   401  SAM401      0.2168
     14  O3'      -36.6620   15.5900   13.7210 O.3   401  SAM401     -0.2175
     15  C2'      -38.8160   16.6900   13.4310 C.3   401  SAM401      0.2569
     16  O2'      -39.1910   15.7930   14.4710 O.3   401  SAM401     -0.2130
     17  C1'      -39.3050   18.0850   13.9080 C.3   401  SAM401      0.3185
     18  N9       -39.5690   19.0500   12.8180 N.pl3 401  SAM401     -0.1439
     19  C8       -38.7770   20.1200   12.3890 C.3   401  SAM401      0.3377
     20  N7       -39.3810   20.7810   11.4160 N.2   401  SAM401     -0.2095
     21  C5       -40.5830   20.1850   11.1610 C.2   401  SAM401      0.2526
     22  C6       -41.6170   20.4420   10.2460 C.2   401  SAM401      0.4393
     23  N6       -41.5170   21.5700    9.3560 N.pl3 401  SAM401      0.2180
     24  N1       -42.7140   19.5520   10.2720 N.2   401  SAM401      0.0021
     25  C2       -42.7510   18.4950   11.0910 C.3   401  SAM401      0.5254
     26  N3       -41.8150   18.2390   11.9990 N.2   401  SAM401     -0.0055
     27  C4       -40.7160   19.0510   12.0450 C.2   401  SAM401      0.3518
@<TRIPOS>BOND
     1    23    22    1
     2    22    24    2
     3    22    21    1
     4    24    25    1
     5    25    26    1
     6    21    20    2
     7    21    27    1
     8    20    19    1
     9    26    27    2
    10    27    18    1
    11    19    18    1
    12    18    17    1
    13    15    13    1
    14    15    17    1
    15    15    16    1
    16    13    14    1
    17    13    11    1
    18    17    12    1
    19    10    11    1
    20    10     8    1
    21    12    11    1
    22     9     8    1
    23     8     7    1
    24     7     6    1
    25     1     2    1
    26     6     2    1
    27     2     3    1
    28     3     5   ar
    29     3     4   ar
