@<TRIPOS>MOLECULE
4e47_0N6_A_1.pdb
 31 34 0 0 0
SMALL
GASTEIGER

@<TRIPOS>ATOM
      1  C9       -25.3650   16.8850    6.6410 C.ar  402  0N6402      0.0155
      2  C5       -24.7550   15.6270    6.7320 C.ar  402  0N6402     -0.0220
      3  C3       -24.0500   15.0390    5.4900 C.3   402  0N6402      0.0449
      4  C2       -23.8650   13.5250    5.6780 C.3   402  0N6402      0.0937
      5  N1       -23.2280   13.2660    6.9880 N.3   402  0N6402     -0.2129
      6  C1       -24.1610   13.5380    8.1120 C.3   402  0N6402      0.1147
      7  C4       -24.8030   14.9180    7.9380 C.ar  402  0N6402     -0.0086
      8  C6       -25.4770   15.4560    9.0250 C.ar  402  0N6402     -0.0018
      9  C7       -26.0270   16.7260    8.9490 C.ar  402  0N6402      0.0197
     10  C8       -26.0390   17.4170    7.7400 C.ar  402  0N6402      0.1232
     11  S1       -26.8430   18.9970    7.6660 S.O2  402  0N6402      0.0772
     12  O1       -26.5170   19.7730    8.9120 O.2   402  0N6402     -0.1516
     13  O3       -26.3550   19.7280    6.4430 O.2   402  0N6402     -0.1516
     14  N2       -28.5060   18.8300    7.5250 N.3   402  0N6402     -0.0696
     15  C10      -29.3110   18.5640    8.7350 C.3   402  0N6402      0.1780
     16  C12      -30.0410   19.8450    9.1780 C.2   402  0N6402      0.2437
     17  O2       -30.1480   20.8010    8.4040 O.2   402  0N6402     -0.2733
     18  N3       -30.5190   19.9480   10.4220 N.am  402  0N6402     -0.2784
     19  C13      -31.2210   21.1340   10.9480 C.3   402  0N6402      0.0935
     20  C14      -31.5360   20.8190   12.4270 C.3   402  0N6402      0.0233
     21  C15      -30.7990   19.5140   12.7500 C.3   402  0N6402      0.0233
     22  C16      -30.4530   18.8650   11.4210 C.3   402  0N6402      0.0935
     23  C11      -30.3470   17.4900    8.3470 C.3   402  0N6402      0.0550
     24  C17      -29.6530   16.1180    8.2720 C.ar  402  0N6402     -0.0196
     25  C22      -29.0120   15.7380    7.1000 C.ar  402  0N6402      0.0061
     26  C18      -29.5890   15.2860    9.3960 C.ar  402  0N6402     -0.0042
     27  C19      -28.9050   14.0680    9.3420 C.ar  402  0N6402      0.0004
     28  C20      -28.3240   13.6630    8.1440 C.ar  402  0N6402      0.0103
     29  C21      -28.3770   14.4960    7.0280 C.ar  402  0N6402      0.0681
     30  C23      -27.7620   14.0930    5.8020 C.1   402  0N6402      0.1004
     31  N4       -27.2700   13.7840    4.8240 N.1   402  0N6402     -0.1908
@<TRIPOS>BOND
     1    31    30    3
     2     3     4    1
     3     3     2    1
     4     4     5    1
     5    30    29    1
     6    13    11    2
     7     1     2   ar
     8     1    10   ar
     9     2     7   ar
    10     5     6    1
    11    29    25   ar
    12    29    28   ar
    13    25    24   ar
    14    14    11    1
    15    14    15    1
    16    11    10    1
    17    11    12    2
    18    10     9   ar
    19     7     6    1
    20     7     8   ar
    21    28    27   ar
    22    24    23    1
    23    24    26   ar
    24    23    15    1
    25    17    16    2
    26    15    16    1
    27     9     8   ar
    28    16    18   am
    29    27    26   ar
    30    18    19    1
    31    18    22    1
    32    19    20    1
    33    22    21    1
    34    20    21    1
