@<TRIPOS>MOLECULE
4e4a_JKE_A_1.pdb
 10 10 0 0 0
SMALL
GASTEIGER

@<TRIPOS>ATOM
      1  SD        15.0270    4.4040   14.0040 S.3   302  JKE302     -0.0505
      2  CG        16.7260    2.3700   15.2740 C.2   302  JKE302      0.3883
      3  CZ        17.4480    3.4770   14.5920 C.ar  302  JKE302      0.0862
      4  CD1       17.4330    5.4910   13.3220 C.ar  302  JKE302      0.0072
      5  OD1       15.4710    2.1550   15.1570 O.co2 302  JKE302     -0.2405
      6  CD2       19.4930    4.6050   13.9610 C.ar  302  JKE302      0.0002
      7  OD2       17.4000    1.7780   16.0980 O.co2 302  JKE302     -0.2405
      8  CE1       16.7520    4.4780   13.9840 C.ar  302  JKE302      0.0420
      9  CE2       18.8470    3.5410   14.6110 C.ar  302  JKE302      0.0071
     10  CG1       18.7810    5.5910   13.3150 C.ar  302  JKE302      0.0005
@<TRIPOS>BOND
     1    10     4   ar
     2    10     6   ar
     3     4     8   ar
     4     6     9   ar
     5     8     1    1
     6     8     3   ar
     7     3     9   ar
     8     3     2    1
     9     5     2   ar
    10     2     7   ar
