@<TRIPOS>MOLECULE
4e4k_RRG_A_1.pdb
 27 29 0 0 0
SMALL
GASTEIGER

@<TRIPOS>ATOM
      1  CAA       20.0710   13.7430   14.4240 C.3   501  RRG501      0.0047
      2  CAZ       19.6290   14.8700   13.4880 C.3   501  RRG501      0.0224
      3  CAB       19.1870   14.3020   12.1380 C.3   501  RRG501      0.0047
      4  CAY       20.7700   15.8770   13.3110 C.ar  501  RRG501     -0.0225
      5  CAM       21.9630   15.6360   13.9850 C.ar  501  RRG501     -0.0043
      6  CAI       23.0480   16.4950   13.8460 C.ar  501  RRG501     -0.0003
      7  CAH       22.9380   17.6070   13.0220 C.ar  501  RRG501     -0.0000
      8  CAL       21.7460   17.8510   12.3490 C.ar  501  RRG501     -0.0003
      9  CAX       20.6580   16.9970   12.4890 C.ar  501  RRG501     -0.0040
     10  CAW       19.4680   17.3520   11.8590 C.ar  501  RRG501     -0.0001
     11  CAQ       18.2400   17.1120   12.4660 C.ar  501  RRG501      0.0031
     12  CAO       17.0630   17.5710   11.8870 C.ar  501  RRG501      0.0369
     13  CAP       19.5030   18.0560   10.6590 C.ar  501  RRG501      0.0031
     14  CAN       18.3280   18.5200   10.0770 C.ar  501  RRG501      0.0369
     15  CAV       17.1030   18.2790   10.6910 C.ar  501  RRG501      0.1392
     16  OAS       15.9220   18.6470   10.1220 O.3   501  RRG501     -0.4673
     17  CBA       15.8570   20.0020    9.6490 C.3   501  RRG501      0.2719
     18  CAT       14.3790   20.2490    9.3340 C.2   501  RRG501      0.4044
     19  OAD       13.6870   19.2640    9.0010 O.co2 501  RRG501     -0.2416
     20  OAC       13.9390   21.4130    9.4350 O.co2 501  RRG501     -0.2416
     21  CAR       16.6940   20.1790    8.3800 C.3   501  RRG501      0.0818
     22  CAU       16.6780   21.6110    7.8350 C.ar  501  RRG501     -0.0180
     23  CAJ       15.4890   22.1820    7.3900 C.ar  501  RRG501     -0.0041
     24  CAF       15.4870   23.4520    6.8250 C.ar  501  RRG501     -0.0003
     25  CAE       16.6800   24.1570    6.7100 C.ar  501  RRG501     -0.0000
     26  CAG       17.8700   23.5910    7.1540 C.ar  501  RRG501     -0.0003
     27  CAK       17.8680   22.3200    7.7190 C.ar  501  RRG501     -0.0041
@<TRIPOS>BOND
     1    25    24   ar
     2    25    26   ar
     3    24    23   ar
     4    26    27   ar
     5    23    22   ar
     6    27    22   ar
     7    22    21    1
     8    21    17    1
     9    19    18   ar
    10    18    20   ar
    11    18    17    1
    12    17    16    1
    13    14    13   ar
    14    14    15   ar
    15    16    15    1
    16    13    10   ar
    17    15    12   ar
    18    10    11   ar
    19    10     9    1
    20    12    11   ar
    21     3     2    1
    22     8     9   ar
    23     8     7   ar
    24     9     4   ar
    25     7     6   ar
    26     4     2    1
    27     4     5   ar
    28     2     1    1
    29     6     5   ar
