@<TRIPOS>MOLECULE
4e4l_0NH_A_1.pdb
 23 26 0 0 0
SMALL
GASTEIGER

@<TRIPOS>ATOM
      1  C1       -14.7900   29.4150   -2.9370 C.3   1201  0NH1201     0.0200
      2  C2       -14.4500   29.8380   -1.4630 C.3   1201  0NH1201     0.0624
      3  C3       -13.3210   30.8720   -1.4940 C.3   1201  0NH1201     0.0374
      4  C4       -13.7340   32.2480   -2.0370 C.3   1201  0NH1201     0.0971
      5  N5       -15.0920   32.6590   -1.6540 N.3   1201  0NH1201    -0.1593
      6  C6       -16.1700   31.6770   -1.3680 C.3   1201  0NH1201     0.0971
      7  C7       -15.6690   30.3740   -0.7370 C.3   1201  0NH1201     0.0374
      8  S8       -15.4580   34.2610   -1.7090 S.O2  1201  0NH1201     0.0457
      9  O9       -16.4580   34.5080   -0.7220 O.2   1201  0NH1201    -0.1572
     10  O10      -14.2310   34.9970   -1.6310 O.2   1201  0NH1201    -0.1572
     11  C11      -16.1520   34.5190   -3.3760 C.3   1201  0NH1201     0.1960
     12  N12      -13.9060   28.6540   -0.7500 N.pl3 1201  0NH1201    -0.2889
     13  C13      -12.6240   28.5700   -0.2450 C.3   1201  0NH1201     0.2195
     14  N14      -12.4460   27.3780    0.2460 N.2   1201  0NH1201    -0.2491
     15  C15      -13.5620   26.6170    0.0930 C.2   1201  0NH1201     0.0950
     16  C16      -14.5110   27.4270   -0.5570 C.2   1201  0NH1201     0.0739
     17  C17      -15.7690   26.8570   -0.8470 C.2   1201  0NH1201     0.0782
     18  C18      -17.0070   27.3460   -1.4840 C.2   1201  0NH1201     0.0327
     19  C19      -17.8560   26.3220   -1.4920 C.2   1201  0NH1201     0.1103
     20  N20      -17.2670   25.2280   -0.9140 N.2   1201  0NH1201    -0.1925
     21  C22      -16.0040   25.5160   -0.4990 C.1   1201  0NH1201     0.0325
     22  N23      -15.0720   24.7740    0.1140 N.2   1201  0NH1201    -0.2134
     23  C24      -13.8910   25.3000    0.4320 C.3   1201  0NH1201     0.1825
@<TRIPOS>BOND
     1    11     8    1
     2     1     2    1
     3     4     5    1
     4     4     3    1
     5     8     5    1
     6     8    10    2
     7     8     9    2
     8     5     6    1
     9     3     2    1
    10    19    18    2
    11    19    20    1
    12    18    17    1
    13     2    12    1
    14     2     7    1
    15     6     7    1
    16    20    21    2
    17    17    16    2
    18    17    21    1
    19    12    16    1
    20    12    13    1
    21    16    15    1
    22    21    22    2
    23    13    14    1
    24    15    14    2
    25    15    23    1
    26    22    23    1
