@<TRIPOS>MOLECULE
4e4m_0NH_A_1.pdb
 23 26 0 0 0
SMALL
GASTEIGER

@<TRIPOS>ATOM
      1  C1        12.4990  -28.8160  -36.7070 C.3   1201  0NH1201     0.0200
      2  C2        11.1190  -28.2600  -36.3000 C.3   1201  0NH1201     0.0624
      3  C3        10.9060  -28.4170  -34.7890 C.3   1201  0NH1201     0.0374
      4  C4        11.9100  -27.5590  -34.0000 C.3   1201  0NH1201     0.0971
      5  N5        11.9130  -26.1730  -34.5270 N.3   1201  0NH1201    -0.1593
      6  C6        12.0760  -25.9470  -35.9740 C.3   1201  0NH1201     0.0971
      7  C7        11.0290  -26.7800  -36.7080 C.3   1201  0NH1201     0.0374
      8  S8        11.7960  -24.8680  -33.4950 S.O2  1201  0NH1201     0.0457
      9  O9        11.0800  -25.3550  -32.3700 O.2   1201  0NH1201    -0.1572
     10  O10       13.1720  -24.4820  -33.3600 O.2   1201  0NH1201    -0.1572
     11  C11       10.8580  -23.6130  -34.3810 C.3   1201  0NH1201     0.1960
     12  N12       10.0720  -29.0030  -37.0180 N.pl3 1201  0NH1201    -0.2889
     13  C13       10.2840  -30.0140  -37.9150 C.3   1201  0NH1201     0.2195
     14  N14        9.1470  -30.4450  -38.3860 N.2   1201  0NH1201    -0.2491
     15  C15        8.1310  -29.7330  -37.8350 C.2   1201  0NH1201     0.0950
     16  C16        8.7070  -28.7990  -36.9520 C.2   1201  0NH1201     0.0739
     17  C17        7.8440  -27.9390  -36.2510 C.2   1201  0NH1201     0.0782
     18  C18        8.0260  -26.8730  -35.2670 C.2   1201  0NH1201     0.0327
     19  C19        6.8160  -26.4140  -34.9470 C.2   1201  0NH1201     0.1103
     20  N20        5.8660  -27.0900  -35.6520 N.2   1201  0NH1201    -0.1925
     21  C22        6.4580  -28.0350  -36.4560 C.1   1201  0NH1201     0.0325
     22  N23        5.9720  -28.9330  -37.3060 N.2   1201  0NH1201    -0.2134
     23  C24        6.7450  -29.7640  -37.9680 C.3   1201  0NH1201     0.1825
@<TRIPOS>BOND
     1    14    13    1
     2    14    15    2
     3    23    15    1
     4    23    22    1
     5    13    12    1
     6    15    16    1
     7    22    21    2
     8    12    16    1
     9    12     2    1
    10    16    17    2
    11     7     2    1
    12     7     6    1
    13     1     2    1
    14    21    17    1
    15    21    20    2
    16     2     3    1
    17    17    18    1
    18     6     5    1
    19    20    19    1
    20    18    19    2
    21     3     4    1
    22     5     4    1
    23     5     8    1
    24    11     8    1
    25     8    10    2
    26     8     9    2
