@<TRIPOS>MOLECULE
4e4n_0NL_A_1.pdb
 25 28 0 0 0
SMALL
GASTEIGER

@<TRIPOS>ATOM
      1  C1         3.8640   49.8290   -0.5440 C.3   1201  0NL1201     0.0437
      2  C2         4.0870   49.7010    0.9560 C.3   1201  0NL1201     0.1379
      3  C3         2.7790   49.1970    1.5660 C.3   1201  0NL1201     0.0437
      4  C4         5.2050   48.7000    1.2780 C.3   1201  0NL1201     0.0437
      5  O5         4.3510   51.0220    1.5170 O.3   1201  0NL1201    -0.4408
      6  C6         5.4870   51.7330    1.3720 C.2   1201  0NL1201     0.4208
      7  O7         6.3550   51.4420    0.5600 O.2   1201  0NL1201    -0.2246
      8  N8         5.6140   52.8240    2.1640 N.am  1201  0NL1201    -0.1704
      9  C9         6.8280   53.6530    2.1250 C.3   1201  0NL1201     0.1004
     10  C11        6.7780   54.5890    3.3560 C.3   1201  0NL1201     0.0235
     11  C12        7.0860   55.9980    2.8010 C.3   1201  0NL1201     0.0216
     12  C13        6.6160   55.9510    1.3280 C.3   1201  0NL1201     0.0764
     13  C15        6.9670   54.5290    0.8590 C.3   1201  0NL1201     0.0415
     14  N16        7.3400   57.0570    0.6780 N.pl3 1201  0NL1201    -0.2874
     15  C17        8.5820   57.0540    0.0880 C.3   1201  0NL1201     0.2196
     16  N18        8.8670   58.2640   -0.3340 N.2   1201  0NL1201    -0.2491
     17  C19        7.8440   59.1030   -0.0240 C.2   1201  0NL1201     0.0950
     18  C20        6.8570   58.3330    0.6360 C.2   1201  0NL1201     0.0740
     19  C21        5.6730   58.9630    1.0720 C.2   1201  0NL1201     0.0782
     20  C22        4.4520   58.5190    1.7730 C.2   1201  0NL1201     0.0327
     21  C23        3.6790   59.6060    1.8970 C.2   1201  0NL1201     0.1103
     22  N24        4.3060   60.7040    1.3450 N.2   1201  0NL1201    -0.1925
     23  C26        5.5220   60.3420    0.8250 C.1   1201  0NL1201     0.0325
     24  N27        6.4920   61.0380    0.2030 N.2   1201  0NL1201    -0.2134
     25  C28        7.6060   60.4750   -0.2120 C.3   1201  0NL1201     0.1825
@<TRIPOS>BOND
     1     1     2    1
     2    16    17    2
     3    16    15    1
     4    25    17    1
     5    25    24    1
     6    17    18    1
     7    15    14    1
     8    24    23    2
     9     7     6    2
    10    18    14    1
    11    18    19    2
    12    14    12    1
    13    23    19    1
    14    23    22    2
    15    13    12    1
    16    13     9    1
    17     2     4    1
    18     2     5    1
    19     2     3    1
    20    19    20    1
    21    12    11    1
    22    22    21    1
    23     6     5    1
    24     6     8   am
    25    20    21    2
    26     9     8    1
    27     9    10    1
    28    11    10    1
