@<TRIPOS>MOLECULE
4e4q_RRH_A_1.pdb
 27 29 0 0 0
SMALL
GASTEIGER

@<TRIPOS>ATOM
      1  CAA       14.4420   17.3100   11.8810 C.3   501  RRH501      0.0047
      2  CAZ       15.0480   17.9440   10.6280 C.3   501  RRH501      0.0224
      3  CAB       14.4550   17.3160    9.3650 C.3   501  RRH501      0.0047
      4  CAY       16.5660   17.7330   10.6430 C.ar  501  RRH501     -0.0225
      5  CAM       17.0490   16.5690   11.2360 C.ar  501  RRH501     -0.0043
      6  CAI       18.4120   16.3120   11.2820 C.ar  501  RRH501     -0.0003
      7  CAH       19.3030   17.2260   10.7310 C.ar  501  RRH501     -0.0000
      8  CAL       18.8200   18.3880   10.1390 C.ar  501  RRH501     -0.0003
      9  CAX       17.4540   18.6500   10.0910 C.ar  501  RRH501     -0.0040
     10  CAW       17.0530   19.8350    9.4750 C.ar  501  RRH501     -0.0001
     11  CAQ       18.0200   20.6510    8.8990 C.ar  501  RRH501      0.0031
     12  CAO       17.6600   21.8340    8.2600 C.ar  501  RRH501      0.0369
     13  CAP       15.7190   20.2190    9.4110 C.ar  501  RRH501      0.0031
     14  CAN       15.3590   21.4050    8.7790 C.ar  501  RRH501      0.0369
     15  CAV       16.3260   22.2180    8.1990 C.ar  501  RRH501      0.1392
     16  OAS       15.9970   23.3610    7.5380 O.3   501  RRH501     -0.4673
     17  CBA       14.8800   24.0860    8.0760 C.3   501  RRH501      0.2719
     18  CAT       13.5710   23.4450    7.6130 C.2   501  RRH501      0.4044
     19  OAD       12.4950   23.9870    7.9420 O.co2 501  RRH501     -0.2416
     20  OAC       13.6410   22.4150    6.9100 O.co2 501  RRH501     -0.2416
     21  CAR       14.9800   24.2010    9.6000 C.3   501  RRH501      0.0818
     22  CAU       14.0230   25.2500   10.1820 C.ar  501  RRH501     -0.0180
     23  CAJ       12.6450   25.0240   10.1980 C.ar  501  RRH501     -0.0041
     24  CAF       11.7910   25.9840   10.7310 C.ar  501  RRH501     -0.0003
     25  CAE       12.3060   27.1770   11.2350 C.ar  501  RRH501     -0.0000
     26  CAG       13.6780   27.4060   11.2120 C.ar  501  RRH501     -0.0003
     27  CAK       14.5380   26.4390   10.6950 C.ar  501  RRH501     -0.0041
@<TRIPOS>BOND
     1    20    18   ar
     2    16    17    1
     3    16    15    1
     4    18    19   ar
     5    18    17    1
     6    17    21    1
     7    15    12   ar
     8    15    14   ar
     9    12    11   ar
    10    14    13   ar
    11    11    10   ar
    12     3     2    1
    13    13    10   ar
    14    10     9    1
    15    21    22    1
    16     9     8   ar
    17     9     4   ar
    18     8     7   ar
    19    22    23   ar
    20    22    27   ar
    21    23    24   ar
    22     2     4    1
    23     2     1    1
    24     4     5   ar
    25    27    26   ar
    26     7     6   ar
    27    24    25   ar
    28    26    25   ar
    29     5     6   ar
