@<TRIPOS>MOLECULE
4e4x_T1Q_A_1.pdb
 32 34 0 0 0
SMALL
GASTEIGER

@<TRIPOS>ATOM
      1  N1        19.2610  -25.1770   -1.6080 N.2   801  T1Q801     -0.1685
      2  C2        18.6650  -23.9740   -1.6470 C.1   801  T1Q801      0.1666
      3  N3        17.3620  -23.7350   -1.8970 N.2   801  T1Q801     -0.3182
      4  C4        16.5700  -24.8030   -2.1240 C.ar  801  T1Q801      0.2117
      5  C5        17.1170  -26.0880   -2.1010 C.ar  801  T1Q801      0.0676
      6  C6        18.4890  -26.2520   -1.8320 C.2   801  T1Q801      0.1158
      7  N7        15.1670  -24.6770   -2.4030 N.ar  801  T1Q801     -0.2681
      8  C8        14.3290  -25.7420   -2.6450 C.ar  801  T1Q801      0.2628
      9  C9        14.8850  -27.0450   -2.6190 C.ar  801  T1Q801      0.0608
     10  C10       16.2570  -27.2330   -2.3510 C.ar  801  T1Q801      0.0106
     11  C11       14.6090  -23.3150   -2.4250 C.3   801  T1Q801      0.1361
     12  O12       13.1320  -25.5660   -2.8790 O.2   801  T1Q801     -0.2669
     13  C13       14.0370  -28.2120   -2.8720 C.ar  801  T1Q801      0.0608
     14  C14       13.6360  -28.5170   -4.1810 C.ar  801  T1Q801      0.1590
     15  C15       12.8300  -29.6410   -4.4340 C.ar  801  T1Q801      0.1181
     16  C16       12.4210  -30.4630   -3.3670 C.ar  801  T1Q801      0.0226
     17  C17       12.8170  -30.1580   -2.0530 C.ar  801  T1Q801      0.0312
     18  C18       13.6260  -29.0330   -1.8080 C.ar  801  T1Q801      0.1425
     19  F19       14.0100  -28.7400   -0.5440 F     801  T1Q801     -0.2041
     20  F20       14.0290  -27.7280   -5.2060 F     801  T1Q801     -0.2027
     21  N21       12.4530  -29.9340   -5.6980 N.pl3 801  T1Q801     -0.0984
     22  N22       19.4610  -22.8870   -1.4190 N.pl3 801  T1Q801     -0.1620
     23  S23       11.5470  -31.1830   -6.1770 S.O2  801  T1Q801      0.0732
     24  C24       12.7350  -32.5770   -5.9850 C.3   801  T1Q801      0.1744
     25  O25       10.4400  -31.4630   -5.2510 O.2   801  T1Q801     -0.1529
     26  O26       11.2220  -31.1270   -7.6090 O.2   801  T1Q801     -0.1529
     27  C27       13.5690  -32.8040   -7.2490 C.3   801  T1Q801      0.0274
     28  C28       14.5930  -33.9330   -7.0960 C.3   801  T1Q801      0.0019
     29  C29       19.0530  -21.4890   -1.4110 C.3   801  T1Q801      0.1279
     30  C30       18.2210  -21.1260   -2.6550 C.3   801  T1Q801      0.0598
     31  C31       17.9450  -19.6160   -2.7790 C.3   801  T1Q801      0.1840
     32  O32       16.7840  -19.3940   -3.5530 O.3   801  T1Q801     -0.2204
@<TRIPOS>BOND
     1    26    23    2
     2    27    28    1
     3    27    24    1
     4    23    24    1
     5    23    21    1
     6    23    25    2
     7    21    15    1
     8    20    14    1
     9    15    14   ar
    10    15    16   ar
    11    14    13   ar
    12    32    31    1
    13    16    17   ar
    14    12     8    2
    15    13     9    1
    16    13    18   ar
    17    31    30    1
    18    30    29    1
    19     8     9   ar
    20     8     7   ar
    21     9    10   ar
    22    11     7    1
    23     7     4   ar
    24    10     5   ar
    25     4     5   ar
    26     4     3    2
    27     5     6    2
    28    17    18   ar
    29     3     2    2
    30     6     1    1
    31    18    19    1
    32     2     1    2
    33     2    22    1
    34    22    29    1
