@<TRIPOS>MOLECULE
4e51_HIS_A_1.pdb
 11 11 0 0 0
SMALL
GASTEIGER

@<TRIPOS>ATOM
      1  N          8.3390    0.0420   54.5440 N.3   501  HIS501     -0.1204
      2  CA         8.1690   -1.4270   54.3880 C.3   501  HIS501      0.1999
      3  C          8.9970   -2.0000   53.2990 C.2   501  HIS501      0.3822
      4  O          9.7600   -1.3140   52.6420 O.co2 501  HIS501     -0.2440
      5  CB         6.6890   -1.7570   54.1190 C.3   501  HIS501      0.0740
      6  CG         5.7290   -1.0120   55.0280 C.2   501  HIS501      0.0651
      7  ND1        5.5450   -1.3470   56.3140 N.2   501  HIS501     -0.2310
      8  CD2        4.9210    0.0700   54.7930 C.3   501  HIS501      0.1683
      9  CE1        4.6520   -0.5270   56.8560 C.2   501  HIS501      0.1939
     10  NE2        4.2660    0.3340   55.9260 N.2   501  HIS501     -0.2440
     11  OXT        8.8740   -3.1730   52.9750 O.co2 501  HIS501     -0.2440
@<TRIPOS>BOND
     1     4     3   ar
     2    11     3   ar
     3     3     2    1
     4     5     2    1
     5     5     6    1
     6     2     1    1
     7     8     6    1
     8     8    10    1
     9     6     7    2
    10    10     9    2
    11     7     9    1
