@<TRIPOS>MOLECULE
4e5d_0NJ_A_1.pdb
 18 20 0 0 0
SMALL
GASTEIGER

@<TRIPOS>ATOM
      1  F16       13.2550   35.5320    9.9970 F     601  0NJ601     -0.2041
      2  C11       12.9370   35.3730    8.7130 C.ar  601  0NJ601      0.1430
      3  C12       12.7610   34.1000    8.1730 C.ar  601  0NJ601      0.0297
      4  C13       12.4510   33.9520    6.8290 C.ar  601  0NJ601      0.0023
      5  C14       12.2960   35.0840    6.0440 C.ar  601  0NJ601      0.0002
      6  C15       12.4550   36.3520    6.5800 C.ar  601  0NJ601      0.0053
      7  C10       12.7670   36.4990    7.9150 C.ar  601  0NJ601      0.0630
      8  C8        13.0070   37.8590    8.4730 C.2   601  0NJ601      0.1593
      9  S7        13.2990   38.3550   10.0920 S.3   601  0NJ601     -0.0714
     10  C2        13.5330   40.0440    9.7190 C.3   601  0NJ601      0.1312
     11  N9        13.1460   38.9390    7.6850 N.2   601  0NJ601     -0.3987
     12  C3        13.4010   40.1560    8.3320 C.2   601  0NJ601      0.1240
     13  C4        13.5370   41.4060    7.6680 C.2   601  0NJ601      0.0319
     14  C5        13.8180   42.5620    8.3970 C.2   601  0NJ601      0.0389
     15  C6        13.9640   42.4720    9.7940 C.2   601  0NJ601      0.1358
     16  C1        13.8260   41.2190   10.4410 C.2   601  0NJ601      0.0287
     17  O17       14.2310   43.6200   10.5140 O.2   601  0NJ601     -0.4717
     18  C18       14.8160   43.5540   11.7600 C.3   601  0NJ601      0.2525
@<TRIPOS>BOND
     1     5     6   ar
     2     5     4   ar
     3     6     7   ar
     4     4     3   ar
     5    13    12    1
     6    13    14    2
     7    11    12    2
     8    11     8    2
     9     7     8    1
    10     7     2   ar
    11     3     2   ar
    12    12    10    1
    13    14    15    1
    14     8     9    1
    15     2     1    1
    16    10     9    1
    17    10    16    1
    18    15    16    2
    19    15    17    1
    20    17    18    1
