@<TRIPOS>MOLECULE
4e5f_0N7_A_1.pdb
 13 14 0 0 0
SMALL
GASTEIGER

@<TRIPOS>ATOM
      1  O13      -14.3240  -19.1740  -24.5220 O.2   305  0N7305     -0.2134
      2  C10      -13.3700  -18.3580  -24.5190 C.2   305  0N7305      0.4213
      3  N9       -12.7390  -18.0390  -23.3040 N.am  305  0N7305     -0.1211
      4  O12      -13.1410  -18.5760  -22.2640 O.co2 305  0N7305     -0.5520
      5  C8       -11.6550  -17.1240  -23.2640 C.2   305  0N7305      0.4020
      6  O11      -11.1160  -16.8650  -22.1690 O.2   305  0N7305     -0.2175
      7  C7       -11.1080  -16.4340  -24.4950 C.3   305  0N7305      0.1704
      8  C2       -11.7970  -16.7940  -25.7320 C.ar  305  0N7305      0.0013
      9  C3       -12.8710  -17.7040  -25.7730 C.ar  305  0N7305      0.1031
     10  C4       -13.4770  -17.9940  -26.9990 C.ar  305  0N7305      0.0092
     11  C5       -13.0260  -17.3870  -28.1790 C.ar  305  0N7305      0.0003
     12  C6       -11.9560  -16.4840  -28.1360 C.ar  305  0N7305     -0.0003
     13  C1       -11.3460  -16.1920  -26.9120 C.ar  305  0N7305     -0.0033
@<TRIPOS>UNITY_ATOM_ATTR
3 1
charge 1
4 1
charge -1
@<TRIPOS>BOND
     1    11    12   ar
     2    11    10   ar
     3    12    13   ar
     4    10     9   ar
     5    13     8   ar
     6     9     8   ar
     7     9     2    1
     8     8     7    1
     9     1     2    2
    10     2     3    1
    11     7     5    1
    12     3     5    1
    13     3     4    1
    14     5     6    2
