@<TRIPOS>MOLECULE
4e5g_XI7_A_1.pdb
 14 14 0 0 0
SMALL
GASTEIGER

@<TRIPOS>ATOM
      1  O8       -13.0550  -18.3250  -22.6650 O.2   305  XI7305     -0.2794
      2  C9       -12.8910  -18.0560  -23.9550 C.2   305  XI7305      0.2779
      3  C10      -13.7900  -18.6560  -24.9240 C.2   305  XI7305      0.4262
      4  O11      -14.6860  -19.4090  -24.4950 O.co2 305  XI7305     -0.2369
      5  O10      -13.6390  -18.4010  -26.1400 O.co2 305  XI7305     -0.2369
      6  C8       -11.9240  -17.2480  -24.3980 C.2   305  XI7305      0.0910
      7  C7       -10.9600  -16.5860  -23.5090 C.2   305  XI7305      0.1991
      8  C1        -9.9120  -15.6960  -24.1160 C.ar  305  XI7305      0.0391
      9  C6        -8.9810  -15.0470  -23.2950 C.ar  305  XI7305      0.0032
     10  C5        -8.0100  -14.2240  -23.8690 C.ar  305  XI7305      0.0001
     11  C4        -7.9760  -14.0490  -25.2560 C.ar  305  XI7305      0.0000
     12  C3        -8.9070  -14.6960  -26.0790 C.ar  305  XI7305      0.0001
     13  C2        -9.8720  -15.5180  -25.5080 C.ar  305  XI7305      0.0032
     14  O14      -11.0060  -16.7600  -22.3050 O.2   305  XI7305     -0.2865
@<TRIPOS>BOND
     1     5     3   ar
     2    12    13   ar
     3    12    11   ar
     4    13     8   ar
     5    11    10   ar
     6     3     4   ar
     7     3     2    1
     8     6     2    2
     9     6     7    1
    10     8     7    1
    11     8     9   ar
    12     2     1    1
    13    10     9   ar
    14     7    14    2
