@<TRIPOS>MOLECULE
4e5h_0N8_D_1.pdb
 29 31 0 0 0
SMALL
GASTEIGER

@<TRIPOS>ATOM
      1 CL2       -49.3350   -9.9390   27.9780 Cl    305  0N8305     -0.0822
      2  C19      -50.0660  -11.1180   26.8350 C.ar  305  0N8305      0.0577
      3  C18      -49.2650  -11.8530   25.9700 C.ar  305  0N8305      0.0111
      4  C17      -49.8410  -12.7630   25.0890 C.ar  305  0N8305     -0.0034
      5  C20      -51.4430  -11.2970   26.8140 C.ar  305  0N8305      0.0111
      6  C21      -52.0180  -12.2060   25.9330 C.ar  305  0N8305     -0.0034
      7  C16      -51.2190  -12.9450   25.0730 C.ar  305  0N8305     -0.0217
      8  C15      -51.8590  -13.9210   24.1110 C.3   305  0N8305      0.0333
      9  C11      -51.5860  -15.3760   24.4710 C.3   305  0N8305      0.0583
     10  C10      -51.9140  -15.6400   25.9310 C.3   305  0N8305      0.0246
     11  C9       -53.3250  -15.1620   26.2270 C.3   305  0N8305      0.0728
     12  C14      -50.1490  -15.7170   24.2040 C.2   305  0N8305      0.1534
     13  O27      -49.7960  -15.7750   23.0370 O.2   305  0N8305     -0.2960
     14  C22      -49.2020  -15.9960   25.3580 C.3   305  0N8305      0.1091
     15  C23      -48.2510  -16.8710   24.9990 C.3   305  0N8305      0.2612
     16  O28      -48.0340  -17.0940   23.7170 O.3   305  0N8305     -0.2104
     17  C24      -47.4350  -17.5820   25.9830 C.2   305  0N8305      0.3951
     18  O26      -47.6260  -17.3760   27.1970 O.co2 305  0N8305     -0.2428
     19  O25      -46.5580  -18.3810   25.5820 O.co2 305  0N8305     -0.2428
     20  C12      -52.4130  -16.2720   23.5620 C.3   305  0N8305      0.0246
     21  C13      -53.7620  -16.5720   24.1870 C.3   305  0N8305      0.0728
     22  N8       -54.0600  -15.4050   24.9960 N.3   305  0N8305     -0.2689
     23  C7       -55.1090  -14.4960   24.5790 C.3   305  0N8305      0.0991
     24  C2       -56.2120  -15.3470   24.0080 C.ar  305  0N8305     -0.0061
     25  C3       -57.4970  -15.2710   24.5300 C.ar  305  0N8305     -0.0029
     26  C4       -58.5090  -16.0610   23.9990 C.ar  305  0N8305     -0.0003
     27  C5       -58.2240  -16.9250   22.9520 C.ar  305  0N8305     -0.0000
     28  C6       -56.9350  -16.9980   22.4360 C.ar  305  0N8305     -0.0003
     29  C1       -55.9240  -16.2110   22.9650 C.ar  305  0N8305     -0.0029
@<TRIPOS>BOND
     1    28    27   ar
     2    28    29   ar
     3    27    26   ar
     4    29    24   ar
     5    13    12    2
     6    20    21    1
     7    20     9    1
     8    16    15    1
     9    26    25   ar
    10    24    25   ar
    11    24    23    1
    12     8     9    1
    13     8     7    1
    14    21    22    1
    15    12     9    1
    16    12    14    1
    17     9    10    1
    18    23    22    1
    19    22    11    1
    20    15    14    1
    21    15    17    1
    22     7     4   ar
    23     7     6   ar
    24     4     3   ar
    25    19    17   ar
    26    10    11    1
    27     6     5   ar
    28     3     2   ar
    29    17    18   ar
    30     5     2   ar
    31     2     1    1
