@<TRIPOS>MOLECULE
4e5i_0N9_B_1.pdb
 17 18 0 0 0
SMALL
GASTEIGER

@<TRIPOS>ATOM
      1  O16      -53.9320  -16.4540  -19.4550 O.co2 305  0N9305     -0.2379
      2  C14      -55.0860  -15.9670  -19.5030 C.2   305  0N9305      0.4173
      3  O15      -55.3660  -14.9720  -20.2120 O.co2 305  0N9305     -0.2379
      4  C3       -56.1710  -16.6010  -18.6840 C.2   305  0N9305      0.2479
      5  C2       -55.8250  -17.5120  -17.5740 C.3   305  0N9305      0.3273
      6  O13      -54.5280  -17.7870  -17.2770 O.3   305  0N9305     -0.1956
      7  N4       -57.4820  -16.3650  -18.9330 N.2   305  0N9305     -0.3321
      8  C5       -58.4680  -16.9380  -18.1830 C.1   305  0N9305      0.1647
      9  N6       -58.2040  -17.7780  -17.1620 N.2   305  0N9305     -0.2663
     10  C1       -56.9500  -18.1000  -16.8060 C.1   305  0N9305      0.2282
     11  O12      -56.7340  -18.8820  -15.8470 O.2   305  0N9305     -0.2104
     12  C7       -59.8990  -16.6580  -18.5080 C.2   305  0N9305      0.1571
     13  N11      -60.6910  -15.6870  -18.0010 N.2   305  0N9305     -0.2433
     14  C10      -61.9100  -15.8200  -18.5790 C.3   305  0N9305      0.2018
     15  N9       -61.8890  -16.8580  -19.4370 N.3   305  0N9305     -0.2449
     16  C17      -63.0220  -17.3410  -20.2710 C.3   305  0N9305      0.0916
     17  C8       -60.6640  -17.3910  -19.4090 C.3   305  0N9305      0.1325
@<TRIPOS>BOND
     1    16    15    1
     2     3     2   ar
     3     2     1   ar
     4     2     4    1
     5    15    17    1
     6    15    14    1
     7    17    12    1
     8     7     4    2
     9     7     8    2
    10     4     5    1
    11    14    13    1
    12    12     8    1
    13    12    13    2
    14     8     9    2
    15     5     6    1
    16     5    10    1
    17     9    10    2
    18    10    11    2
