@<TRIPOS>MOLECULE
4e5j_581_A_1.pdb
 21 22 0 0 0
SMALL
GASTEIGER

@<TRIPOS>ATOM
      1  O5       -14.5900  -19.9960  -32.5860 O.2   303  581303     -0.2730
      2  C12      -13.7530  -19.6930  -31.7370 C.2   303  581303      0.2461
      3  C13      -12.5860  -20.6110  -31.4470 C.3   303  581303      0.0968
      4  N3       -13.8660  -18.5360  -31.0520 N.am  303  581303     -0.1792
      5  C3       -12.9850  -18.1060  -30.1130 C.ar  303  581303      0.0741
      6  C2       -11.7940  -17.4670  -30.4910 C.ar  303  581303      0.0166
      7  C1       -10.8880  -17.0200  -29.5280 C.ar  303  581303      0.0021
      8  C4       -13.2700  -18.2980  -28.7600 C.ar  303  581303      0.0286
      9  C5       -12.3890  -17.8260  -27.7810 C.ar  303  581303      0.0877
     10  C6       -11.1860  -17.2140  -28.1730 C.ar  303  581303      0.0121
     11  C7       -12.6510  -18.0740  -26.3320 C.1   303  581303      0.1497
     12  N2       -13.6110  -18.9500  -25.9990 N.2   303  581303     -0.2675
     13  C10      -13.8730  -19.2810  -24.7390 C.1   303  581303      0.2281
     14  O1       -14.7860  -20.0810  -24.4670 O.2   303  581303     -0.2104
     15  C9       -13.0740  -18.6710  -23.6570 C.3   303  581303      0.3273
     16  O2       -13.3370  -19.0020  -22.3850 O.3   303  581303     -0.1956
     17  C8       -12.0110  -17.7280  -24.0640 C.2   303  581303      0.2479
     18  N1       -11.8670  -17.4860  -25.3900 N.2   303  581303     -0.3331
     19  C11      -11.1120  -16.9950  -23.1160 C.2   303  581303      0.4173
     20  O3       -11.0890  -17.2220  -21.8790 O.co2 303  581303     -0.2379
     21  O4       -10.4040  -16.1110  -23.6460 O.co2 303  581303     -0.2379
@<TRIPOS>BOND
     1     1     2    2
     2     2     3    1
     3     2     4   am
     4     4     5    1
     5     6     5   ar
     6     6     7   ar
     7     5     8   ar
     8     7    10   ar
     9     8     9   ar
    10    10     9   ar
    11     9    11    1
    12    11    12    2
    13    11    18    2
    14    12    13    2
    15    18    17    2
    16    13    14    2
    17    13    15    1
    18    17    15    1
    19    17    19    1
    20    15    16    1
    21    21    19   ar
    22    19    20   ar
