@<TRIPOS>MOLECULE
4e5k_NAD_A_1.pdb
 44 48 0 0 0
SMALL
GASTEIGER

@<TRIPOS>ATOM
      1  PA        10.1160   -8.7450   28.4040 P.3   401  NAD401      0.2189
      2  O1A        8.7240   -8.8460   27.8760 O.2   401  NAD401     -0.5170
      3  O2A       10.9840   -9.9340   28.3180 O.3   401  NAD401     -0.4371
      4  O5B       10.7320   -7.4330   27.7100 O.3   401  NAD401     -0.3112
      5  C5B       12.0360   -6.9310   27.9880 C.3   401  NAD401      0.1813
      6  C4B       12.5130   -6.2600   26.7280 C.3   401  NAD401      0.1821
      7  O4B       13.7930   -5.6750   26.9400 O.3   401  NAD401     -0.3135
      8  C3B       12.6230   -7.2530   25.5700 C.3   401  NAD401      0.2184
      9  O3B       11.6940   -6.8550   24.5600 O.3   401  NAD401     -0.2174
     10  C2B       14.0600   -7.1430   25.0930 C.3   401  NAD401      0.2570
     11  O2B       14.1870   -7.0160   23.6790 O.3   401  NAD401     -0.2130
     12  C1B       14.4530   -5.8090   25.7110 C.3   401  NAD401      0.3186
     13  N9A       15.8750   -5.6580   25.8760 N.pl3 401  NAD401     -0.1439
     14  C8A       16.8020   -6.5790   26.1880 C.3   401  NAD401      0.3377
     15  N7A       18.0110   -5.9620   26.1840 N.2   401  NAD401     -0.2095
     16  C5A       17.8000   -4.6640   25.8690 C.2   401  NAD401      0.2526
     17  C6A       18.6030   -3.5470   25.7200 C.2   401  NAD401      0.4393
     18  N6A       19.9570   -3.6250   25.8840 N.pl3 401  NAD401      0.2180
     19  N1A       18.0250   -2.3700   25.3780 N.2   401  NAD401      0.0021
     20  C2A       16.7110   -2.2140   25.2000 C.3   401  NAD401      0.5254
     21  N3A       15.9060   -3.2720   25.3390 N.2   401  NAD401     -0.0055
     22  C4A       16.4350   -4.4850   25.6820 C.2   401  NAD401      0.3518
     23  O3        10.0970   -8.3880   29.9770 O.3   401  NAD401     -0.2703
     24  PN         9.0150   -7.5100   30.7770 P.3   401  NAD401      0.2189
     25  O1N        7.8650   -8.2770   31.3360 O.3   401  NAD401     -0.4371
     26  O2N        8.7900   -6.1660   30.1170 O.2   401  NAD401     -0.5170
     27  O5D        9.8680   -7.1520   32.1100 O.3   401  NAD401     -0.3112
     28  C5D       11.2460   -6.7650   32.0550 C.3   401  NAD401      0.1813
     29  C4D       11.8950   -7.0750   33.4020 C.3   401  NAD401      0.1799
     30  O4D       11.2820   -6.3390   34.4670 O.3   401  NAD401     -0.3327
     31  C3D       11.8220   -8.5380   33.7850 C.3   401  NAD401      0.2158
     32  O3D       12.9350   -9.2080   33.1840 O.3   401  NAD401     -0.2175
     33  C2D       11.9250   -8.4600   35.3110 C.3   401  NAD401      0.2309
     34  O2D       13.3090   -8.5350   35.7080 O.3   401  NAD401     -0.2158
     35  C1D       11.3470   -7.0920   35.6790 C.3   401  NAD401      0.2263
     36  N1N       10.0160   -7.1700   36.3130 N.pl3 401  NAD401     -0.2787
     37  C2N        9.8250   -6.5130   37.4610 C.3   401  NAD401      0.1244
     38  C3N        8.6000   -6.5680   38.1270 C.2   401  NAD401      0.0544
     39  C7N        8.4200   -5.8120   39.4020 C.2   401  NAD401      0.2818
     40  O7N        7.6990   -6.2940   40.2580 O.2   401  NAD401     -0.2670
     41  N7N        9.0290   -4.6340   39.5410 N.am  401  NAD401     -0.0839
     42  C4N        7.5370   -7.3080   37.6030 C.2   401  NAD401      0.0033
     43  C5N        7.7390   -7.9980   36.4080 C.2   401  NAD401      0.0157
     44  C6N        8.9920   -7.9010   35.7700 C.2   401  NAD401      0.0633
@<TRIPOS>BOND
     1    11    10    1
     2     9     8    1
     3    10     8    1
     4    10    12    1
     5    20    21    1
     6    20    19    1
     7    21    22    2
     8    19    17    2
     9     8     6    1
    10    22    16    1
    11    22    13    1
    12    12    13    1
    13    12     7    1
    14    17    16    1
    15    17    18    1
    16    16    15    2
    17    13    14    1
    18    15    14    1
    19     6     7    1
    20     6     5    1
    21     4     5    1
    22     4     1    1
    23     2     1    2
    24     3     1    1
    25     1    23    1
    26    23    24    1
    27    26    24    2
    28    24    25    1
    29    24    27    1
    30    28    27    1
    31    28    29    1
    32    32    31    1
    33    29    31    1
    34    29    30    1
    35    31    33    1
    36    30    35    1
    37    33    35    1
    38    33    34    1
    39    35    36    1
    40    44    36    1
    41    44    43    2
    42    36    37    1
    43    43    42    1
    44    37    38    1
    45    42    38    2
    46    38    39    1
    47    39    41   am
    48    39    40    2
