@<TRIPOS>MOLECULE
4e5l_DBH_A_1.pdb
 11 11 0 0 0
SMALL
GASTEIGER

@<TRIPOS>ATOM
      1  O17      -11.0760  -16.6850  -22.1130 O.co2 305  DBH305     -0.2404
      2  C21      -11.1630  -16.1460  -23.2420 C.2   305  DBH305      0.3910
      3  O9       -10.5160  -15.1090  -23.5160 O.co2 305  DBH305     -0.2404
      4  C18      -12.0530  -16.7480  -24.3020 C.ar  305  DBH305      0.1218
      5  C15      -11.9430  -16.2960  -25.6300 C.ar  305  DBH305      0.0100
      6  C12      -12.7560  -16.8360  -26.6310 C.ar  305  DBH305      0.0037
      7  C3       -12.9810  -17.7460  -23.9770 C.ar  305  DBH305      0.2405
      8  O3       -13.1030  -18.2090  -22.6950 O.3   305  DBH305     -0.2829
      9  C6       -13.7940  -18.2900  -24.9740 C.ar  305  DBH305      0.2345
     10  C9       -13.6780  -17.8330  -26.3000 C.ar  305  DBH305      0.0454
     11  O6       -14.6950  -19.2720  -24.6460 O.3   305  DBH305     -0.2831
@<TRIPOS>BOND
     1     6    10   ar
     2     6     5   ar
     3    10     9   ar
     4     5     4   ar
     5     9    11    1
     6     9     7   ar
     7     4     7   ar
     8     4     2    1
     9     7     8    1
    10     3     2   ar
    11     2     1   ar
