@<TRIPOS>MOLECULE
4e5m_NAP_A_1.pdb
 48 52 0 0 0
SMALL
GASTEIGER

@<TRIPOS>ATOM
      1  PA       -26.3370   -3.6510  -24.8430 P.3   800  NAP800      0.2189
      2  O1A      -27.0450   -3.4660  -23.5200 O.3   800  NAP800     -0.4371
      3  O2A      -26.6780   -4.8320  -25.7180 O.2   800  NAP800     -0.5170
      4  O5B      -26.5390   -2.2850  -25.6480 O.3   800  NAP800     -0.3112
      5  C5B      -26.1390   -2.1300  -27.0040 C.3   800  NAP800      0.1813
      6  C4B      -27.1570   -1.2370  -27.7020 C.3   800  NAP800      0.1820
      7  O4B      -26.7550   -0.9800  -29.0520 O.3   800  NAP800     -0.3136
      8  C3B      -28.5290   -1.8960  -27.7670 C.3   800  NAP800      0.2157
      9  O3B      -29.4970   -1.0070  -27.2000 O.3   800  NAP800     -0.2175
     10  C2B      -28.8050   -2.0930  -29.2440 C.3   800  NAP800      0.2314
     11  O2B      -30.1560   -1.7870  -29.5590 O.3   800  NAP800     -0.2630
     12  C1B      -27.9010   -1.0680  -29.9050 C.3   800  NAP800      0.3158
     13  N9A      -27.5600   -1.4140  -31.3140 N.pl3 800  NAP800     -0.1439
     14  C8A      -27.2670   -2.6270  -31.8120 C.3   800  NAP800      0.3377
     15  N7A      -27.0150   -2.5130  -33.1380 N.2   800  NAP800     -0.2095
     16  C5A      -27.1500   -1.2110  -33.4650 C.2   800  NAP800      0.2526
     17  C6A      -27.0200   -0.5010  -34.6540 C.2   800  NAP800      0.4393
     18  N6A      -26.6890   -1.1430  -35.8020 N.pl3 800  NAP800      0.2180
     19  N1A      -27.2250    0.8400  -34.6520 N.2   800  NAP800      0.0021
     20  C2A      -27.5550    1.4860  -33.5200 C.3   800  NAP800      0.5254
     21  N3A      -27.6970    0.8200  -32.3610 N.2   800  NAP800     -0.0055
     22  C4A      -27.4980   -0.5250  -32.3120 C.2   800  NAP800      0.3518
     23  O3       -24.7470   -3.7450  -24.5940 O.3   800  NAP800     -0.2703
     24  PN       -23.9570   -2.7710  -23.5930 P.3   800  NAP800      0.2189
     25  O1N      -23.8390   -3.4170  -22.2330 O.3   800  NAP800     -0.4371
     26  O2N      -24.5390   -1.3820  -23.7100 O.2   800  NAP800     -0.5170
     27  O5D      -22.4710   -2.7940  -24.2130 O.3   800  NAP800     -0.3112
     28  C5D      -22.2320   -2.3750  -25.5540 C.3   800  NAP800      0.1813
     29  C4D      -20.9890   -3.0880  -26.0540 C.3   800  NAP800      0.1799
     30  O4D      -19.8520   -2.6050  -25.3360 O.3   800  NAP800     -0.3327
     31  C3D      -21.0120   -4.5930  -25.7920 C.3   800  NAP800      0.2158
     32  O3D      -21.6600   -5.3320  -26.8300 O.3   800  NAP800     -0.2175
     33  C2D      -19.5440   -4.9390  -25.7000 C.3   800  NAP800      0.2309
     34  O2D      -19.0570   -5.2360  -27.0140 O.3   800  NAP800     -0.2158
     35  C1D      -18.8850   -3.6540  -25.2040 C.3   800  NAP800      0.2263
     36  N1N      -18.3970   -3.7660  -23.8190 N.pl3 800  NAP800     -0.2787
     37  C2N      -17.1220   -3.4120  -23.5610 C.3   800  NAP800      0.1244
     38  C3N      -16.5990   -3.5080  -22.2680 C.2   800  NAP800      0.0544
     39  C7N      -15.1710   -3.1270  -21.9910 C.2   800  NAP800      0.2818
     40  O7N      -14.5390   -3.7690  -21.1690 O.2   800  NAP800     -0.2670
     41  N7N      -14.6160   -2.1120  -22.6540 N.am  800  NAP800     -0.0839
     42  C4N      -17.4150   -3.9710  -21.2360 C.2   800  NAP800      0.0033
     43  C5N      -18.7350   -4.3270  -21.5210 C.2   800  NAP800      0.0157
     44  C6N      -19.2020   -4.2110  -22.8300 C.2   800  NAP800      0.0633
     45  P2B      -31.0650   -2.7550  -30.4710 P.3   800  NAP800      0.5328
     46  O1X      -30.1160   -3.6140  -31.2780 O.3   800  NAP800     -0.1145
     47  O2X      -31.8620   -3.5260  -29.4460 O.3   800  NAP800     -0.1145
     48  O3X      -31.8570   -1.7630  -31.2960 O.2   800  NAP800     -0.2224
@<TRIPOS>BOND
     1    18    17    1
     2    17    19    2
     3    17    16    1
     4    19    20    1
     5    20    21    1
     6    16    15    2
     7    16    22    1
     8    15    14    1
     9    21    22    2
    10    22    13    1
    11    14    13    1
    12    13    12    1
    13    48    45    2
    14    46    45    1
    15    45    11    1
    16    45    47    1
    17    12    10    1
    18    12     7    1
    19    11    10    1
    20    10     8    1
    21     7     6    1
    22     8     6    1
    23     8     9    1
    24     6     5    1
    25    34    33    1
    26     5     4    1
    27    32    31    1
    28    29    31    1
    29    29    28    1
    30    29    30    1
    31    31    33    1
    32     3     1    2
    33    33    35    1
    34     4     1    1
    35    28    27    1
    36    30    35    1
    37    35    36    1
    38     1    23    1
    39     1     2    1
    40    23    24    1
    41    27    24    1
    42    36    37    1
    43    36    44    1
    44    26    24    2
    45    24    25    1
    46    37    38    1
    47    44    43    2
    48    41    39   am
    49    38    39    1
    50    38    42    2
    51    39    40    2
    52    43    42    1
