@<TRIPOS>MOLECULE
4e5n_NAD_A_1.pdb
 44 48 0 0 0
SMALL
GASTEIGER

@<TRIPOS>ATOM
      1  PA        15.7390    8.7630    2.6040 P.3   800  NAD800      0.2189
      2  O1A       16.7960    8.9380    3.6620 O.3   800  NAD800     -0.4371
      3  O2A       15.4460    9.9210    1.6780 O.2   800  NAD800     -0.5170
      4  O5B       16.0480    7.4480    1.7490 O.3   800  NAD800     -0.3112
      5  C5B       15.2980    7.1490    0.5800 C.3   800  NAD800      0.1813
      6  C4B       16.2090    6.3910   -0.3760 C.3   800  NAD800      0.1821
      7  O4B       15.4180    5.7980   -1.4030 O.3   800  NAD800     -0.3135
      8  C3B       17.2420    7.2900   -1.0570 C.3   800  NAD800      0.2184
      9  O3B       18.5580    6.8060   -0.7630 O.3   800  NAD800     -0.2174
     10  C2B       16.9460    7.1500   -2.5330 C.3   800  NAD800      0.2570
     11  O2B       18.1290    7.1100   -3.3470 O.3   800  NAD800     -0.2130
     12  C1B       16.1980    5.8250   -2.5900 C.3   800  NAD800      0.3186
     13  N9A       15.3960    5.6490   -3.8270 N.pl3 800  NAD800     -0.1439
     14  C8A       14.7030    6.5800   -4.5120 C.3   800  NAD800      0.3377
     15  N7A       14.1260    5.9870   -5.5860 N.2   800  NAD800     -0.2095
     16  C5A       14.4800    4.6840   -5.5670 C.2   800  NAD800      0.2526
     17  C6A       14.2130    3.6000   -6.3900 C.2   800  NAD800      0.4393
     18  N6A       13.4350    3.7420   -7.4880 N.pl3 800  NAD800      0.2180
     19  N1A       14.7280    2.3900   -6.0810 N.2   800  NAD800      0.0021
     20  C2A       15.4980    2.2170   -4.9990 C.3   800  NAD800      0.5254
     21  N3A       15.7720    3.2460   -4.1880 N.2   800  NAD800     -0.0055
     22  C4A       15.2770    4.4820   -4.4560 C.2   800  NAD800      0.3518
     23  O3        14.3240    8.3670    3.2640 O.3   800  NAD800     -0.2703
     24  PN        14.1190    7.3940    4.5420 P.3   800  NAD800      0.2189
     25  O1N       14.1980    8.1790    5.8280 O.3   800  NAD800     -0.4371
     26  O2N       14.9060    6.1320    4.3590 O.2   800  NAD800     -0.5170
     27  O5D       12.5880    7.0040    4.3370 O.3   800  NAD800     -0.3112
     28  C5D       12.0830    6.4970    3.1040 C.3   800  NAD800      0.1813
     29  C4D       10.6110    6.8430    3.0470 C.3   800  NAD800      0.1799
     30  O4D        9.9440    6.1920    4.1300 O.3   800  NAD800     -0.3327
     31  C3D       10.3740    8.3260    3.2790 C.3   800  NAD800      0.2158
     32  O3D       10.4620    9.0820    2.0660 O.3   800  NAD800     -0.2175
     33  C2D        8.9850    8.3610    3.8760 C.3   800  NAD800      0.2309
     34  O2D        8.0570    8.4270    2.7890 O.3   800  NAD800     -0.2158
     35  C1D        8.8380    7.0040    4.5670 C.3   800  NAD800      0.2263
     36  N1N        8.8270    7.0560    6.0460 N.pl3 800  NAD800     -0.2787
     37  C2N        7.8350    6.4320    6.7140 C.3   800  NAD800      0.1244
     38  C3N        7.7900    6.4440    8.1120 C.2   800  NAD800      0.0544
     39  C7N        6.6800    5.7410    8.8450 C.2   800  NAD800      0.2818
     40  O7N        6.2270    6.2090    9.8730 O.2   800  NAD800     -0.2670
     41  N7N        6.1980    4.6010    8.3470 N.am  800  NAD800     -0.0839
     42  C4N        8.7820    7.1170    8.8180 C.2   800  NAD800      0.0033
     43  C5N        9.8050    7.7450    8.1110 C.2   800  NAD800      0.0157
     44  C6N        9.8040    7.6970    6.7190 C.2   800  NAD800      0.0633
@<TRIPOS>BOND
     1    18    17    1
     2    17    19    2
     3    17    16    1
     4    19    20    1
     5    15    16    2
     6    15    14    1
     7    16    22    1
     8    20    21    1
     9    14    13    1
    10    22    21    2
    11    22    13    1
    12    13    12    1
    13    11    10    1
    14    12    10    1
    15    12     7    1
    16    10     8    1
    17     7     6    1
    18     8     9    1
    19     8     6    1
    20     6     5    1
    21     5     4    1
    22     3     1    2
    23     4     1    1
    24    32    31    1
    25     1    23    1
    26     1     2    1
    27    34    33    1
    28    29    28    1
    29    29    31    1
    30    29    30    1
    31    28    27    1
    32    23    24    1
    33    31    33    1
    34    33    35    1
    35    30    35    1
    36    27    24    1
    37    26    24    2
    38    24    25    1
    39    35    36    1
    40    36    37    1
    41    36    44    1
    42    37    38    1
    43    44    43    2
    44    43    42    1
    45    38    42    2
    46    38    39    1
    47    41    39   am
    48    39    40    2
