@<TRIPOS>MOLECULE
4e5o_UMP_A_1.pdb
 20 21 0 0 0
SMALL
GASTEIGER

@<TRIPOS>ATOM
      1  N1        22.4030  -20.1140   -0.5340 N.am  501  UMP501     -0.1790
      2  C2        22.9410  -21.1850    0.1420 C.1   501  UMP501      0.2844
      3  N3        22.3660  -22.4390    0.0370 N.2   501  UMP501     -0.2452
      4  C4        21.2240  -22.6400   -0.6640 C.1   501  UMP501      0.2182
      5  C5        20.6340  -21.5690   -1.3960 C.2   501  UMP501      0.1242
      6  C6        21.2540  -20.3080   -1.2790 C.2   501  UMP501      0.0928
      7  O2        23.9100  -21.1280    0.8540 O.2   501  UMP501     -0.1918
      8  O4        20.7970  -23.8110   -0.6790 O.2   501  UMP501     -0.2085
      9  C1'       22.9800  -18.7940   -0.3900 C.3   501  UMP501      0.2090
     10  C2'       24.2660  -18.6020   -1.1470 C.3   501  UMP501      0.0874
     11  C3'       24.2010  -17.1060   -1.4230 C.3   501  UMP501      0.1857
     12  C4'       22.7220  -16.8990   -1.7260 C.3   501  UMP501      0.1774
     13  O3'       24.5500  -16.4040   -0.2210 O.3   501  UMP501     -0.2203
     14  O4'       22.0110  -17.8810   -0.9580 O.3   501  UMP501     -0.3339
     15  C5'       22.3530  -17.0830   -3.1480 C.3   501  UMP501      0.1858
     16  O5'       22.7250  -15.8920   -3.8790 O.3   501  UMP501     -0.2675
     17  P         23.5760  -15.9940   -5.2220 P.3   501  UMP501      0.5327
     18  OP1       23.9190  -14.5460   -5.5610 O.3   501  UMP501     -0.1145
     19  OP2       22.6180  -16.5350   -6.2460 O.2   501  UMP501     -0.2224
     20  OP3       24.7630  -16.9050   -5.1230 O.3   501  UMP501     -0.1145
@<TRIPOS>BOND
     1    19    17    2
     2    18    17    1
     3    17    20    1
     4    17    16    1
     5    16    15    1
     6    15    12    1
     7    12    11    1
     8    12    14    1
     9    11    10    1
    10    11    13    1
    11     5     6    2
    12     5     4    1
    13     6     1    1
    14    10     9    1
    15    14     9    1
    16     8     4    2
    17     4     3    2
    18     1     9    1
    19     1     2   am
    20     3     2    2
    21     2     7    2
