@<TRIPOS>MOLECULE
4e5p_NAD_A_1.pdb
 44 48 0 0 0
SMALL
GASTEIGER

@<TRIPOS>ATOM
      1  PA       -23.1170   31.6520  111.6660 P.3   800  NAD800      0.2189
      2  O1A      -24.1870   31.9970  110.6440 O.2   800  NAD800     -0.5170
      3  O2A      -23.2200   30.3880  112.4570 O.3   800  NAD800     -0.4371
      4  O5B      -21.6850   31.6860  110.9760 O.3   800  NAD800     -0.3112
      5  C5B      -20.5030   31.4040  111.7340 C.3   800  NAD800      0.1813
      6  C4B      -19.3770   31.0650  110.7650 C.3   800  NAD800      0.1821
      7  O4B      -18.1110   30.9210  111.4260 O.3   800  NAD800     -0.3135
      8  C3B      -19.6410   29.7610  110.0210 C.3   800  NAD800      0.2184
      9  O3B      -19.4930   30.0610  108.6350 O.3   800  NAD800     -0.2174
     10  C2B      -18.5390   28.8150  110.4580 C.3   800  NAD800      0.2570
     11  O2B      -18.0150   28.0280  109.3870 O.3   800  NAD800     -0.2130
     12  C1B      -17.4460   29.7670  110.9020 C.3   800  NAD800      0.3186
     13  N9A      -16.5120   29.1210  111.8600 N.pl3 800  NAD800     -0.1439
     14  C8A      -16.8030   28.4240  112.9710 C.3   800  NAD800      0.3377
     15  N7A      -15.6520   28.0070  113.5470 N.2   800  NAD800     -0.2095
     16  C5A      -14.6380   28.4510  112.7820 C.2   800  NAD800      0.2526
     17  C6A      -13.2520   28.3430  112.8550 C.2   800  NAD800      0.4393
     18  N6A      -12.6670   27.6730  113.8760 N.pl3 800  NAD800      0.2180
     19  N1A      -12.4900   28.9150  111.8970 N.2   800  NAD800      0.0021
     20  C2A      -13.0520   29.5840  110.8760 C.3   800  NAD800      0.5254
     21  N3A      -14.3860   29.7060  110.7810 N.2   800  NAD800     -0.0055
     22  C4A      -15.1910   29.1480  111.7210 C.2   800  NAD800      0.3518
     23  O3       -23.0750   32.8220  112.7710 O.3   800  NAD800     -0.2703
     24  PN       -23.2890   34.3890  112.5100 P.3   800  NAD800      0.2189
     25  O1N      -24.7540   34.7240  112.5000 O.3   800  NAD800     -0.4371
     26  O2N      -22.3290   34.8220  111.4270 O.2   800  NAD800     -0.5170
     27  O5D      -22.7860   34.9690  113.9290 O.3   800  NAD800     -0.3112
     28  C5D      -21.4480   34.7450  114.3660 C.3   800  NAD800      0.1813
     29  C4D      -21.4360   34.9210  115.8840 C.3   800  NAD800      0.1799
     30  O4D      -21.5970   36.3070  116.1940 O.3   800  NAD800     -0.3327
     31  C3D      -22.6000   34.2270  116.5790 C.3   800  NAD800      0.2158
     32  O3D      -22.3600   32.8350  116.8550 O.3   800  NAD800     -0.2175
     33  C2D      -22.7700   35.0420  117.8410 C.3   800  NAD800      0.2309
     34  O2D      -21.8390   34.5120  118.8030 O.3   800  NAD800     -0.2158
     35  C1D      -22.3090   36.4520  117.4290 C.3   800  NAD800      0.2263
     36  N1N      -23.3770   37.4590  117.2770 N.pl3 800  NAD800     -0.2787
     37  C2N      -23.2650   38.6160  117.9540 C.3   800  NAD800      0.1244
     38  C3N      -24.2450   39.6040  117.8500 C.2   800  NAD800      0.0544
     39  C7N      -24.1230   40.9050  118.5980 C.2   800  NAD800      0.2818
     40  O7N      -25.1240   41.4140  119.0520 O.2   800  NAD800     -0.2670
     41  N7N      -22.9310   41.4980  118.7210 N.am  800  NAD800     -0.0839
     42  C4N      -25.3510   39.3840  117.0210 C.2   800  NAD800      0.0033
     43  C5N      -25.4370   38.1950  116.3210 C.2   800  NAD800      0.0157
     44  C6N      -24.4370   37.2350  116.4590 C.2   800  NAD800      0.0633
@<TRIPOS>BOND
     1     9     8    1
     2    11    10    1
     3     8    10    1
     4     8     6    1
     5    10    12    1
     6     2     1    2
     7     6     7    1
     8     6     5    1
     9    21    20    1
    10    21    22    2
    11    20    19    1
    12    12     7    1
    13    12    13    1
    14     4     1    1
    15     4     5    1
    16    26    24    2
    17     1     3    1
    18     1    23    1
    19    22    13    1
    20    22    16    1
    21    13    14    1
    22    19    17    2
    23    25    24    1
    24    24    23    1
    25    24    27    1
    26    16    17    1
    27    16    15    2
    28    17    18    1
    29    14    15    1
    30    27    28    1
    31    28    29    1
    32    29    30    1
    33    29    31    1
    34    30    35    1
    35    43    44    2
    36    43    42    1
    37    44    36    1
    38    31    32    1
    39    31    33    1
    40    42    38    2
    41    36    35    1
    42    36    37    1
    43    35    33    1
    44    33    34    1
    45    38    37    1
    46    38    39    1
    47    39    41   am
    48    39    40    2
