@<TRIPOS>MOLECULE
4e5u_TMP_A_1.pdb
 21 22 0 0 0
SMALL
GASTEIGER

@<TRIPOS>ATOM
      1  P         23.1340  -21.1510   69.3910 P.3   301  TMP301      0.5327
      2  O1P       23.4200  -22.5420   68.9350 O.2   301  TMP301     -0.2224
      3  O2P       22.5830  -21.3190   70.7720 O.3   301  TMP301     -0.1145
      4  O3P       24.4490  -20.4740   69.5360 O.3   301  TMP301     -0.1145
      5  O5'       22.1350  -20.3720   68.4720 O.3   301  TMP301     -0.2675
      6  C5'       21.9000  -19.0260   68.6890 C.3   301  TMP301      0.1858
      7  C4'       20.4060  -18.8500   68.8630 C.3   301  TMP301      0.1774
      8  O4'       19.7370  -18.8840   67.6450 O.3   301  TMP301     -0.3339
      9  C3'       19.7540  -19.9050   69.7050 C.3   301  TMP301      0.1857
     10  O3'       19.1260  -19.3080   70.7840 O.3   301  TMP301     -0.2203
     11  C2'       18.7540  -20.5520   68.8330 C.3   301  TMP301      0.0874
     12  C1'       18.4980  -19.4900   67.8080 C.3   301  TMP301      0.2090
     13  N1        17.9470  -19.9300   66.5240 N.am  301  TMP301     -0.1794
     14  C2        16.5680  -19.6470   66.1650 C.1   301  TMP301      0.2844
     15  O2        15.8370  -19.0390   66.9440 O.2   301  TMP301     -0.1918
     16  N3        16.0580  -20.0780   64.8980 N.2   301  TMP301     -0.2455
     17  C4        16.9150  -20.7570   63.9870 C.1   301  TMP301      0.2134
     18  O4        16.4670  -21.1060   62.8990 O.2   301  TMP301     -0.2088
     19  C5        18.3320  -21.0490   64.3590 C.2   301  TMP301      0.0891
     20  C5M       19.2700  -21.7730   63.4070 C.3   301  TMP301      0.0462
     21  C6        18.8140  -20.6320   65.5870 C.2   301  TMP301      0.0877
@<TRIPOS>BOND
     1    18    17    2
     2    20    19    1
     3    17    19    1
     4    17    16    2
     5    19    21    2
     6    16    14    2
     7    21    13    1
     8    14    13   am
     9    14    15    2
    10    13    12    1
    11     8    12    1
    12     8     7    1
    13    12    11    1
    14     5     6    1
    15     5     1    1
    16     6     7    1
    17    11     9    1
    18     7     9    1
    19     2     1    2
    20     1     4    1
    21     1     3    1
    22     9    10    1
