@<TRIPOS>MOLECULE
4e5w_0NT_A_1.pdb
 30 34 0 0 0
SMALL
GASTEIGER

@<TRIPOS>ATOM
      1  C7         8.8750   51.6780    1.4840 C.3   1201  0NT1201     0.0209
      2  C2         6.8010   49.4460    3.6560 C.3   1201  0NT1201     0.0577
      3  C10        6.4350   52.2170    1.7150 C.2   1201  0NT1201     0.2346
      4  C6         9.1870   50.2940    0.8880 C.3   1201  0NT1201     0.0188
      5  C1         6.6220   47.9190    3.6350 C.3   1201  0NT1201     0.0173
      6  C3         5.4180   50.0150    4.0070 C.3   1201  0NT1201     0.0173
      7  N4         7.3280   49.9660    2.3570 N.3   1201  0NT1201    -0.2723
      8  C5         8.6590   49.3740    2.0010 C.3   1201  0NT1201     0.0722
      9  C8         7.5890   51.4510    2.3400 C.3   1201  0NT1201     0.0960
     10  O11        5.6610   51.5810    1.0000 O.2   1201  0NT1201    -0.2738
     11  N12        6.2610   53.5640    1.9000 N.am  1201  0NT1201    -0.2786
     12  C13        5.1470   54.2840    1.2400 C.3   1201  0NT1201     0.0951
     13  C14        5.6980   55.4540    0.3810 C.3   1201  0NT1201     0.0413
     14  C15        6.6340   56.3360    1.2300 C.3   1201  0NT1201     0.0780
     15  C16        7.7670   55.5350    1.9210 C.3   1201  0NT1201     0.0413
     16  C17        7.1400   54.4030    2.7640 C.3   1201  0NT1201     0.0951
     17  N18        7.1430   57.5410    0.5520 N.pl3 1201  0NT1201    -0.2878
     18  C19        8.4000   57.7170    0.0150 C.3   1201  0NT1201     0.2196
     19  N20        8.5430   58.9400   -0.4080 N.2   1201  0NT1201    -0.2492
     20  C21        7.4090   59.6440   -0.1600 C.2   1201  0NT1201     0.0936
     21  C22        6.4980   58.7550    0.4600 C.2   1201  0NT1201     0.0674
     22  C23        5.2420   59.2500    0.8600 C.ar  1201  0NT1201     0.0496
     23  C24        4.0660   58.6630    1.5160 C.ar  1201  0NT1201     0.0227
     24  C25        3.1680   59.6560    1.6340 C.ar  1201  0NT1201     0.0736
     25  N26        3.6770   60.8180    1.1160 N.ar  1201  0NT1201    -0.3376
     26  C28        4.9400   60.6110    0.6160 C.ar  1201  0NT1201     0.1374
     27  N29        5.8390   61.4150    0.0190 N.2   1201  0NT1201    -0.2476
     28  C30        7.0310   60.9830   -0.3670 C.3   1201  0NT1201     0.1733
     29  H9         7.8000   51.7990    3.3430 H     1201  0NT1201     0.0565
     30  H27        3.2020   61.6660    1.0840 H     1201  0NT1201     0.1674
@<TRIPOS>BOND
     1    19    20    2
     2    19    18    1
     3    28    20    1
     4    28    27    1
     5    20    21    1
     6    18    17    1
     7    27    26    2
     8    13    14    1
     9    13    12    1
    10    21    17    1
    11    21    22    2
    12    17    14    1
    13    26    22   ar
    14    26    25   ar
    15    22    23   ar
    16     4     1    1
    17     4     8    1
    18    10     3    2
    19    30    25    1
    20    25    24   ar
    21    14    15    1
    22    12    11    1
    23     1     9    1
    24    23    24   ar
    25     3    11   am
    26     3     9    1
    27    11    16    1
    28    15    16    1
    29     8     7    1
    30     9     7    1
    31     9    29    1
    32     7     2    1
    33     5     2    1
    34     2     6    1
