@<TRIPOS>MOLECULE
4e6a_0O9_A_1.pdb
 23 23 0 0 0
SMALL
GASTEIGER

@<TRIPOS>ATOM
      1  C5         3.3420    7.3740    2.0540 C.3   500  0O9500      0.1846
      2  C6         2.0140    6.9430    1.4090 C.3   500  0O9500      0.0711
      3  O7         3.5030    4.7090    4.6780 O.3   500  0O9500     -0.2176
      4  O19        5.3120    3.0940    1.1570 O.2   500  0O9500     -0.5172
      5  P16        5.2850    4.6180    1.1140 P.3   500  0O9500      0.2141
      6  O18        6.4950    5.4040    1.5830 O.3   500  0O9500     -0.4373
      7  O17        4.9550    5.0650   -0.4160 O.3   500  0O9500     -0.3114
      8  C20        5.9380    5.6170   -1.3000 C.3   500  0O9500      0.1811
      9  C21        6.7120    4.5710   -2.1340 C.3   500  0O9500      0.1747
     10  O26        6.2630    3.2080   -2.0790 O.3   500  0O9500     -0.3484
     11  C27        7.3150    2.2570   -2.5930 C.3   500  0O9500      0.1742
     12  C22        6.7290    5.0360   -3.5930 C.3   500  0O9500      0.1741
     13  O23        8.0960    5.2260   -3.9190 O.3   500  0O9500     -0.3511
     14  C24        8.6840    6.3170   -3.2210 C.3   500  0O9500      0.1424
     15  C25        9.9120    5.7960   -2.5150 C.3   500  0O9500      0.0346
     16  O15        3.9810    5.1290    1.9220 O.3   500  0O9500     -0.3112
     17  C4         3.9180    6.2240    2.8360 C.3   500  0O9500      0.1848
     18  C3         2.9540    5.8180    3.9570 C.3   500  0O9500      0.2145
     19  C2         1.5410    5.4480    3.4410 C.3   500  0O9500      0.2148
     20  O8         1.5530    4.1460    2.8350 O.3   500  0O9500     -0.2176
     21  C1         0.9790    6.4770    2.4490 C.3   500  0O9500      0.1874
     22  O9         0.4900    7.6100    3.1870 O.3   500  0O9500     -0.2202
     23  O10        4.3090    7.7790    1.0920 O.3   500  0O9500     -0.2203
@<TRIPOS>BOND
     1    13    12    1
     2    13    14    1
     3    12     9    1
     4    14    15    1
     5    11    10    1
     6     9    10    1
     7     9     8    1
     8     8     7    1
     9     7     5    1
    10    23     1    1
    11     5     4    2
    12     5     6    1
    13     5    16    1
    14     2     1    1
    15     2    21    1
    16    16    17    1
    17     1    17    1
    18    21    22    1
    19    21    19    1
    20    20    19    1
    21    17    18    1
    22    19    18    1
    23    18     3    1
