@<TRIPOS>MOLECULE
4e6c_0O8_A_1.pdb
 16 16 0 0 0
SMALL
GASTEIGER

@<TRIPOS>ATOM
      1  O1         4.9720    3.7010    1.1490 O.3   500  0O8500     -0.4373
      2  P1         4.7980    5.1540    0.6560 P.3   500  0O8500      0.2139
      3  O2         3.4630    5.5960    0.0440 O.2   500  0O8500     -0.5172
      4  O3         5.7860    5.4360   -0.6280 O.3   500  0O8500     -0.3141
      5  C1         5.9840    4.3260   -1.5170 C.3   500  0O8500      0.1491
      6  C2         7.0370    4.4620   -2.6240 C.3   500  0O8500      0.0325
      7  C3         7.2490    3.0530   -3.1570 C.3   500  0O8500      0.0027
      8  O4         5.0360    6.1930    1.9170 O.3   500  0O8500     -0.3168
      9  C4         3.9740    6.7320    2.6720 C.3   500  0O8500      0.1176
     10  C5         3.5510    5.5890    3.5660 C.3   500  0O8500      0.0077
     11  C6         2.1750    5.7430    4.2000 C.3   500  0O8500     -0.0707
     12  N1         1.0970    6.2690    3.3070 N.4   500  0O8500      0.3872
     13  C7         0.6250    7.5740    3.8990 C.3   500  0O8500     -0.0959
     14  C8         0.0110    5.2550    3.3080 C.3   500  0O8500     -0.0959
     15  C9         1.5210    6.4380    1.8760 C.3   500  0O8500     -0.0707
     16  C10        2.8530    7.1760    1.7240 C.3   500  0O8500      0.0077
@<TRIPOS>BOND
     1     7     6    1
     2     6     5    1
     3     5     4    1
     4     4     2    1
     5     3     2    2
     6     2     1    1
     7     2     8    1
     8    16    15    1
     9    16     9    1
    10    15    12    1
    11     8     9    1
    12     9    10    1
    13    12    14    1
    14    12    13    1
    15    12    11    1
    16    10    11    1
