@<TRIPOS>MOLECULE
4e6d_0NU_A_1.pdb
 39 42 0 0 0
SMALL
GASTEIGER

@<TRIPOS>ATOM
      1  N5        -1.6080  -52.1280  -18.1330 N.1   1201  0NU1201    -0.1961
      2  C15       -1.2280  -51.0590  -18.3110 C.1   1201  0NU1201     0.0719
      3  C14       -0.5670  -49.7800  -18.5510 C.3   1201  0NU1201     0.1112
      4  C13       -0.9580  -49.2350  -19.9960 C.2   1201  0NU1201     0.2295
      5  O         -1.4190  -50.0030  -20.8340 O.2   1201  0NU1201    -0.2745
      6  N4        -0.8100  -47.9190  -20.2500 N.am  1201  0NU1201    -0.2989
      7  C11       -0.2910  -47.0010  -19.2420 C.3   1201  0NU1201     0.0148
      8  C10       -1.3650  -46.0070  -18.8380 C.3   1201  0NU1201    -0.0354
      9  C9        -1.8990  -45.2770  -20.0700 C.3   1201  0NU1201    -0.0310
     10  C12       -1.1740  -47.2530  -21.5030 C.3   1201  0NU1201     0.0337
     11  C8        -2.2610  -46.2620  -21.1780 C.3   1201  0NU1201     0.0462
     12  N3        -2.6680  -45.5640  -22.3910 N.pl3 1201  0NU1201    -0.2735
     13  C4        -3.9360  -45.0200  -22.5340 C.2   1201  0NU1201     0.0879
     14  C3        -5.0840  -44.9700  -21.7500 C.ar  1201  0NU1201     0.0555
     15  C         -5.5730  -45.4640  -20.4940 C.ar  1201  0NU1201    -0.0321
     16  C7        -1.9490  -45.2400  -23.5220 C.2   1201  0NU1201     0.1413
     17  N2        -2.6280  -44.5160  -24.3810 N.2   1201  0NU1201    -0.3920
     18  C5        -3.8780  -44.3540  -23.7870 C.2   1201  0NU1201     0.1673
     19  C6        -4.9940  -43.6380  -24.2020 C.2   1201  0NU1201     0.1196
     20  N1        -6.1110  -43.5400  -23.4720 N.2   1201  0NU1201    -0.3902
     21  C2        -6.1420  -44.1840  -22.2920 C.ar  1201  0NU1201     0.1913
     22  N         -7.1830  -44.2160  -21.4100 N.ar  1201  0NU1201    -0.3362
     23  C1        -6.8410  -44.9970  -20.3400 C.ar  1201  0NU1201     0.0051
     24  H14        0.5080  -49.8870  -18.4140 H     1201  0NU1201     0.0513
     25  H15       -0.8860  -49.0690  -17.7900 H     1201  0NU1201     0.0513
     26  H11        0.5710  -46.4790  -19.6530 H     1201  0NU1201     0.0464
     27  H10        0.0950  -47.5280  -18.3710 H     1201  0NU1201     0.0464
     28  H8        -2.1770  -46.5230  -18.3270 H     1201  0NU1201     0.0281
     29  H9        -0.9840  -45.2970  -18.1060 H     1201  0NU1201     0.0281
     30  H6        -1.1660  -44.5490  -20.4160 H     1201  0NU1201     0.0284
     31  H7        -2.7670  -44.6790  -19.7980 H     1201  0NU1201     0.0284
     32  H13       -1.4740  -47.9910  -22.2460 H     1201  0NU1201     0.0483
     33  H12       -0.3200  -46.7500  -21.9560 H     1201  0NU1201     0.0483
     34  H1        -3.1350  -46.8160  -20.8390 H     1201  0NU1201     0.0520
     35  H2        -5.0210  -46.0970  -19.8000 H     1201  0NU1201     0.0640
     36  H5        -0.9190  -45.5570  -23.6820 H     1201  0NU1201     0.1148
     37  H4        -5.0070  -43.1170  -25.1580 H     1201  0NU1201     0.1004
     38  H         -8.0650  -43.7320  -21.5390 H     1201  0NU1201     0.1677
     39  H3        -7.5390  -45.1710  -19.5220 H     1201  0NU1201     0.0808
@<TRIPOS>BOND
     1    37    19    1
     2    17    18    2
     3    17    16    2
     4    19    18    1
     5    19    20    2
     6    18    13    1
     7    36    16    1
     8    16    12    1
     9    20    21    2
    10    13    12    1
    11    13    14    2
    12    12    11    1
    13    21    14   ar
    14    21    22   ar
    15    32    10    1
    16    33    10    1
    17    14    15   ar
    18    38    22    1
    19    10    11    1
    20    10     6    1
    21    22    23   ar
    22    11    34    1
    23    11     9    1
    24     5     4    2
    25    15    23   ar
    26    15    35    1
    27    30     9    1
    28    23    39    1
    29     6     4   am
    30     6     7    1
    31     9    31    1
    32     9     8    1
    33     4     3    1
    34    26     7    1
    35     7     8    1
    36     7    27    1
    37     8    28    1
    38     8    29    1
    39     3    24    1
    40     3     2    1
    41     3    25    1
    42     2     1    3
