@<TRIPOS>MOLECULE
4e6k_HEM_A_1.pdb
 43 50 0 0 0
SMALL
GASTEIGER

@<TRIPOS>ATOM
      1  CHA      -11.9080  -42.7350   82.5120 C.2   202  HEM202      0.0000
      2  CHB       -9.8110  -40.7160   86.4060 C.2   202  HEM202      0.0000
      3  CHC      -13.9860  -38.4480   87.3750 C.2   202  HEM202      0.0000
      4  CHD      -15.9360  -40.0120   83.2250 C.2   202  HEM202      0.0000
      5  C1A      -10.9840  -42.3780   83.4750 C.2   202  HEM202      0.0000
      6  C2A       -9.6010  -42.8240   83.5460 C.2   202  HEM202      0.0000
      7  C3A       -9.0280  -42.2670   84.6080 C.2   202  HEM202      0.0000
      8  C4A      -10.0210  -41.4590   85.2720 C.2   202  HEM202      0.0000
      9  CMA       -7.5770  -42.4400   85.0880 C.3   202  HEM202      0.0000
     10  CAA       -8.9040  -43.7520   82.5320 C.3   202  HEM202      0.0000
     11  CBA       -8.4340  -42.8680   81.3810 C.3   202  HEM202      0.0000
     12  CGA       -7.7200  -43.6910   80.3340 C.2   202  HEM202      0.0000
     13  O1A       -6.5180  -44.0220   80.5180 O.co2 202  HEM202      0.0000
     14  O2A       -8.3590  -44.0050   79.3050 O.co2 202  HEM202      0.0000
     15  C1B      -10.7640  -39.9290   87.0070 C.ar  202  HEM202      0.0000
     16  C2B      -10.5810  -39.1830   88.2320 C.ar  202  HEM202      0.0000
     17  C3B      -11.7340  -38.5470   88.4970 C.ar  202  HEM202      0.0000
     18  C4B      -12.6870  -38.8940   87.4570 C.ar  202  HEM202      0.0000
     19  CMB       -9.2470  -39.1570   89.0020 C.3   202  HEM202      0.0000
     20  CAB      -12.0760  -37.6300   89.6790 C.2   202  HEM202      0.0000
     21  CBB      -11.3810  -37.6890   90.8130 C.2   202  HEM202      0.0000
     22  C1C      -14.8670  -38.6580   86.3440 C.2   202  HEM202      0.0000
     23  C2C      -16.2130  -38.1320   86.2750 C.2   202  HEM202      0.0000
     24  C3C      -16.7720  -38.5680   85.1280 C.2   202  HEM202      0.0000
     25  C4C      -15.7820  -39.3770   84.4390 C.2   202  HEM202      0.0000
     26  CMC      -16.7990  -37.2460   87.3860 C.3   202  HEM202      0.0000
     27  CAC      -18.1710  -38.3110   84.5340 C.2   202  HEM202      0.0000
     28  CBC      -19.0360  -37.4380   85.0530 C.2   202  HEM202      0.0000
     29  C1D      -15.0870  -40.9600   82.6920 C.ar  202  HEM202      0.0000
     30  C2D      -15.4150  -41.8620   81.6130 C.ar  202  HEM202      0.0000
     31  C3D      -14.1640  -42.7100   81.3910 C.ar  202  HEM202      0.0000
     32  C4D      -13.1920  -42.2450   82.3590 C.ar  202  HEM202      0.0000
     33  CMD      -16.7460  -41.9560   80.8490 C.3   202  HEM202      0.0000
     34  CAD      -14.0100  -43.8310   80.3510 C.3   202  HEM202      0.0000
     35  CBD      -14.2390  -45.1710   81.0450 C.3   202  HEM202      0.0000
     36  CGD      -14.2820  -46.2990   80.0340 C.2   202  HEM202      0.0000
     37  O1D      -13.3510  -47.1440   80.0360 O.co2 202  HEM202      0.0000
     38  O2D      -15.2490  -46.3560   79.2260 O.co2 202  HEM202      0.0000
     39  NA       -11.2050  -41.5490   84.5590 N.2   202  HEM202      0.0000
     40  NB       -12.0550  -39.7470   86.5680 N.ar  202  HEM202      0.0000
     41  NC       -14.6400  -39.4070   85.2080 N.2   202  HEM202      0.0000
     42  ND       -13.7790  -41.2240   83.1000 N.ar  202  HEM202      0.0000
     43 FE        -12.9240  -40.5030   84.8810 Fe    202  HEM202      0.0000
@<TRIPOS>BOND
     1    38    36   ar
     2    14    12   ar
     3    36    37   ar
     4    36    35    1
     5    12    13   ar
     6    12    11    1
     7    34    35    1
     8    34    31    1
     9    33    30    1
    10    11    10    1
    11    31    30   ar
    12    31    32   ar
    13    30    29   ar
    14    32     1    2
    15    32    42   ar
    16     1     5    1
    17    10     6    1
    18    29    42   ar
    19    29     4    2
    20    42    43    1
    21     4    25    1
    22     5     6    1
    23     5    39    2
    24     6     7    2
    25    25    24    1
    26    25    41    2
    27    27    28    2
    28    27    24    1
    29    39    43    1
    30    39     8    1
    31     7     9    1
    32     7     8    1
    33    43    41    1
    34    43    40    1
    35    24    23    2
    36    41    22    1
    37     8     2    2
    38    23    22    1
    39    23    26    1
    40    22     3    2
    41     2    15    1
    42    40    15   ar
    43    40    18   ar
    44    15    16   ar
    45     3    18    1
    46    18    17   ar
    47    16    17   ar
    48    16    19    1
    49    17    20    1
    50    20    21    2
