@<TRIPOS>MOLECULE
4e6n_AMP_A_1.pdb
 22 24 0 0 0
SMALL
GASTEIGER

@<TRIPOS>ATOM
      1  P         -8.5910  -28.6500   11.9170 P.3   902  AMP902      0.3942
      2  O1P       -8.1210  -27.7580   13.0250 O.3   902  AMP902     -0.1425
      3  O2P       -7.8260  -28.6670   10.6470 O.3   902  AMP902     -0.1425
      4  O5'      -10.1440  -28.3750   11.6090 O.3   902  AMP902     -0.2926
      5  C5'      -11.0150  -29.3960   11.1190 C.3   902  AMP902      0.1831
      6  C4'      -10.3690  -30.2330   10.0350 C.3   902  AMP902      0.1822
      7  O4'       -9.8130  -31.4220   10.6230 O.3   902  AMP902     -0.3135
      8  C3'      -11.3130  -30.7700    8.9670 C.3   902  AMP902      0.2184
      9  O3'      -11.5360  -29.8540    7.9060 O.3   902  AMP902     -0.2174
     10  C2'      -10.6640  -32.0780    8.5120 C.3   902  AMP902      0.2570
     11  O2'       -9.9070  -31.8740    7.3380 O.3   902  AMP902     -0.2130
     12  C1'       -9.7020  -32.4150    9.6540 C.3   902  AMP902      0.3186
     13  N9       -10.0010  -33.7180   10.2830 N.pl3 902  AMP902     -0.1439
     14  C8        -9.0520  -34.5780   10.7140 C.3   902  AMP902      0.3377
     15  N7        -9.5930  -35.7100   11.2370 N.2   902  AMP902     -0.2095
     16  C5       -10.9360  -35.5890   11.1400 C.2   902  AMP902      0.2526
     17  C6       -12.1090  -36.4210   11.5120 C.2   902  AMP902      0.4393
     18  N6       -11.9520  -37.6210   12.1110 N.pl3 902  AMP902      0.2180
     19  N1       -13.3440  -35.9500   11.2260 N.2   902  AMP902      0.0021
     20  C2       -13.5070  -34.7470   10.6510 C.3   902  AMP902      0.5254
     21  N3       -12.4950  -33.9320   10.2940 N.2   902  AMP902     -0.0055
     22  C4       -11.2020  -34.2850   10.5020 C.2   902  AMP902      0.3518
@<TRIPOS>BOND
     1    11    10    1
     2     9     8    1
     3    10     8    1
     4    10    12    1
     5     8     6    1
     6    12    13    1
     7    12     7    1
     8     6     7    1
     9     6     5    1
    10    13    22    1
    11    13    14    1
    12    21    22    2
    13    21    20    1
    14    22    16    1
    15     3     1    1
    16    20    19    1
    17    14    15    1
    18     5     4    1
    19    16    15    2
    20    16    17    1
    21    19    17    2
    22    17    18    1
    23     4     1    1
    24     1     2    1
