@<TRIPOS>MOLECULE
4e6q_0NV_A_1.pdb
 25 29 0 0 0
SMALL
GASTEIGER

@<TRIPOS>ATOM
      1  C1        10.9290   26.7340    8.8250 C.3   1201  0NV1201     0.0372
      2  C2        10.7450   25.3240    8.2330 C.3   1201  0NV1201     0.0741
      3  N3        11.6810   25.0660    7.1090 N.3   1201  0NV1201    -0.2689
      4  C4        13.0760   25.2240    7.5300 C.3   1201  0NV1201     0.0741
      5  C5        13.3710   26.6530    8.0640 C.3   1201  0NV1201     0.0372
      6  C6        12.3990   26.8140    9.2430 C.3   1201  0NV1201     0.0774
      7  N7        12.6860   28.0830    9.8840 N.pl3 1201  0NV1201    -0.2873
      8  C8        12.9380   29.2600    9.2230 C.3   1201  0NV1201     0.2196
      9  N9        13.1470   30.2120   10.0700 N.2   1201  0NV1201    -0.2491
     10  C10       13.0560   29.7260   11.3410 C.2   1201  0NV1201     0.0950
     11  C11       13.1970   30.2810   12.6140 C.3   1201  0NV1201     0.1825
     12  N12       13.0220   29.5710   13.6950 N.2   1201  0NV1201    -0.2134
     13  C13       12.7100   28.2780   13.6700 C.1   1201  0NV1201     0.0325
     14  N14       12.5130   27.3680   14.6680 N.2   1201  0NV1201    -0.1925
     15  C15       12.2480   26.1380   14.0990 C.2   1201  0NV1201     0.1103
     16  C16       12.2270   26.2030   12.7610 C.2   1201  0NV1201     0.0327
     17  C17       12.5490   27.6070   12.4400 C.2   1201  0NV1201     0.0782
     18  C18       12.7260   28.3370   11.2430 C.2   1201  0NV1201     0.0740
     19  C19       11.5170   23.6890    6.5490 C.3   1201  0NV1201     0.0991
     20  C20       10.0590   23.3470    6.2450 C.ar  1201  0NV1201    -0.0061
     21  C21        9.3630   22.4140    7.0230 C.ar  1201  0NV1201    -0.0029
     22  C22        8.0400   22.0880    6.7820 C.ar  1201  0NV1201    -0.0003
     23  C23        7.4240   22.7170    5.7130 C.ar  1201  0NV1201    -0.0000
     24  C24        8.0990   23.6470    4.9290 C.ar  1201  0NV1201    -0.0003
     25  C25        9.4200   23.9690    5.1810 C.ar  1201  0NV1201    -0.0029
@<TRIPOS>BOND
     1    24    25   ar
     2    24    23   ar
     3    25    20   ar
     4    23    22   ar
     5    20    19    1
     6    20    21   ar
     7    19     3    1
     8    22    21   ar
     9     3     4    1
    10     3     2    1
    11     4     5    1
    12     5     6    1
    13     2     1    1
    14     1     6    1
    15     8     7    1
    16     8     9    1
    17     6     7    1
    18     7    18    1
    19     9    10    2
    20    18    10    1
    21    18    17    2
    22    10    11    1
    23    17    16    1
    24    17    13    1
    25    11    12    1
    26    16    15    2
    27    13    12    2
    28    13    14    2
    29    15    14    1
