@<TRIPOS>MOLECULE
4e7r_0NW_G_1.pdb
 40 43 0 0 0
SMALL
GASTEIGER

@<TRIPOS>ATOM
      1  C1        -3.1190  -16.4040  -21.0990 C.ar  1302  0NW1302    -0.0001
      2  C2        -2.5780  -15.8180  -22.2430 C.ar  1302  0NW1302     0.0080
      3  C3        -1.3120  -16.1810  -22.6890 C.ar  1302  0NW1302     0.0972
      4  C7        -0.3240  -18.7870  -20.1170 C.3   1302  0NW1302     0.0550
      5  C8        -0.6560  -20.1960  -20.6290 C.3   1302  0NW1302     0.1780
      6  C9        -2.0970  -20.3680  -21.0350 C.2   1302  0NW1302     0.2437
      7  C12       -4.3990  -20.8120  -20.4900 C.3   1302  0NW1302     0.0934
      8  C13       -4.9830  -22.0560  -19.8380 C.3   1302  0NW1302     0.0216
      9  C14       -4.7870  -22.0130  -18.3380 C.3   1302  0NW1302     0.0049
     10  C15       -3.2860  -22.0810  -18.1250 C.3   1302  0NW1302     0.0216
     11  C16       -2.6340  -20.8270  -18.6980 C.3   1302  0NW1302     0.0934
     12  C30       -0.6480  -25.3550  -20.8700 C.ar  1302  0NW1302     0.0014
     13  C31       -1.7840  -25.3930  -21.6800 C.ar  1302  0NW1302     0.0001
     14  C32       -2.0350  -24.3330  -22.5400 C.ar  1302  0NW1302     0.0021
     15  C33       -1.1640  -23.2390  -22.5350 C.ar  1302  0NW1302     0.0200
     16  C34       -3.2410  -24.2710  -23.4250 C.ar  1302  0NW1302     0.0107
     17  C35       -3.1500  -23.9380  -24.7730 C.ar  1302  0NW1302     0.0585
     18  C44       -0.7130  -15.5390  -23.9070 C.2   1302  0NW1302     0.4766
     19  N46       -1.4590  -14.7640  -24.6850 N.pl3 1302  0NW1302     0.2047
     20  N45        0.5100  -15.7130  -24.1850 N.pl3 1302  0NW1302     0.2047
     21  C4        -0.5900  -17.1330  -21.9850 C.ar  1302  0NW1302     0.0038
     22  C5        -1.1340  -17.7330  -20.8520 C.ar  1302  0NW1302    -0.0200
     23  N24        0.1700  -20.5420  -21.7690 N.3   1302  0NW1302    -0.0696
     24  S25        0.9760  -21.9330  -21.7550 S.O2  1302  0NW1302     0.0772
     25  C28       -0.0240  -23.1950  -21.7340 C.ar  1302  0NW1302     0.1236
     26  C39       -4.4990  -24.4830  -22.8660 C.ar  1302  0NW1302     0.0017
     27  C38       -5.6410  -24.3870  -23.6570 C.ar  1302  0NW1302     0.0114
     28  C37       -5.5320  -24.0640  -25.0030 C.ar  1302  0NW1302     0.0585
     29 CL2        -6.9630  -23.9100  -26.0720 Cl    1302  0NW1302    -0.0822
     30  C36       -4.2910  -23.8410  -25.5540 C.ar  1302  0NW1302     0.0228
     31 CL1        -1.5950  -23.6280  -25.6120 Cl    1302  0NW1302    -0.0822
     32  C29        0.2270  -24.2720  -20.8880 C.ar  1302  0NW1302     0.0200
     33  O27        1.8000  -21.9270  -22.9300 O.2   1302  0NW1302    -0.1516
     34  O26        1.7710  -21.9530  -20.5630 O.2   1302  0NW1302    -0.1516
     35  N11       -2.9960  -20.6760  -20.1060 N.am  1302  0NW1302    -0.2784
     36  C17       -5.4530  -23.2270  -17.7000 C.3   1302  0NW1302     0.0206
     37  C18       -5.2000  -23.3080  -16.1940 C.3   1302  0NW1302     0.1093
     38  N19       -6.0070  -22.3290  -15.4870 N.3   1302  0NW1302    -0.1314
     39  O10       -2.4110  -20.2360  -22.2080 O.2   1302  0NW1302    -0.2733
     40  C6        -2.3980  -17.3640  -20.4000 C.ar  1302  0NW1302    -0.0042
@<TRIPOS>BOND
     1    29    28    1
     2    31    17    1
     3    30    28   ar
     4    30    17   ar
     5    28    27   ar
     6    17    16   ar
     7    19    18    2
     8    20    18    1
     9    18     3    1
    10    27    26   ar
    11    16    26   ar
    12    16    14    1
    13    33    24    2
    14     3     2   ar
    15     3    21   ar
    16    14    15   ar
    17    14    13   ar
    18    15    25   ar
    19     2     1   ar
    20    39     6    2
    21    21    22   ar
    22    23    24    1
    23    23     5    1
    24    24    25    1
    25    24    34    2
    26    25    32   ar
    27    13    12   ar
    28     1    40   ar
    29     6     5    1
    30     6    35   am
    31    32    12   ar
    32    22    40   ar
    33    22     4    1
    34     5     4    1
    35     7    35    1
    36     7     8    1
    37    35    11    1
    38     8     9    1
    39    11    10    1
    40     9    10    1
    41     9    36    1
    42    36    37    1
    43    37    38    1
