@<TRIPOS>MOLECULE
4e7s_ADP_A_1.pdb
 27 29 0 0 0
SMALL
GASTEIGER

@<TRIPOS>ATOM
      1  PB       -13.6130   40.0500  -30.7830 P.3   801  ADP801      0.5373
      2  O1B      -13.1290   38.7170  -31.2780 O.3   801  ADP801     -0.1143
      3  O2B      -14.9650   40.4540  -31.3360 O.2   801  ADP801     -0.2221
      4  O3B      -13.4860   40.1720  -29.2950 O.3   801  ADP801     -0.1143
      5  PA       -11.1800   40.7920  -32.1800 P.3   801  ADP801      0.2231
      6  O1A      -10.2740   39.8450  -31.4340 O.3   801  ADP801     -0.4370
      7  O2A      -11.5910   40.5700  -33.5960 O.2   801  ADP801     -0.5169
      8  O3A      -12.5220   41.1130  -31.3180 O.3   801  ADP801     -0.2261
      9  O5'      -10.5070   42.2580  -32.1010 O.3   801  ADP801     -0.3111
     10  C5'      -11.0080   43.3480  -32.8830 C.3   801  ADP801      0.1813
     11  C4'       -9.8320   44.0690  -33.5270 C.3   801  ADP801      0.1821
     12  O4'       -9.0310   44.5820  -32.4640 O.3   801  ADP801     -0.3135
     13  C3'       -8.8780   43.1610  -34.2910 C.3   801  ADP801      0.2184
     14  O3'       -9.2060   42.9670  -35.6650 O.3   801  ADP801     -0.2174
     15  C2'       -7.5460   43.8570  -34.1760 C.3   801  ADP801      0.2570
     16  O2'       -7.4920   44.9290  -35.1300 O.3   801  ADP801     -0.2130
     17  C1'       -7.6500   44.5270  -32.8260 C.3   801  ADP801      0.3186
     18  N9        -6.9250   43.8410  -31.7370 N.pl3 801  ADP801     -0.1439
     19  C8        -7.5060   43.1870  -30.7210 C.3   801  ADP801      0.3377
     20  N7        -6.5670   42.7180  -29.8650 N.2   801  ADP801     -0.2095
     21  C5        -5.3550   43.0830  -30.3330 C.2   801  ADP801      0.2526
     22  C6        -3.9440   42.9120  -29.9110 C.2   801  ADP801      0.4393
     23  N6        -3.6210   42.2430  -28.7840 N.pl3 801  ADP801      0.2180
     24  N1        -2.9860   43.4400  -30.7040 N.2   801  ADP801      0.0021
     25  C2        -3.2820   44.1210  -31.8270 C.3   801  ADP801      0.5254
     26  N3        -4.5370   44.3240  -32.2720 N.2   801  ADP801     -0.0055
     27  C4        -5.6010   43.8330  -31.5740 C.2   801  ADP801      0.3518
@<TRIPOS>BOND
     1    14    13    1
     2    16    15    1
     3    13    15    1
     4    13    11    1
     5    15    17    1
     6     7     5    2
     7    11    10    1
     8    11    12    1
     9    10     9    1
    10    17    12    1
    11    17    18    1
    12    26    25    1
    13    26    27    2
    14     5     9    1
    15     5     6    1
    16     5     8    1
    17    25    24    1
    18    18    27    1
    19    18    19    1
    20    27    21    1
    21     3     1    2
    22     8     1    1
    23     2     1    1
    24     1     4    1
    25    19    20    1
    26    24    22    2
    27    21    22    1
    28    21    20    2
    29    22    23    1
