@<TRIPOS>MOLECULE
4e7z_ADP_A_1.pdb
 27 29 0 0 0
SMALL
GASTEIGER

@<TRIPOS>ATOM
      1  PB        21.3490    4.6550   17.7770 P.3   801  ADP801      0.5373
      2  O1B       19.9750    4.8190   18.2690 O.3   801  ADP801     -0.1143
      3  O2B       22.2620    3.7640   18.5950 O.3   801  ADP801     -0.1143
      4  O3B       21.3950    4.3200   16.3250 O.2   801  ADP801     -0.2221
      5  PA        21.3070    7.5120   18.3170 P.3   801  ADP801      0.2231
      6  O1A       20.1250    7.8120   17.4420 O.2   801  ADP801     -0.5169
      7  O2A       21.0940    7.4510   19.8010 O.3   801  ADP801     -0.4370
      8  O3A       21.9950    6.1390   17.8070 O.3   801  ADP801     -0.2261
      9  O5'       22.4900    8.5570   18.0210 O.3   801  ADP801     -0.3111
     10  C5'       23.6770    8.5350   18.8270 C.3   801  ADP801      0.1813
     11  C4'       24.1440    9.9600   19.0580 C.3   801  ADP801      0.1821
     12  O4'       24.5700   10.4990   17.8130 O.3   801  ADP801     -0.3135
     13  C3'       22.9950   10.8760   19.4790 C.3   801  ADP801      0.2184
     14  O3'       22.6940   10.8710   20.8760 O.3   801  ADP801     -0.2174
     15  C2'       23.3620   12.2310   18.9340 C.3   801  ADP801      0.2570
     16  O2'       24.3630   12.8420   19.7390 O.3   801  ADP801     -0.2130
     17  C1'       24.1160   11.8520   17.6810 C.3   801  ADP801      0.3186
     18  N9        23.2740   11.9850   16.4700 N.pl3 801  ADP801     -0.1439
     19  C8        22.7530   10.9890   15.7460 C.3   801  ADP801      0.3377
     20  N7        22.0810   11.4650   14.6790 N.2   801  ADP801     -0.2095
     21  C5        22.1570   12.7930   14.7110 C.2   801  ADP801      0.2526
     22  C6        21.6760   13.9070   13.8710 C.2   801  ADP801      0.4393
     23  N6        20.9370   13.6980   12.7650 N.pl3 801  ADP801      0.2180
     24  N1        21.9890   15.1520   14.2590 N.2   801  ADP801      0.0021
     25  C2        22.7110   15.3950   15.3580 C.3   801  ADP801      0.5254
     26  N3        23.1890   14.4320   16.1660 N.2   801  ADP801     -0.0055
     27  C4        22.9540   13.1310   15.8880 C.2   801  ADP801      0.3518
@<TRIPOS>BOND
     1    23    22    1
     2    22    24    2
     3    22    21    1
     4    24    25    1
     5    20    21    2
     6    20    19    1
     7    21    27    1
     8    25    26    1
     9    19    18    1
    10    27    26    2
    11    27    18    1
    12     4     1    2
    13    18    17    1
    14     6     5    2
    15    17    12    1
    16    17    15    1
    17     1     8    1
    18     1     2    1
    19     1     3    1
    20     8     5    1
    21    12    11    1
    22     9     5    1
    23     9    10    1
    24     5     7    1
    25    10    11    1
    26    15    13    1
    27    15    16    1
    28    11    13    1
    29    13    14    1
