@<TRIPOS>MOLECULE
4e80_UTP_A_1.pdb
 29 30 0 0 0
SMALL
GASTEIGER

@<TRIPOS>ATOM
      1  PA       -17.5700  -15.7480   21.4540 P.3   501  UTP501      0.2189
      2  O1A      -18.6550  -16.6030   21.9770 O.3   501  UTP501     -0.4371
      3  O2A      -18.1000  -14.2650   21.1660 O.2   501  UTP501     -0.5170
      4  O3A      -16.3530  -15.5290   22.5330 O.3   501  UTP501     -0.2700
      5  O5'      -17.2810  -16.2790   19.9930 O.3   501  UTP501     -0.3112
      6  PB       -15.6840  -16.9260   23.0940 P.3   501  UTP501      0.2277
      7  O1B      -16.2870  -18.2410   22.3660 O.2   501  UTP501     -0.5168
      8  O2B      -14.2370  -16.8340   22.7880 O.3   501  UTP501     -0.4368
      9  O3B      -15.7890  -17.0630   24.7340 O.3   501  UTP501     -0.2258
     10  PG       -17.1240  -17.8320   25.2800 P.3   501  UTP501      0.5373
     11  O1G      -17.8300  -16.9100   26.3860 O.3   501  UTP501     -0.1143
     12  O2G      -16.7240  -19.1080   25.9150 O.3   501  UTP501     -0.1143
     13  O3G      -18.1960  -18.1310   24.1140 O.2   501  UTP501     -0.2221
     14  C5'      -15.9920  -15.9750   19.6580 C.3   501  UTP501      0.1813
     15  C4'      -15.5960  -16.5260   18.2960 C.3   501  UTP501      0.1799
     16  O4'      -16.3730  -16.1690   17.1040 O.3   501  UTP501     -0.3320
     17  C1'      -15.5850  -15.2680   16.2760 C.3   501  UTP501      0.2401
     18  C2'      -14.1710  -15.2120   16.8740 C.3   501  UTP501      0.2319
     19  O2'      -13.2370  -15.8510   16.0290 O.3   501  UTP501     -0.2157
     20  C3'      -14.2100  -15.9500   18.2010 C.3   501  UTP501      0.2158
     21  O3'      -13.2410  -16.9670   18.3140 O.3   501  UTP501     -0.2175
     22  N1       -16.1380  -13.9150   16.3400 N.am  501  UTP501     -0.1766
     23  C6       -16.9800  -13.5920   17.3770 C.2   501  UTP501      0.0929
     24  C2       -15.8050  -12.9810   15.4050 C.1   501  UTP501      0.2845
     25  O2       -15.0510  -13.2770   14.4890 O.2   501  UTP501     -0.1918
     26  N3       -16.2990  -11.7120   15.4820 N.2   501  UTP501     -0.2452
     27  C4       -17.1340  -11.3630   16.5010 C.1   501  UTP501      0.2182
     28  O4       -17.5740  -10.2280   16.5880 O.2   501  UTP501     -0.2085
     29  C5       -17.4880  -12.3380   17.4770 C.2   501  UTP501      0.1242
@<TRIPOS>BOND
     1    25    24    2
     2    24    26    2
     3    24    22   am
     4    26    27    2
     5    19    18    1
     6    17    22    1
     7    17    18    1
     8    17    16    1
     9    22    23    1
    10    27    28    2
    11    27    29    1
    12    18    20    1
    13    16    15    1
    14    23    29    2
    15    20    15    1
    16    20    21    1
    17    15    14    1
    18    14     5    1
    19     5     1    1
    20     3     1    2
    21     1     2    1
    22     1     4    1
    23     7     6    2
    24     4     6    1
    25     8     6    1
    26     6     9    1
    27    13    10    2
    28     9    10    1
    29    10    12    1
    30    10    11    1
