@<TRIPOS>MOLECULE
4e84_GMZ_B_1.pdb
 22 22 0 0 0
SMALL
GASTEIGER

@<TRIPOS>ATOM
      1  O5        37.8610  -43.0110   48.2900 O.3   502  GMZ502     -0.3253
      2  C1        39.2160  -42.7760   48.6240 C.3   502  GMZ502      0.2781
      3  O1        39.3040  -42.6760   50.0040 O.3   502  GMZ502     -0.2416
      4  C2        40.2530  -43.7630   48.1230 C.3   502  GMZ502      0.2410
      5  O2        40.5580  -44.6890   49.1100 O.3   502  GMZ502     -0.2149
      6  C3        39.8530  -44.4700   46.8940 C.3   502  GMZ502      0.2198
      7  O3        40.6890  -45.5490   46.6950 O.3   502  GMZ502     -0.2174
      8  C4        38.4550  -44.9650   47.0720 C.3   502  GMZ502      0.2144
      9  O4        38.0940  -45.7400   45.9900 O.3   502  GMZ502     -0.2176
     10  C5        37.5200  -43.8120   47.2260 C.3   502  GMZ502      0.1834
     11  C6        36.1050  -44.3040   47.4130 C.3   502  GMZ502      0.2116
     12  O6        35.2100  -43.2610   47.3210 O.3   502  GMZ502     -0.2177
     13  C7        35.9260  -44.9530   48.7650 C.3   502  GMZ502      0.1891
     14  O7        34.7920  -45.7640   48.7450 O.3   502  GMZ502     -0.2674
     15  P2        33.4050  -45.2230   49.2650 P.3   502  GMZ502      0.5327
     16  OP4       32.3490  -46.2940   49.0970 O.3   502  GMZ502     -0.1145
     17  OP5       33.4990  -44.8560   50.7270 O.3   502  GMZ502     -0.1145
     18  OP6       33.0290  -44.0070   48.4610 O.2   502  GMZ502     -0.2224
     19  P1        39.0010  -41.2830   50.6810 P.3   502  GMZ502      0.5346
     20  OP1       40.2900  -40.6140   51.0980 O.3   502  GMZ502     -0.1145
     21  OP2       38.2890  -40.3910   49.6860 O.2   502  GMZ502     -0.2223
     22  OP3       38.1210  -41.4660   51.9030 O.3   502  GMZ502     -0.1145
@<TRIPOS>BOND
     1     9     8    1
     2     7     6    1
     3     6     8    1
     4     6     4    1
     5     8    10    1
     6    10    11    1
     7    10     1    1
     8    12    11    1
     9    11    13    1
    10     4     2    1
    11     4     5    1
    12     1     2    1
    13    18    15    2
    14     2     3    1
    15    14    13    1
    16    14    15    1
    17    16    15    1
    18    15    17    1
    19    21    19    2
    20     3    19    1
    21    19    20    1
    22    19    22    1
