@<TRIPOS>MOLECULE
4e84_M7B_A_1.pdb
 18 18 0 0 0
SMALL
GASTEIGER

@<TRIPOS>ATOM
      1  P         25.7110  -50.8940   17.9270 P.3   502  M7B502      0.5327
      2  C1        20.7650  -54.3660   18.5330 C.3   502  M7B502      0.3024
      3  C2        20.9780  -55.7650   19.0630 C.3   502  M7B502      0.2434
      4  O2        21.7190  -56.5140   18.1690 O.3   502  M7B502     -0.2148
      5  C3        21.6770  -55.7660   20.4020 C.3   502  M7B502      0.2199
      6  O3        22.0800  -57.0350   20.7310 O.3   502  M7B502     -0.2174
      7  C4        22.8660  -54.8130   20.4060 C.3   502  M7B502      0.2144
      8  O4        23.4210  -54.7390   21.6760 O.3   502  M7B502     -0.2176
      9  C5        22.3980  -53.4780   19.8960 C.3   502  M7B502      0.1835
     10  C6        23.4860  -52.4460   20.0470 C.3   502  M7B502      0.2116
     11  O6        23.1010  -51.2280   19.5350 O.3   502  M7B502     -0.2177
     12  C7        24.7940  -52.8110   19.3870 C.3   502  M7B502      0.1891
     13  O7        24.9050  -52.2310   18.1320 O.3   502  M7B502     -0.2674
     14  O8        25.0430  -49.7850   18.7210 O.3   502  M7B502     -0.1145
     15  O9        27.1520  -51.0470   18.3820 O.3   502  M7B502     -0.1145
     16  O10       25.7030  -50.5300   16.4620 O.2   502  M7B502     -0.2224
     17  O1        20.3190  -54.4000   17.2370 O.3   502  M7B502     -0.1869
     18  O5        21.9570  -53.6790   18.5840 O.3   502  M7B502     -0.3236
@<TRIPOS>BOND
     1    16     1    2
     2    17     2    1
     3     1    13    1
     4     1    15    1
     5     1    14    1
     6    13    12    1
     7     4     3    1
     8     2    18    1
     9     2     3    1
    10    18     9    1
    11     3     5    1
    12    12    10    1
    13    11    10    1
    14     9    10    1
    15     9     7    1
    16     5     7    1
    17     5     6    1
    18     7     8    1
