@<TRIPOS>MOLECULE
4e84_ANP_A_1.pdb
 27 29 0 0 0
SMALL
GASTEIGER

@<TRIPOS>ATOM
      1  PB        15.8370  -51.4870   14.4770 P.3   501  ANP501      0.4738
      2  O1B       16.2940  -50.0150   14.7250 O.3   501  ANP501     -0.1247
      3  O2B       16.9070  -52.2030   13.6030 O.2   501  ANP501     -0.2343
      4  N3B       15.6630  -52.2800   15.9270 N.3   501  ANP501     -0.0178
      5  PA        13.2490  -50.6640   14.2270 P.3   501  ANP501      0.2220
      6  O1A       12.7520  -49.7870   13.0450 O.2   501  ANP501     -0.5170
      7  O2A       13.7050  -49.7280   15.3840 O.3   501  ANP501     -0.4370
      8  O3A       14.4690  -51.4900   13.7060 O.3   501  ANP501     -0.2354
      9  O5'       12.0760  -51.5880   14.7250 O.3   501  ANP501     -0.3111
     10  C5'       11.8440  -52.8170   14.1090 C.3   501  ANP501      0.1813
     11  C4'       10.4020  -53.2240   14.3270 C.3   501  ANP501      0.1821
     12  O4'        9.9760  -53.0720   15.6800 O.3   501  ANP501     -0.3135
     13  C3'        9.4530  -52.4210   13.5040 C.3   501  ANP501      0.2184
     14  O3'        9.4380  -52.7410   12.1590 O.3   501  ANP501     -0.2174
     15  C2'        8.1700  -52.6630   14.1680 C.3   501  ANP501      0.2570
     16  O2'        7.4790  -53.6960   13.5680 O.3   501  ANP501     -0.2130
     17  C1'        8.5600  -53.0020   15.5720 C.3   501  ANP501      0.3186
     18  N9         7.9560  -52.0860   16.5440 N.pl3 501  ANP501     -0.1439
     19  C8         6.6900  -52.1370   16.9830 C.3   501  ANP501      0.3377
     20  N7         6.4490  -51.1380   17.8280 N.2   501  ANP501     -0.2095
     21  C5         7.5570  -50.4040   17.9590 C.2   501  ANP501      0.2526
     22  C6         7.8960  -49.2710   18.6860 C.2   501  ANP501      0.4393
     23  N6         6.9160  -48.6460   19.5350 N.pl3 501  ANP501      0.2180
     24  N1         9.1340  -48.7670   18.5970 N.2   501  ANP501      0.0021
     25  C2        10.0680  -49.3340   17.8110 C.3   501  ANP501      0.5254
     26  N3         9.7750  -50.4440   17.0860 N.2   501  ANP501     -0.0055
     27  C4         8.5450  -50.9910   17.1410 C.2   501  ANP501      0.3518
@<TRIPOS>BOND
     1    14    13    1
     2     6     5    2
     3    13    15    1
     4    13    11    1
     5    16    15    1
     6     3     1    2
     7     8     5    1
     8     8     1    1
     9    10    11    1
    10    10     9    1
    11    15    17    1
    12     5     9    1
    13     5     7    1
    14    11    12    1
    15     1     2    1
    16     1     4    1
    17    17    12    1
    18    17    18    1
    19    18    19    1
    20    18    27    1
    21    19    20    1
    22    26    27    2
    23    26    25    1
    24    27    21    1
    25    25    24    1
    26    20    21    2
    27    21    22    1
    28    24    22    2
    29    22    23    1
