@<TRIPOS>MOLECULE
4e8a_0OA_A_1.pdb
 23 25 0 0 0
SMALL
GASTEIGER

@<TRIPOS>ATOM
      1  O15       -3.4810    4.1800  -38.8800 O.3   500  0OA500     -0.4373
      2  P12       -3.7340    5.6710  -38.6590 P.3   500  0OA500      0.2141
      3  O14       -4.4000    6.5030  -39.7290 O.2   500  0OA500     -0.5172
      4  O13       -4.5780    5.8080  -37.2790 O.3   500  0OA500     -0.3114
      5  C16       -5.1180    4.6480  -36.6490 C.3   500  0OA500      0.1811
      6  C17       -5.1760    5.0220  -35.1120 C.3   500  0OA500      0.1745
      7  O22       -5.3670    3.7810  -34.4300 O.3   500  0OA500     -0.3510
      8  C23       -5.8190    3.9810  -33.0810 C.3   500  0OA500      0.1449
      9  C18       -6.3880    5.8770  -34.8210 C.3   500  0OA500      0.1741
     10  O19       -7.4330    4.9670  -34.4730 O.3   500  0OA500     -0.3510
     11  C20       -7.3210    4.4620  -33.1420 C.3   500  0OA500      0.1449
     12  C21       -7.3410    2.9500  -33.2090 C.3   500  0OA500      0.0641
     13  O11       -2.3260    6.3220  -38.2600 O.3   500  0OA500     -0.3112
     14  C4        -1.2320    5.5840  -38.7400 C.3   500  0OA500      0.1848
     15  C3         0.0450    6.3710  -39.0110 C.3   500  0OA500      0.2145
     16  O7         0.5610    7.0020  -37.8480 O.3   500  0OA500     -0.2176
     17  C2         1.0610    5.4080  -39.5590 C.3   500  0OA500      0.2148
     18  O8         2.4000    5.9050  -39.5140 O.3   500  0OA500     -0.2176
     19  C5        -1.6860    4.7050  -39.9030 C.3   500  0OA500      0.1846
     20  C6        -0.5880    4.3440  -40.9080 C.3   500  0OA500      0.0711
     21  C1         0.5690    5.3390  -40.9590 C.3   500  0OA500      0.1874
     22  O9         1.6600    4.9510  -41.7970 O.3   500  0OA500     -0.2202
     23  O10       -2.7520    5.3540  -40.5910 O.3   500  0OA500     -0.2203
@<TRIPOS>BOND
     1    22    21    1
     2    21    20    1
     3    21    17    1
     4    20    19    1
     5    23    19    1
     6    19    14    1
     7     3     2    2
     8    17    18    1
     9    17    15    1
    10    15    14    1
    11    15    16    1
    12     1     2    1
    13    14    13    1
    14     2    13    1
    15     2     4    1
    16     4     5    1
    17     5     6    1
    18     6     9    1
    19     6     7    1
    20     9    10    1
    21    10    11    1
    22     7     8    1
    23    12    11    1
    24    12     8    1
    25    11     8    1
