@<TRIPOS>MOLECULE
4e8c_GAL_A_1.pdb
 12 12 0 0 0
SMALL
GASTEIGER

@<TRIPOS>ATOM
      1  C1        12.3750   -2.4530   39.9540 C.3   601  GAL601      0.3024
      2  C2        11.7210   -1.1440   40.3760 C.3   601  GAL601      0.2434
      3  C3        11.1420   -1.3310   41.7720 C.3   601  GAL601      0.2199
      4  C4        10.2090   -2.5340   41.7580 C.3   601  GAL601      0.2144
      5  C5        10.9810   -3.7450   41.2540 C.3   601  GAL601      0.1836
      6  C6        10.1310   -5.0090   41.2350 C.3   601  GAL601      0.2142
      7  O1        12.8930   -2.3340   38.6530 O.3   601  GAL601     -0.1869
      8  O2        12.6740   -0.1060   40.3880 O.3   601  GAL601     -0.2148
      9  O3        10.4280   -0.1770   42.1440 O.3   601  GAL601     -0.2174
     10  O4         9.1250   -2.2860   40.8990 O.3   601  GAL601     -0.2176
     11  O5        11.3770   -3.4460   39.9410 O.3   601  GAL601     -0.3236
     12  O6         9.8160   -5.4120   42.5460 O.3   601  GAL601     -0.2176
@<TRIPOS>BOND
     1     7     1    1
     2    11     1    1
     3    11     5    1
     4     1     2    1
     5     2     8    1
     6     2     3    1
     7    10     4    1
     8     6     5    1
     9     6    12    1
    10     5     4    1
    11     4     3    1
    12     3     9    1
