@<TRIPOS>MOLECULE
4e8j_LN0_A_1.pdb
 27 28 0 0 0
SMALL
GASTEIGER

@<TRIPOS>ATOM
      1  C4       -22.6410  -11.9830  -16.6350 C.3   202  LN0202      0.1761
      2  C14      -19.9550   -6.9180  -13.0160 C.3   202  LN0202      0.0725
      3  C5       -24.3340  -13.5040  -17.5340 C.3   202  LN0202      0.1955
      4  C6       -23.0610  -14.0760  -20.0950 C.3   202  LN0202      0.0716
      5  C11      -20.1260   -8.7800  -14.2560 C.3   202  LN0202      0.1366
      6  C7       -21.3220  -12.0400  -15.9700 C.3   202  LN0202      0.1818
      7  C8       -20.3890  -12.7100  -16.9950 C.2   202  LN0202      0.1732
      8  C9       -19.7660  -14.0740  -16.6860 C.3   202  LN0202      0.0742
      9  C10      -20.7910  -10.1140  -14.4200 C.2   202  LN0202      0.2563
     10  C12      -18.7790   -8.8740  -13.6030 C.3   202  LN0202      0.0268
     11  C13      -18.7080   -7.6980  -12.7210 C.3   202  LN0202      0.0178
     12  N1       -20.7090  -10.7710  -15.7300 N.am  202  LN0202     -0.1959
     13  N2       -20.9280   -7.9060  -13.4320 N.3   202  LN0202     -0.2653
     14  C3       -23.6740  -11.1690  -15.9620 C.3   202  LN0202      0.2138
     15  C18      -15.2530   -8.1350  -13.5960 C.3   202  LN0202      0.0000
     16  C17      -16.1990   -7.5460  -12.5570 C.3   202  LN0202      0.0000
     17  C16      -17.4760   -6.9290  -13.0330 C.3   202  LN0202      0.0014
     18  C15      -22.1760   -7.1280  -13.6300 C.3   202  LN0202      0.0900
     19  O9       -21.4100  -10.6770  -13.4890 O.2   202  LN0202     -0.2719
     20  O8       -20.1740  -12.1330  -18.1020 O.2   202  LN0202     -0.2942
     21  O5       -23.1090  -13.3980  -16.8280 O.3   202  LN0202     -0.3403
     22  O7       -23.7510  -11.6040  -14.6140 O.3   202  LN0202     -0.2176
     23  C2       -24.9890  -11.2900  -16.6090 C.3   202  LN0202      0.2181
     24  O6       -25.9640  -10.6030  -15.8070 O.3   202  LN0202     -0.2175
     25  C1       -25.4010  -12.6980  -16.8420 C.3   202  LN0202      0.2219
     26  O4       -26.5560  -12.7850  -17.6010 O.3   202  LN0202     -0.2167
     27  S1       -24.1350  -12.9590  -19.2500 S.3   202  LN0202     -0.1085
@<TRIPOS>BOND
     1     4    27    1
     2    27     3    1
     3    20     7    2
     4    26    25    1
     5     3    25    1
     6     3    21    1
     7     7     8    1
     8     7     6    1
     9    25    23    1
    10    21     1    1
    11     1     6    1
    12     1    14    1
    13    23    14    1
    14    23    24    1
    15     6    12    1
    16    14    22    1
    17    12     9   am
    18     9     5    1
    19     9    19    2
    20     5    10    1
    21     5    13    1
    22    18    13    1
    23    10    11    1
    24    15    16    1
    25    13     2    1
    26    17    11    1
    27    17    16    1
    28     2    11    1
