@<TRIPOS>MOLECULE
4e8w_IHA_A_1.pdb
 32 35 0 0 0
SMALL
GASTEIGER

@<TRIPOS>ATOM
      1  O27       13.1860  -41.6630  -22.5900 O.co2 501  IHA501     -0.2415
      2  C25       13.4870  -40.5200  -23.0010 C.2   501  IHA501      0.4084
      3  O26       12.6570  -39.5930  -23.1230 O.co2 501  IHA501     -0.2415
      4  C24       14.9190  -40.2340  -23.3820 C.3   501  IHA501      0.3183
      5  O23       15.0940  -38.8210  -23.4080 O.2   501  IHA501     -0.4677
      6  C22       16.1970  -38.2720  -23.9930 C.2   501  IHA501      0.1240
      7  C21       17.0250  -39.0580  -24.7900 C.3   501  IHA501      0.1232
      8  C28       16.4660  -36.9250  -23.7860 C.2   501  IHA501      0.0334
      9  C29       17.5810  -36.3520  -24.3730 C.2   501  IHA501      0.0116
     10  C30       18.3970  -37.1510  -25.1610 C.2   501  IHA501      0.0575
     11  C20       18.1470  -38.4970  -25.3880 C.2   501  IHA501      0.1228
     12  N19       19.1210  -39.0220  -26.2040 N.2   501  IHA501     -0.4013
     13  S31       19.7210  -36.6040  -25.9050 S.3   501  IHA501     -0.0558
     14  C18       20.0620  -38.1020  -26.5690 C.2   501  IHA501      0.1608
     15  C17       21.3090  -38.1320  -27.4240 C.3   501  IHA501      0.1906
     16  N16       22.2430  -39.1050  -26.8930 N.pl3 501  IHA501     -0.1526
     17  C15       22.6150  -39.0190  -25.6010 C.1   501  IHA501      0.1842
     18  N14       23.5630  -38.1520  -25.1970 N.2   501  IHA501     -0.0662
     19  N13       23.9200  -38.0940  -23.8470 N.2   501  IHA501     -0.1328
     20  C12       23.3240  -38.9030  -22.9590 C.2   501  IHA501      0.1560
     21  N32       22.0210  -39.8330  -24.7110 N.2   501  IHA501     -0.3335
     22  C11       22.3500  -39.7910  -23.4080 C.2   501  IHA501      0.1709
     23  C10       21.6390  -40.7080  -22.4900 C.ar  501  IHA501      0.0999
     24  C3        22.1900  -41.9300  -22.1770 C.ar  501  IHA501      0.1441
     25  O2        23.4030  -42.2820  -22.7360 O.3   501  IHA501     -0.4712
     26  C1        24.4970  -42.7410  -21.9200 C.3   501  IHA501      0.2525
     27  C7        20.4240  -40.3380  -21.9630 C.ar  501  IHA501      0.1441
     28  O8        19.9000  -39.1140  -22.2900 O.3   501  IHA501     -0.4712
     29  C9        18.7490  -38.6060  -21.6020 C.3   501  IHA501      0.2525
     30  C6        19.7460  -41.1980  -21.1080 C.ar  501  IHA501      0.0372
     31  C5        20.2950  -42.4340  -20.7880 C.ar  501  IHA501      0.0062
     32  C4        21.5180  -42.8050  -21.3290 C.ar  501  IHA501      0.0372
@<TRIPOS>BOND
     1    15    16    1
     2    15    14    1
     3    16    17    1
     4    14    12    2
     5    14    13    1
     6    12    11    2
     7    13    10    1
     8    17    18    2
     9    17    21    2
    10    11    10    1
    11    11     7    1
    12    18    19    1
    13    10     9    2
    14     7     6    1
    15    21    22    2
    16     9     8    1
    17     6     8    2
    18     6     5    1
    19    19    20    2
    20     5     4    1
    21    22    20    1
    22    22    23    1
    23     4     2    1
    24     3     2   ar
    25     2     1   ar
    26    25    24    1
    27    25    26    1
    28    23    24   ar
    29    23    27   ar
    30    28    27    1
    31    28    29    1
    32    24    32   ar
    33    27    30   ar
    34    32    31   ar
    35    30    31   ar
