@<TRIPOS>MOLECULE
4e8y_IHA_A_1.pdb
 32 35 0 0 0
SMALL
GASTEIGER

@<TRIPOS>ATOM
      1  O27        6.0190  -11.0650   30.0990 O.co2 501  IHA501     -0.2415
      2  C25        7.0580  -11.7640   30.0790 C.2   501  IHA501      0.4084
      3  O26        7.0900  -12.9530   29.6910 O.co2 501  IHA501     -0.2415
      4  C24        8.3540  -11.1540   30.5410 C.3   501  IHA501      0.3183
      5  O23        9.2490  -11.1010   29.4340 O.2   501  IHA501     -0.4677
      6  C22       10.5270  -10.6720   29.6600 C.2   501  IHA501      0.1240
      7  C21       11.5880  -11.5670   29.5770 C.3   501  IHA501      0.1232
      8  C28       10.7460   -9.3310   29.9610 C.2   501  IHA501      0.0334
      9  C29       12.0380   -8.8750   30.1960 C.2   501  IHA501      0.0116
     10  C30       13.0860   -9.7820   30.1140 C.2   501  IHA501      0.0575
     11  C20       12.8820  -11.1220   29.8060 C.2   501  IHA501      0.1228
     12  N19       14.0790  -11.7830   29.7880 N.2   501  IHA501     -0.4013
     13  S31       14.6420   -9.3990   30.3550 S.3   501  IHA501     -0.0558
     14  C18       15.1430  -10.9840   30.0680 C.2   501  IHA501      0.1608
     15  C17       16.6220  -11.2790   30.1640 C.3   501  IHA501      0.1906
     16  N16       17.1610  -10.7740   31.4130 N.pl3 501  IHA501     -0.1526
     17  C15       16.9870  -11.4230   32.5880 C.1   501  IHA501      0.1842
     18  N14       17.8920  -11.2360   33.5690 N.2   501  IHA501     -0.0662
     19  N13       17.7360  -11.8860   34.7970 N.2   501  IHA501     -0.1328
     20  C12       16.6880  -12.6880   34.9990 C.2   501  IHA501      0.1560
     21  N32       15.9250  -12.2370   32.7980 N.2   501  IHA501     -0.3335
     22  C11       15.7600  -12.8810   33.9810 C.2   501  IHA501      0.1709
     23  C10       14.5720  -13.7630   34.1970 C.ar  501  IHA501      0.0999
     24  C3        14.6710  -15.0420   34.7310 C.ar  501  IHA501      0.1441
     25  O2        15.8870  -15.5670   35.0790 O.3   501  IHA501     -0.4712
     26  C1        15.9780  -16.7510   35.8700 C.3   501  IHA501      0.2525
     27  C7        13.3240  -13.2660   33.8630 C.ar  501  IHA501      0.1441
     28  O8        13.2250  -12.0030   33.3430 O.3   501  IHA501     -0.4712
     29  C9        11.9510  -11.4630   33.0110 C.3   501  IHA501      0.2525
     30  C6        12.1770  -14.0320   34.0450 C.ar  501  IHA501      0.0372
     31  C5        12.2730  -15.3130   34.5720 C.ar  501  IHA501      0.0062
     32  C4        13.5240  -15.8130   34.9140 C.ar  501  IHA501      0.0372
@<TRIPOS>BOND
     1     5     6    1
     2     5     4    1
     3     7     6    1
     4     7    11    1
     5     6     8    2
     6     3     2   ar
     7    12    11    2
     8    12    14    2
     9    11    10    1
    10     8     9    1
    11    14    15    1
    12    14    13    1
    13     2     1   ar
    14     2     4    1
    15    10     9    2
    16    10    13    1
    17    15    16    1
    18    16    17    1
    19    17    21    2
    20    17    18    2
    21    21    22    2
    22    29    28    1
    23    28    27    1
    24    18    19    1
    25    27    30   ar
    26    27    23   ar
    27    22    23    1
    28    22    20    1
    29    30    31   ar
    30    23    24   ar
    31    31    32   ar
    32    24    32   ar
    33    24    25    1
    34    19    20    2
    35    25    26    1
