@<TRIPOS>MOLECULE
4e8y_M7B_A_1.pdb
 18 18 0 0 0
SMALL
GASTEIGER

@<TRIPOS>ATOM
      1  P         -2.3680   -6.3020   30.9760 P.3   502  M7B502      0.5327
      2  C1         3.1460   -4.9070   33.2900 C.3   502  M7B502      0.3024
      3  C2         3.4120   -3.5280   33.8640 C.3   502  M7B502      0.2434
      4  O2         3.5150   -2.5650   32.8670 O.3   502  M7B502     -0.2148
      5  C3         2.3780   -3.1530   34.9050 C.3   502  M7B502      0.2199
      6  O3         2.4070   -1.8090   35.1900 O.3   502  M7B502     -0.2174
      7  C4         0.9640   -3.5770   34.5100 C.3   502  M7B502      0.2144
      8  O4         0.0850   -3.3550   35.5640 O.3   502  M7B502     -0.2176
      9  C5         0.9720   -5.0080   34.0190 C.3   502  M7B502      0.1835
     10  C6        -0.4300   -5.5380   33.8060 C.3   502  M7B502      0.2116
     11  O6        -0.4110   -6.8640   33.4410 O.3   502  M7B502     -0.2177
     12  C7        -1.2500   -4.8140   32.7630 C.3   502  M7B502      0.1891
     13  O7        -1.1810   -5.4100   31.5090 O.3   502  M7B502     -0.2674
     14  O8        -2.4730   -7.5510   31.8400 O.3   502  M7B502     -0.1145
     15  O9        -3.6860   -5.5420   31.0280 O.3   502  M7B502     -0.1145
     16  O10       -2.0860   -6.7070   29.5440 O.2   502  M7B502     -0.2224
     17  O1         3.9800   -5.1530   32.2320 O.3   502  M7B502     -0.1869
     18  O5         1.8240   -5.0510   32.9060 O.3   502  M7B502     -0.3236
@<TRIPOS>BOND
     1    16     1    2
     2     1    15    1
     3     1    13    1
     4     1    14    1
     5    13    12    1
     6    17     2    1
     7    12    10    1
     8     4     3    1
     9    18     2    1
    10    18     9    1
    11     2     3    1
    12    11    10    1
    13    10     9    1
    14     3     5    1
    15     9     7    1
    16     7     5    1
    17     7     8    1
    18     5     6    1
