@<TRIPOS>MOLECULE
4e8z_IHC_A_1.pdb
 30 33 0 0 0
SMALL
GASTEIGER

@<TRIPOS>ATOM
      1 CL1       -14.0570    3.0480   21.2320 Cl    501  IHC501     -0.0821
      2 CL2       -10.5330    7.1430   22.4250 Cl    501  IHC501     -0.0821
      3  C1       -20.9930    3.9970   21.3160 C.2   501  IHC501      0.4084
      4  N1       -11.6760    2.3050   25.5540 N.pl3 501  IHC501     -0.1526
      5  O1       -20.7160    5.1800   21.4200 O.co2 501  IHC501     -0.2415
      6  C2       -20.0690    2.9590   21.9050 C.3   501  IHC501      0.3183
      7  N2       -10.0280    2.4890   23.9110 N.2   501  IHC501     -0.0662
      8  O2       -22.1070    3.6450   20.6790 O.co2 501  IHC501     -0.2415
      9  C3       -18.1430    3.0380   23.3790 C.2   501  IHC501      0.1238
     10  N3        -9.5520    3.0210   22.7060 N.2   501  IHC501     -0.1328
     11  O3       -19.3230    3.5830   22.9480 O.2   501  IHC501     -0.4677
     12  C4       -17.8090    1.7460   22.9850 C.3   501  IHC501      0.0906
     13  N4       -12.0000    3.7190   23.6710 N.2   501  IHC501     -0.3336
     14  C5       -16.6140    1.1830   23.4140 C.2   501  IHC501     -0.0090
     15  N5       -15.0800    3.7090   25.4300 N.2   501  IHC501     -0.3973
     16  C6       -15.7720    1.9300   24.2270 C.2   501  IHC501      0.0574
     17  C7       -14.0550    2.8250   25.6090 C.2   501  IHC501      0.1612
     18  C8       -12.7450    2.8740   26.3650 C.3   501  IHC501      0.1906
     19  C9       -11.2420    2.8480   24.3840 C.1   501  IHC501      0.1842
     20  C10      -10.3050    3.8830   22.0160 C.2   501  IHC501      0.1559
     21  C11      -11.5530    4.2500   22.5070 C.2   501  IHC501      0.1666
     22  C12      -12.4010    5.2080   21.7390 C.ar  501  IHC501      0.0533
     23  C13      -13.5600    4.7690   21.1130 C.ar  501  IHC501      0.0610
     24  C14      -14.3480    5.6610   20.3920 C.ar  501  IHC501      0.0115
     25  C15      -13.9790    6.9950   20.2890 C.ar  501  IHC501      0.0017
     26  C16      -12.8170    7.4320   20.9120 C.ar  501  IHC501      0.0115
     27  C17      -12.0270    6.5410   21.6300 C.ar  501  IHC501      0.0610
     28  C18      -16.0850    3.2220   24.6310 C.2   501  IHC501      0.1401
     29  C19      -17.2870    3.7760   24.1960 C.2   501  IHC501      0.0652
     30  S        -14.3540    1.3940   24.7940 S.3   501  IHC501     -0.0558
@<TRIPOS>BOND
     1    25    24   ar
     2    25    26   ar
     3    24    23   ar
     4     8     3   ar
     5    26    27   ar
     6    23     1    1
     7    23    22   ar
     8     3     5   ar
     9     3     6    1
    10    27    22   ar
    11    27     2    1
    12    22    21    1
    13     6    11    1
    14    20    21    1
    15    20    10    2
    16    21    13    2
    17    10     7    1
    18    11     9    1
    19    12     9    1
    20    12    14    1
    21     9    29    2
    22    14    16    2
    23    13    19    2
    24     7    19    2
    25    29    28    1
    26    16    28    1
    27    16    30    1
    28    19     4    1
    29    28    15    2
    30    30    17    1
    31    15    17    2
    32     4    18    1
    33    17    18    1
