@<TRIPOS>MOLECULE
4e90_7RG_A_1.pdb
 29 33 0 0 0
SMALL
GASTEIGER

@<TRIPOS>ATOM
      1  N1        77.8500   51.0390   42.1990 N.pl3 903  7RG903     -0.1882
      2  N2        78.4570   50.5020   43.3420 N.2   903  7RG903     -0.1777
      3  C3        77.7490   50.8010   44.3920 C.2   903  7RG903      0.1176
      4  C4        76.6640   51.6000   43.9900 C.3   903  7RG903      0.2301
      5  C5        75.5540   52.2770   44.6750 C.1   903  7RG903      0.2032
      6  O6        75.4030   52.2170   45.8860 O.2   903  7RG903     -0.2126
      7  N7        74.7020   52.9970   43.8970 N.2   903  7RG903     -0.2740
      8  C8        74.8650   53.0910   42.5430 C.1   903  7RG903      0.1270
      9  N9        75.8420   52.4850   41.9220 N.2   903  7RG903     -0.3291
     10  C10       76.7510   51.7340   42.5880 C.2   903  7RG903      0.2132
     11  C11       73.8980   53.9560   41.7640 C.3   903  7RG903      0.1272
     12  C12       73.1960   53.1980   40.6220 C.3   903  7RG903      0.0901
     13  N13       73.5670   53.9320   39.4020 N.3   903  7RG903     -0.2591
     14  C14       73.7970   55.3320   39.7850 C.3   903  7RG903      0.0742
     15  C15       74.6070   55.1690   41.0880 C.3   903  7RG903      0.0333
     16  C16       72.4070   53.9170   38.5100 C.3   903  7RG903      0.1729
     17  C17       72.5040   52.7440   37.5750 C.1   903  7RG903      0.0243
     18  N18       73.6950   52.3270   37.1540 N.2   903  7RG903     -0.1957
     19  C19       73.7930   51.3100   36.2990 C.2   903  7RG903      0.1067
     20  C20       72.6310   50.6640   35.8630 C.2   903  7RG903      0.0222
     21  C21       71.4000   51.1250   36.3420 C.3   903  7RG903      0.1638
     22  N22       71.3780   52.1510   37.1930 N.2   903  7RG903     -0.2176
     23  C23       78.3460   50.9970   40.8290 C.3   903  7RG903      0.1036
     24  C24       77.9510   49.7090   40.0900 C.3   903  7RG903      0.0540
     25  C25       78.5560   49.7750   38.6720 C.3   903  7RG903      0.1439
     26  O26       79.9850   49.9280   38.7610 O.3   903  7RG903     -0.3537
     27  C27       80.3390   51.2120   39.2990 C.3   903  7RG903      0.1439
     28  C28       79.8470   51.3380   40.7490 C.3   903  7RG903      0.0540
     29  C29       74.5240   56.4260   41.9530 C.3   903  7RG903      0.0026
@<TRIPOS>BOND
     1    20    19    2
     2    20    21    1
     3    19    18    1
     4    21    22    1
     5    18    17    2
     6    22    17    2
     7    17    16    1
     8    16    13    1
     9    25    26    1
    10    25    24    1
    11    26    27    1
    12    27    28    1
    13    13    14    1
    14    13    12    1
    15    14    15    1
    16    24    23    1
    17    12    11    1
    18    28    23    1
    19    23     1    1
    20    15    11    1
    21    15    29    1
    22    11     8    1
    23     9     8    2
    24     9    10    2
    25     1    10    1
    26     1     2    1
    27     8     7    2
    28    10     4    1
    29     2     3    2
    30     7     5    2
    31     4     3    1
    32     4     5    1
    33     5     6    2
