@<TRIPOS>MOLECULE
4e91_0OE_A_1.pdb
 38 43 0 0 0
SMALL
GASTEIGER

@<TRIPOS>ATOM
      1  N1       -20.4650   46.7900   38.2670 N.ar  201  0OE201     -0.1478
      2  N2       -19.9960   47.2320   39.4360 N.ar  201  0OE201     -0.1462
      3  C3       -18.7630   46.6870   39.7920 C.ar  201  0OE201      0.1275
      4  C4       -18.4390   45.8410   38.7490 C.ar  201  0OE201      0.0845
      5  C5       -19.5190   45.9090   37.8060 C.ar  201  0OE201      0.1081
      6  C6       -19.6580   45.1730   36.4980 C.ar  201  0OE201      0.0204
      7  C7       -18.7030   45.2840   35.4820 C.ar  201  0OE201      0.0129
      8  C8       -18.8990   44.5920   34.2870 C.ar  201  0OE201      0.0577
      9  C9       -20.0230   43.8110   34.1010 C.ar  201  0OE201      0.0114
     10  C10      -20.9750   43.7010   35.1040 C.ar  201  0OE201      0.0009
     11  C11      -20.7930   44.3850   36.2970 C.ar  201  0OE201      0.0016
     12  C12      -17.1950   44.9910   38.6500 C.2   201  0OE201      0.1897
     13  N13      -17.2100   43.5970   38.7420 N.pl3 201  0OE201     -0.2607
     14  C14      -15.8760   43.1650   38.6140 C.2   201  0OE201      0.0795
     15  C15      -15.1360   44.3520   38.4540 C.2   201  0OE201      0.1285
     16  N16      -15.9570   45.4760   38.4720 N.2   201  0OE201     -0.3893
     17  C17      -15.3020   41.9150   38.6300 C.2   201  0OE201      0.0168
     18  C18      -13.9090   41.8950   38.4640 C.2   201  0OE201     -0.0025
     19  C19      -13.1400   43.0590   38.3190 C.2   201  0OE201     -0.0150
     20  C20      -13.7470   44.3140   38.2920 C.3   201  0OE201      0.0866
     21  C21      -11.6540   42.8840   38.1100 C.ar  201  0OE201     -0.0036
     22  C22      -10.9690   41.8680   38.7540 C.ar  201  0OE201     -0.0001
     23  C23       -9.6100   41.6830   38.5090 C.ar  201  0OE201      0.0066
     24  C24       -8.9380   42.5350   37.6350 C.ar  201  0OE201      0.0798
     25  C25       -9.6360   43.5420   36.9740 C.ar  201  0OE201      0.0066
     26  C26      -10.9960   43.7200   37.2160 C.ar  201  0OE201     -0.0001
     27  C27       -7.4920   42.3360   37.3400 C.2   201  0OE201      0.3878
     28  O28       -6.9220   41.3110   37.7970 O.co2 201  0OE201     -0.2406
     29  O29       -6.8990   43.1470   36.5760 O.co2 201  0OE201     -0.2406
     30 CL        -17.7510   44.6910   32.9960 Cl    201  0OE201     -0.0822
     31  C31      -18.3880   42.7320   38.9550 C.3   201  0OE201      0.1000
     32  C32      -18.4370   42.3650   40.4180 C.3   201  0OE201      0.0464
     33  C33      -19.7920   41.8550   40.8380 C.3   201  0OE201      0.1094
     34  N34      -20.7940   42.8740   40.5900 N.ar  201  0OE201     -0.3078
     35  C35      -21.8790   42.7780   39.7120 C.ar  201  0OE201      0.1786
     36  N36      -22.6140   43.9120   39.6990 N.ar  201  0OE201     -0.2223
     37  C37      -21.9840   44.7590   40.6020 C.ar  201  0OE201      0.1193
     38  C38      -20.8420   44.1450   41.1710 C.ar  201  0OE201      0.0980
@<TRIPOS>BOND
     1    30     8    1
     2     9     8   ar
     3     9    10   ar
     4     8     7   ar
     5    10    11   ar
     6     7     6   ar
     7    11     6   ar
     8     6     5    1
     9    29    27   ar
    10    25    26   ar
    11    25    24   ar
    12    26    21   ar
    13    27    24    1
    14    27    28   ar
    15    24    23   ar
    16     5     1   ar
    17     5     4   ar
    18    21    19    1
    19    21    22   ar
    20     1     2   ar
    21    20    19    1
    22    20    15    1
    23    19    18    2
    24    15    16    2
    25    15    14    1
    26    18    17    1
    27    16    12    2
    28    23    22   ar
    29    14    17    2
    30    14    13    1
    31    12    13    1
    32    12     4    1
    33    13    31    1
    34     4     3   ar
    35    31    32    1
    36     2     3   ar
    37    36    35   ar
    38    36    37   ar
    39    35    34   ar
    40    32    33    1
    41    34    33    1
    42    34    38   ar
    43    37    38   ar
