@<TRIPOS>MOLECULE
4e91_0OF_A_1.pdb
 38 42 0 0 0
SMALL
GASTEIGER

@<TRIPOS>ATOM
      1  C1         7.2400   30.0430   20.0310 C.3   202  0OF202      0.1762
      2  C2         6.2980   29.0120   20.6400 C.2   202  0OF202      0.2419
      3  N3         5.1940   29.5180   21.3210 N.am  202  0OF202     -0.2568
      4  C4         4.9660   30.9030   21.5050 C.ar  202  0OF202      0.0678
      5  C5         6.0120   31.7380   21.9320 C.ar  202  0OF202      0.0717
      6  N6         7.3870   31.3440   22.1080 N.am  202  0OF202     -0.2355
      7  C7         8.0800   30.5500   21.1810 C.2   202  0OF202      0.2456
      8  O8         6.4640   27.7950   20.5280 O.2   202  0OF202     -0.2737
      9  O9         9.2680   30.2610   21.2990 O.2   202  0OF202     -0.2733
     10  C10        5.7510   33.1120   22.1150 C.ar  202  0OF202      0.0203
     11  C11        4.4670   33.6310   21.9490 C.ar  202  0OF202      0.0727
     12  C12        3.4270   32.7950   21.5620 C.ar  202  0OF202      0.0052
     13  C13        3.6610   31.4340   21.3490 C.ar  202  0OF202      0.0161
     14  C14        8.0980   31.8730   23.2430 C.ar  202  0OF202      0.0581
     15  C15        7.7660   31.4370   24.5430 C.ar  202  0OF202      0.0152
     16  C16        8.4380   31.9290   25.6570 C.ar  202  0OF202      0.0013
     17  C17        9.4610   32.8620   25.4870 C.ar  202  0OF202      0.0001
     18  C18        9.8040   33.2920   24.2080 C.ar  202  0OF202      0.0013
     19  C19        9.1260   32.8060   23.0930 C.ar  202  0OF202      0.0152
     20  C20        4.1870   35.0740   22.1630 C.3   202  0OF202      0.4186
     21  F21        5.1920   35.7600   22.7660 F     202  0OF202     -0.1659
     22  F22        3.0710   35.2300   22.9210 F     202  0OF202     -0.1659
     23  F23        3.9270   35.7120   20.9950 F     202  0OF202     -0.1659
     24  C24        4.2420   28.5570   21.9300 C.3   202  0OF202      0.0983
     25  C25        4.1990   28.6740   23.4570 C.3   202  0OF202      0.0237
     26  C26        8.0420   29.4760   18.8700 C.ar  202  0OF202     -0.0020
     27  C27        7.8250   29.9550   17.5670 C.ar  202  0OF202      0.0387
     28  C28        8.5640   29.4190   16.5150 C.ar  202  0OF202      0.1955
     29  C29        9.5020   28.4290   16.7340 C.ar  202  0OF202      0.0421
     30  C30        9.7460   27.9290   18.0160 C.ar  202  0OF202      0.0044
     31  C31        9.0030   28.4720   19.0830 C.ar  202  0OF202     -0.0031
     32  O32        8.3470   29.8900   15.2500 O.3   202  0OF202     -0.2866
     33  C33       10.7640   26.8830   18.1850 C.ar  202  0OF202      0.0193
     34  C34       11.2660   26.1910   17.0740 C.ar  202  0OF202      0.0988
     35  N35       12.2120   25.2150   17.1290 N.ar  202  0OF202     -0.2423
     36  C36       12.6870   24.9120   18.3510 C.ar  202  0OF202      0.0989
     37  C37       12.2670   25.5240   19.5170 C.ar  202  0OF202      0.0207
     38  C38       11.2920   26.5190   19.4290 C.ar  202  0OF202      0.0031
@<TRIPOS>BOND
     1    32    28    1
     2    28    29   ar
     3    28    27   ar
     4    29    30   ar
     5    34    35   ar
     6    34    33   ar
     7    35    36   ar
     8    27    26   ar
     9    30    33    1
    10    30    31   ar
    11    33    38   ar
    12    36    37   ar
    13    26    31   ar
    14    26     1    1
    15    38    37   ar
    16     1     2    1
    17     1     7    1
    18     8     2    2
    19     2     3   am
    20    23    20    1
    21     7     9    2
    22     7     6   am
    23     3     4    1
    24     3    24    1
    25    13     4   ar
    26    13    12   ar
    27     4     5   ar
    28    12    11   ar
    29    24    25    1
    30     5     6    1
    31     5    10   ar
    32    11    10   ar
    33    11    20    1
    34     6    14    1
    35    20    21    1
    36    20    22    1
    37    19    14   ar
    38    19    18   ar
    39    14    15   ar
    40    18    17   ar
    41    15    16   ar
    42    17    16   ar
