@<TRIPOS>MOLECULE
4e92_0OG_A_1.pdb
 40 45 0 0 0
SMALL
GASTEIGER

@<TRIPOS>ATOM
      1  C01       39.3460   30.4480   17.4650 C.ar  202  0OG202      0.0805
      2  C02       38.2740   31.3530   17.5590 C.ar  202  0OG202      0.0387
      3  C03       38.8450   32.6110   17.5140 C.ar  202  0OG202      0.1180
      4  N04       40.2060   32.4150   17.4010 N.ar  202  0OG202     -0.2306
      5  N05       40.5140   31.0850   17.3720 N.ar  202  0OG202     -0.1697
      6  C06       41.2640   33.3590   17.3190 C.2   202  0OG202      0.0677
      7  C07       42.0400   33.6090   18.4650 C.2   202  0OG202      0.0165
      8  C08       43.0970   34.5290   18.4390 C.2   202  0OG202      0.0184
      9  C09       43.3420   35.1860   17.2280 C.2   202  0OG202      0.0798
     10  C10       42.5850   34.9550   16.0880 C.2   202  0OG202      0.1301
     11  C11       41.5270   34.0360   16.1230 C.3   202  0OG202      0.1060
     12  N12       44.2680   36.1300   16.8310 N.pl3 202  0OG202     -0.2563
     13  C13       44.0380   36.4280   15.5060 C.2   202  0OG202      0.1900
     14  N14       43.0230   35.7130   15.0370 N.2   202  0OG202     -0.3892
     15  C15       44.8130   37.3470   14.6720 C.ar  202  0OG202      0.0833
     16  C16       45.6750   36.8390   13.6930 C.ar  202  0OG202      0.0137
     17  C17       46.4520   37.6830   12.8850 C.ar  202  0OG202      0.0801
     18  C18       46.3660   39.0700   13.0940 C.ar  202  0OG202      0.0099
     19  C19       45.5290   39.6000   14.0800 C.ar  202  0OG202      0.0424
     20  C20       44.7640   38.7400   14.8660 C.ar  202  0OG202      0.1994
     21  C21       38.1590   33.8560   17.5700 C.ar  202  0OG202      0.1624
     22  C22       38.5980   35.1660   17.6530 C.ar  202  0OG202      0.0418
     23  C23       37.4360   35.9790   17.6680 C.ar  202  0OG202      0.0361
     24  C24       36.3640   35.1150   17.5860 C.ar  202  0OG202      0.1234
     25  O25       36.8020   33.8320   17.5240 O.2   202  0OG202     -0.4562
     26  C26       34.8990   35.2700   17.5550 C.3   202  0OG202      0.0725
     27  C27       39.2830   28.9600   17.4620 C.3   202  0OG202      0.0477
     28  C28       37.8610   28.4540   17.2590 C.3   202  0OG202      0.0068
     29  C29       45.2940   36.6820   17.7080 C.3   202  0OG202      0.1261
     30  C30       46.4930   35.7720   17.7580 C.2   202  0OG202      0.0187
     31  C31       46.6710   34.8970   18.7630 C.2   202  0OG202      0.1085
     32  N32       47.7630   34.0680   18.7810 N.2   202  0OG202     -0.1749
     33  C33       48.7330   34.0620   17.8030 C.1   202  0OG202      0.1551
     34  C34       48.5460   35.0220   16.6870 C.2   202  0OG202      0.0938
     35  C35       47.4750   35.8240   16.6870 C.2   202  0OG202      0.0113
     36  O36       49.7030   33.3170   17.8340 O.2   202  0OG202     -0.2219
     37  O37       43.9500   39.3110   15.8190 O.3   202  0OG202     -0.2864
     38  C38       47.3520   37.0770   11.8280 C.2   202  0OG202      0.3878
     39  O39       47.6550   35.8500   11.9660 O.co2 202  0OG202     -0.2406
     40  O40       47.7310   37.8350   10.8840 O.co2 202  0OG202     -0.2406
@<TRIPOS>BOND
     1    40    38   ar
     2    38    39   ar
     3    38    17    1
     4    17    18   ar
     5    17    16   ar
     6    18    19   ar
     7    16    15   ar
     8    19    20   ar
     9    15    20   ar
    10    15    13    1
    11    20    37    1
    12    14    13    2
    13    14    10    2
    14    13    12    1
    15    10    11    1
    16    10     9    1
    17    11     6    1
    18    35    34    2
    19    35    30    1
    20    34    33    1
    21    12     9    1
    22    12    29    1
    23     9     8    2
    24    28    27    1
    25     6     4    1
    26     6     7    2
    27     5     4   ar
    28     5     1   ar
    29     4     3   ar
    30    27     1    1
    31     1     2   ar
    32     3     2   ar
    33     3    21    1
    34    25    21   ar
    35    25    24   ar
    36    26    24    1
    37    21    22   ar
    38    24    23   ar
    39    22    23   ar
    40    29    30    1
    41    30    31    2
    42    33    36    2
    43    33    32    2
    44     8     7    1
    45    31    32    1
