@<TRIPOS>MOLECULE
4e92_0OE_A_1.pdb
 38 43 0 0 0
SMALL
GASTEIGER

@<TRIPOS>ATOM
      1  N1         2.8530   28.8080   17.7930 N.ar  201  0OE201     -0.1478
      2  N2         2.6670   27.5730   17.3190 N.ar  201  0OE201     -0.1462
      3  C3         3.7960   27.0240   16.7250 C.ar  201  0OE201      0.1275
      4  C4         4.7680   27.9950   16.8400 C.ar  201  0OE201      0.0845
      5  C5         4.1610   29.1150   17.5150 C.ar  201  0OE201      0.1081
      6  C6         4.7970   30.4360   17.8770 C.ar  201  0OE201      0.0204
      7  C7         5.9790   30.5090   18.6220 C.ar  201  0OE201      0.0129
      8  C8         6.5190   31.7560   18.9370 C.ar  201  0OE201      0.0577
      9  C9         5.9050   32.9270   18.5250 C.ar  201  0OE201      0.0114
     10  C10        4.7280   32.8610   17.7920 C.ar  201  0OE201      0.0009
     11  C11        4.1810   31.6230   17.4740 C.ar  201  0OE201      0.0016
     12  C12        6.1890   27.8560   16.3330 C.2   201  0OE201      0.1901
     13  N13        6.7100   28.5730   15.2570 N.pl3 201  0OE201     -0.2606
     14  C14        8.0490   28.1580   15.0840 C.2   201  0OE201      0.0794
     15  C15        8.2540   27.1970   16.0840 C.2   201  0OE201      0.1460
     16  N16        7.0950   27.0130   16.8500 N.2   201  0OE201     -0.3853
     17  C17        9.0240   28.5300   14.1840 C.2   201  0OE201     -0.0039
     18  C18       10.2650   27.8970   14.3150 C.3   201  0OE201      0.0538
     19  C19       10.5090   26.9230   15.2890 C.2   201  0OE201     -0.0152
     20  C20        9.5020   26.5720   16.2010 C.2   201  0OE201      0.0294
     21  C21       11.9080   26.3460   15.3330 C.ar  201  0OE201     -0.0036
     22  C22       12.6610   26.2240   14.1690 C.ar  201  0OE201     -0.0001
     23  C23       13.9630   25.7290   14.2270 C.ar  201  0OE201      0.0066
     24  C24       14.5270   25.3570   15.4490 C.ar  201  0OE201      0.0798
     25  C25       13.7750   25.4990   16.6070 C.ar  201  0OE201      0.0066
     26  C26       12.4770   25.9970   16.5520 C.ar  201  0OE201     -0.0001
     27  C27       15.9230   24.8420   15.5150 C.2   201  0OE201      0.3878
     28  O28       16.6060   24.7840   14.4610 O.co2 201  0OE201     -0.2406
     29  O29       16.4270   24.5120   16.6260 O.co2 201  0OE201     -0.2406
     30 CL          7.9920   31.8540   19.8460 Cl    201  0OE201     -0.0822
     31  C31        6.0080   29.5650   14.4310 C.3   201  0OE201      0.1000
     32  C32        5.4510   28.8320   13.2400 C.3   201  0OE201      0.0464
     33  C33        4.4130   29.6570   12.5450 C.3   201  0OE201      0.1094
     34  N34        3.2830   29.9020   13.4190 N.ar  201  0OE201     -0.3078
     35  C35        2.4930   28.9320   14.0440 C.ar  201  0OE201      0.1786
     36  N36        1.5120   29.4940   14.7910 N.ar  201  0OE201     -0.2223
     37  C37        1.6790   30.8670   14.6330 C.ar  201  0OE201      0.1193
     38  C38        2.7750   31.1550   13.7830 C.ar  201  0OE201      0.0980
@<TRIPOS>BOND
     1    33    32    1
     2    33    34    1
     3    32    31    1
     4    34    38   ar
     5    34    35   ar
     6    38    37   ar
     7    35    36   ar
     8    22    23   ar
     9    22    21   ar
    10    17    18    1
    11    17    14    2
    12    23    24   ar
    13    18    19    1
    14    31    13    1
    15    28    27   ar
    16    37    36   ar
    17    14    13    1
    18    14    15    1
    19    13    12    1
    20    19    21    1
    21    19    20    2
    22    21    26   ar
    23    24    27    1
    24    24    25   ar
    25    27    29   ar
    26    15    20    1
    27    15    16    2
    28    12     4    1
    29    12    16    2
    30    26    25   ar
    31     3     4   ar
    32     3     2   ar
    33     4     5   ar
    34     2     1   ar
    35    11    10   ar
    36    11     6   ar
    37     5     1   ar
    38     5     6    1
    39    10     9   ar
    40     6     7   ar
    41     9     8   ar
    42     7     8   ar
    43     8    30    1
