@<TRIPOS>MOLECULE
4e93_GUI_A_1.pdb
 42 46 0 0 0
SMALL
GASTEIGER

@<TRIPOS>ATOM
      1  C1         2.0770   14.3910   23.7010 C.2   901  GUI901      0.1241
      2  C2         2.4490   15.5000   24.4940 C.2   901  GUI901      0.2283
      3  N3         1.4880   16.1830   25.1490 N.2   901  GUI901     -0.3180
      4  C4         0.2280   15.7720   25.1410 C.1   901  GUI901      0.1711
      5  N5        -0.1570   14.6940   24.3790 N.2   901  GUI901     -0.1674
      6  C6         0.7450   13.9990   23.7120 C.2   901  GUI901      0.1271
      7  N7        -0.7070   16.4230   25.7820 N.pl3 901  GUI901     -0.1326
      8  C8        -0.5960   17.4730   26.6370 C.ar  901  GUI901      0.1165
      9  C9         0.5700   17.7530   27.3490 C.ar  901  GUI901      0.0217
     10  C10        0.6150   18.8670   28.1920 C.ar  901  GUI901      0.0161
     11  C11       -0.4880   19.7080   28.3160 C.ar  901  GUI901      0.0510
     12  C12       -1.6480   19.4670   27.5600 C.ar  901  GUI901      0.0528
     13  C13       -1.6740   18.3280   26.7390 C.ar  901  GUI901      0.1559
     14  O14       -2.7730   18.0310   26.0150 O.3   901  GUI901     -0.4700
     15  C15       -3.8470   18.9800   26.1190 C.3   901  GUI901      0.2525
     16  N16       -0.3650   20.8640   29.1480 N.pl3 901  GUI901     -0.3073
     17  C17        0.6370   20.8540   30.2660 C.3   901  GUI901      0.0922
     18  C18        0.5260   22.0410   31.2410 C.3   901  GUI901      0.0374
     19  C19        0.2780   23.4090   30.5840 C.3   901  GUI901      0.0610
     20  C20       -0.9500   23.3420   29.6250 C.3   901  GUI901      0.0374
     21  C21       -0.9390   22.1430   28.6030 C.3   901  GUI901      0.0922
     22  N22       -0.0180   24.5080   31.6190 N.3   901  GUI901     -0.2715
     23  C23        1.1370   24.8190   32.4080 C.3   901  GUI901      0.0896
     24  C24        0.7630   26.0320   33.3340 C.3   901  GUI901      0.0897
     25  N25       -0.2830   26.9140   32.7550 N.3   901  GUI901     -0.2691
     26  C26       -0.4620   26.9390   31.3120 C.3   901  GUI901      0.0897
     27  C27       -0.5180   25.5350   30.7440 C.3   901  GUI901      0.0896
     28  C28       -0.0670   28.3130   33.1810 C.3   901  GUI901      0.0897
     29  N29        3.7340   15.8670   24.5110 N.pl3 901  GUI901     -0.1807
     30  C30        4.2700   16.9410   25.1510 C.ar  901  GUI901      0.0902
     31  C31        5.6360   16.9570   25.4930 C.ar  901  GUI901      0.1208
     32  C32        6.1360   18.1020   26.1670 C.ar  901  GUI901      0.0197
     33  C33        5.3470   19.2160   26.4420 C.ar  901  GUI901      0.0014
     34  C34        3.9940   19.2060   26.1160 C.ar  901  GUI901      0.0014
     35  C35        3.5020   18.0460   25.4850 C.ar  901  GUI901      0.0179
     36  S36        6.7120   15.6950   25.2160 S.O2  901  GUI901      0.0082
     37  C37        6.7930   14.6930   26.7270 C.3   901  GUI901      0.1340
     38  C38        5.4070   14.0960   26.9570 C.3   901  GUI901      0.0257
     39  C39        7.2060   15.5250   27.9370 C.3   901  GUI901      0.0257
     40  O40        8.1260   16.1550   24.9640 O.2   901  GUI901     -0.1686
     41  O41        6.2780   14.8260   24.0870 O.2   901  GUI901     -0.1686
     42 CL          3.2470   13.4590   22.8500 Cl    901  GUI901     -0.0764
@<TRIPOS>BOND
     1    42     1    1
     2     1     6    2
     3     1     2    1
     4     6     5    1
     5    41    36    2
     6     5     4    2
     7     2    29    1
     8     2     3    2
     9    29    30    1
    10    40    36    2
    11     4     3    2
    12     4     7    1
    13    30    35   ar
    14    30    31   ar
    15    36    31    1
    16    36    37    1
    17    35    34   ar
    18    31    32   ar
    19     7     8    1
    20    14    15    1
    21    14    13    1
    22    34    33   ar
    23    32    33   ar
    24     8    13   ar
    25     8     9   ar
    26    37    38    1
    27    37    39    1
    28    13    12   ar
    29     9    10   ar
    30    12    11   ar
    31    10    11   ar
    32    11    16    1
    33    21    16    1
    34    21    20    1
    35    16    17    1
    36    20    19    1
    37    17    18    1
    38    19    18    1
    39    19    22    1
    40    27    26    1
    41    27    22    1
    42    26    25    1
    43    22    23    1
    44    23    24    1
    45    25    28    1
    46    25    24    1
