@<TRIPOS>MOLECULE
4e96_0NS_A_1.pdb
 24 26 0 0 0
SMALL
GASTEIGER

@<TRIPOS>ATOM
      1  CAX       27.3250   13.8220   -6.1070 C.3   201  0NS201      0.2525
      2  OAW       26.5780   14.0800   -4.8550 O.3   201  0NS201     -0.4701
      3  CAE       26.2290   15.3730   -4.5680 C.ar  201  0NS201      0.1575
      4  CAF       26.5080   16.3920   -5.4780 C.ar  201  0NS201      0.0383
      5  CAA       26.1180   17.7040   -5.1820 C.ar  201  0NS201      0.0032
      6  CAB       25.4880   18.0280   -4.0040 C.ar  201  0NS201      0.0016
      7  CAC       25.2320   17.0330   -3.0790 C.ar  201  0NS201      0.0234
      8  CAD       25.5520   15.7140   -3.3800 C.ar  201  0NS201      0.1607
      9  SAT       25.2120   14.4980   -2.1690 S.O2  201  0NS201      0.0957
     10  OAU       24.4250   13.3740   -2.7560 O.2   201  0NS201     -0.1482
     11  OAV       24.5590   15.1630   -1.0130 O.2   201  0NS201     -0.1482
     12  NAG       26.7170   13.9770   -1.7620 N.pl3 201  0NS201     -0.0965
     13  CAH       27.7490   14.8060   -1.4870 C.ar  201  0NS201      0.0912
     14  CAM       27.6820   15.7430   -0.4450 C.ar  201  0NS201      0.0219
     15  CAL       28.7760   16.5630   -0.1280 C.ar  201  0NS201      0.0475
     16  CAQ       28.5820   17.5480    1.0110 C.2   201  0NS201      0.0796
     17  NAP       29.7430   18.4570    1.1770 N.am  201  0NS201     -0.2029
     18  CAS       29.6700   19.5550    2.1940 C.3   201  0NS201      0.1317
     19  CAO       30.9100   18.3040    0.4400 C.1   201  0NS201      0.2724
     20  OAR       31.7930   19.1210    0.6420 O.2   201  0NS201     -0.1926
     21  NAN       31.0500   17.2970   -0.5700 N.2   201  0NS201     -0.3209
     22  CAK       29.9530   16.4520   -0.8690 C.ar  201  0NS201      0.1469
     23  CAJ       30.0230   15.5360   -1.9290 C.ar  201  0NS201      0.0345
     24  CAI       28.9400   14.7020   -2.2170 C.ar  201  0NS201      0.0207
@<TRIPOS>BOND
     1     1     2    1
     2     4     5   ar
     3     4     3   ar
     4     5     6   ar
     5     2     3    1
     6     3     8   ar
     7     6     7   ar
     8     8     7   ar
     9     8     9    1
    10    10     9    2
    11    24    23   ar
    12    24    13   ar
    13     9    12    1
    14     9    11    2
    15    23    22   ar
    16    12    13    1
    17    13    14   ar
    18    22    21    2
    19    22    15   ar
    20    21    19    2
    21    14    15   ar
    22    15    16    2
    23    19    20    2
    24    19    17   am
    25    16    17    1
    26    17    18    1
