@<TRIPOS>MOLECULE
4e99_P8S_A_1.pdb
 29 28 0 0 0
SMALL
GASTEIGER

@<TRIPOS>ATOM
      1  F8C       -2.2500   10.4500   29.3390 F     601  P8S601     -0.1648
      2  C8        -2.5440    9.7150   30.4140 C.3   601  P8S601      0.4603
      3  F8A       -3.4010    8.7330   30.1380 F     601  P8S601     -0.1648
      4  F8B       -3.1210   10.4300   31.3420 F     601  P8S601     -0.1648
      5  C7        -1.3070    9.1070   31.0430 C.3   601  P8S601      0.4087
      6  F7A       -0.2130    9.3460   30.3450 F     601  P8S601     -0.1889
      7  F7B       -1.2090    9.5740   32.2710 F     601  P8S601     -0.1889
      8  C6        -1.5360    7.6220   31.1270 C.3   601  P8S601      0.3868
      9  F6A       -2.3530    7.3720   32.1410 F     601  P8S601     -0.1919
     10  F6B       -2.0820    7.1790   30.0050 F     601  P8S601     -0.1919
     11  C5        -0.2030    6.9470   31.3390 C.3   601  P8S601      0.3841
     12  F5B       -0.1300    5.7850   30.7240 F     601  P8S601     -0.1920
     13  F5A        0.8270    7.6330   30.8860 F     601  P8S601     -0.1920
     14  C4        -0.1060    6.7780   32.8300 C.3   601  P8S601      0.3841
     15  F4A        0.4170    7.8540   33.3730 F     601  P8S601     -0.1920
     16  F4B       -1.2740    6.5070   33.3540 F     601  P8S601     -0.1920
     17  C3         0.7490    5.6010   33.0740 C.3   601  P8S601      0.3857
     18  F3B        1.4330    5.4600   31.9390 F     601  P8S601     -0.1919
     19  F3A        1.4820    5.7760   34.1720 F     601  P8S601     -0.1919
     20  C2        -0.1400    4.4270   33.3620 C.3   601  P8S601      0.3989
     21  F2A       -0.6510    4.6190   34.5590 F     601  P8S601     -0.1902
     22  F2B       -1.0720    4.3220   32.4340 F     601  P8S601     -0.1902
     23  C1         0.7610    3.2430   33.3930 C.3   601  P8S601      0.4355
     24  F1B        1.8630    3.5480   32.7310 F     601  P8S601     -0.1733
     25  F1A        0.2120    2.2070   32.7970 F     601  P8S601     -0.1733
     26  S1         1.0850    2.9740   34.9970 S.3   601  P8S601      0.0831
     27  O3         1.7290    1.6320   35.0660 O.3   601  P8S601     -0.0642
     28  O1        -0.1860    3.0100   35.7710 O.3   601  P8S601     -0.0642
     29  O2         1.9990    3.9790   35.5430 O.3   601  P8S601     -0.0642
@<TRIPOS>BOND
     1     1     2    1
     2    10     8    1
     3     3     2    1
     4     6     5    1
     5     2     5    1
     6     2     4    1
     7    12    11    1
     8    13    11    1
     9     5     8    1
    10     5     7    1
    11     8    11    1
    12     8     9    1
    13    11    14    1
    14    18    17    1
    15    22    20    1
    16    24    23    1
    17    25    23    1
    18    14    17    1
    19    14    16    1
    20    14    15    1
    21    17    20    1
    22    17    19    1
    23    20    23    1
    24    20    21    1
    25    23    26    1
    26    26    27    1
    27    26    29    1
    28    26    28    1
