@<TRIPOS>MOLECULE
4e9u_RWY_A_1.pdb
 19 20 0 0 0
SMALL
GASTEIGER

@<TRIPOS>ATOM
      1  NAA       22.4090  -10.1520    8.8920 N.1   301  RWY301     -0.1837
      2  CAB       22.6250  -10.6120    7.8740 C.1   301  RWY301      0.1337
      3  CAC       23.7840  -21.6090    6.7750 C.ar  301  RWY301      0.0002
      4  CAD       23.2190  -21.6030    8.0440 C.ar  301  RWY301      0.0031
      5  CAE       23.9840  -20.4130    6.0960 C.ar  301  RWY301      0.0031
      6  CAF       22.8570  -20.3990    8.6320 C.ar  301  RWY301      0.0375
      7  CAG       23.6230  -19.2080    6.6850 C.ar  301  RWY301      0.0375
      8  CAH       24.7960  -15.0510    8.6080 C.ar  301  RWY301      0.0400
      9  CAI       24.6860  -15.8860    6.3550 C.ar  301  RWY301      0.0400
     10  CAJ       23.9730  -16.0870    9.0310 C.ar  301  RWY301      0.0406
     11  CAK       23.8640  -16.9220    6.7780 C.ar  301  RWY301      0.0406
     12  CAL       25.1560  -12.9670    6.1710 C.3   301  RWY301      0.2181
     13  CAM       23.8310  -12.7860    6.9120 C.3   301  RWY301      0.1199
     14  OAN       25.9550  -13.9380    6.8580 O.3   301  RWY301     -0.4745
     15  OAO       22.7010  -18.0310    8.5350 O.3   301  RWY301     -0.4535
     16  SAP       22.9350  -11.2730    6.4070 S.3   301  RWY301     -0.0323
     17  CAQ       25.1520  -14.9520    7.2700 C.ar  301  RWY301      0.1388
     18  CAR       23.0590  -19.2030    7.9530 C.ar  301  RWY301      0.1453
     19  CAS       23.5080  -17.0220    8.1160 C.ar  301  RWY301      0.1455
@<TRIPOS>BOND
     1     5     7   ar
     2     5     3   ar
     3    12    14    1
     4    12    13    1
     5     9    11   ar
     6     9    17   ar
     7    16    13    1
     8    16     2    1
     9     7    18   ar
    10     3     4   ar
    11    11    19   ar
    12    14    17    1
    13    17     8   ar
    14     2     1    3
    15    18    15    1
    16    18     6   ar
    17     4     6   ar
    18    19    15    1
    19    19    10   ar
    20     8    10   ar
