@<TRIPOS>MOLECULE
4e9z_651_A_1.pdb
 21 24 0 0 0
SMALL
GASTEIGER

@<TRIPOS>ATOM
      1  OAA      -25.5140   10.3400    8.6270 O.3   301  651301     -0.2197
      2  CAB      -23.5350   18.8420    7.6990 C.ar  301  651301      0.0000
      3  CAC      -23.3100   17.9600    8.7030 C.ar  301  651301      0.0000
      4  CAD      -24.2070   18.3710    6.6170 C.ar  301  651301      0.0000
      5  CAE      -23.7370   16.6580    8.6150 C.ar  301  651301     -0.0000
      6  CAF      -24.6370   17.0610    6.5490 C.ar  301  651301     -0.0000
      7  CAG      -25.5180   14.3110    8.5430 C.ar  301  651301     -0.0002
      8  CAH      -24.6420   14.0010    6.4160 C.ar  301  651301     -0.0002
      9  CAI      -25.9750   12.9990    8.5630 C.ar  301  651301     -0.0019
     10  CAJ      -25.0830   12.6900    6.4150 C.ar  301  651301     -0.0019
     11  CAK      -27.0930    9.8900    5.3410 C.3   301  651301      0.0202
     12  CAL      -26.1930    8.3170    6.8730 C.3   301  651301      0.0202
     13  CAM      -28.4240    9.5190    5.9020 C.3   301  651301      0.0723
     14  CAN      -27.5430    8.1330    7.5370 C.3   301  651301      0.0723
     15  CAO      -27.7560   10.5680    8.0380 C.3   301  651301      0.1071
     16  CAP      -24.4020   16.1750    7.5370 C.ar  301  651301     -0.0000
     17  CAQ      -24.8380   14.8480    7.4770 C.ar  301  651301     -0.0000
     18  CAR      -25.7840   12.1710    7.4910 C.ar  301  651301      0.0064
     19  CAS      -26.0590    9.7640    6.4160 C.3   301  651301      0.0361
     20  NAT      -28.3020    9.3620    7.3570 N.3   301  651301     -0.2704
     21  CAU      -26.3120   10.7260    7.5920 C.3   301  651301      0.1599
@<TRIPOS>BOND
     1    11    13    1
     2    11    19    1
     3    13    20    1
     4    10     8   ar
     5    10    18   ar
     6    19    12    1
     7    19    21    1
     8     8    17   ar
     9     6     4   ar
    10     6    16   ar
    11     4     2   ar
    12    12    14    1
    13    20    14    1
    14    20    15    1
    15    17    16    1
    16    17     7   ar
    17    18    21    1
    18    18     9   ar
    19    16     5   ar
    20    21    15    1
    21    21     1    1
    22     2     3   ar
    23     7     9   ar
    24     5     3   ar
