@<TRIPOS>MOLECULE
4ea0_651_A_1.pdb
 21 24 0 0 0
SMALL
GASTEIGER

@<TRIPOS>ATOM
      1  OAA       28.7830  -12.6440    7.5760 O.3   306  651306     -0.2197
      2  CAB       23.7350  -19.8670    8.5550 C.ar  306  651306      0.0000
      3  CAC       23.3940  -18.9810    9.5310 C.ar  306  651306      0.0000
      4  CAD       24.5890  -19.4950    7.5630 C.ar  306  651306      0.0000
      5  CAE       23.8920  -17.7100    9.5050 C.ar  306  651306     -0.0000
      6  CAF       25.0960  -18.2260    7.5460 C.ar  306  651306     -0.0000
      7  CAG       25.7270  -15.3410    9.5030 C.ar  306  651306     -0.0002
      8  CAH       25.6500  -15.5930    7.1700 C.ar  306  651306     -0.0002
      9  CAI       26.3750  -14.1330    9.3780 C.ar  306  651306     -0.0019
     10  CAJ       26.2970  -14.4000    7.0410 C.ar  306  651306     -0.0019
     11  CAK       26.2620  -10.8360    8.9120 C.3   306  651306      0.0202
     12  CAL       28.6800  -10.6840    8.7740 C.3   306  651306      0.0202
     13  CAM       26.5560   -9.8120    7.7890 C.3   306  651306      0.0723
     14  CAN       28.7500  -10.3640    7.2850 C.3   306  651306      0.0723
     15  CAO       26.9080  -11.6770    6.6940 C.3   306  651306      0.1071
     16  CAP       24.7320  -17.3110    8.4980 C.ar  306  651306     -0.0000
     17  CAQ       25.3350  -16.0750    8.4050 C.ar  306  651306     -0.0000
     18  CAR       26.6620  -13.6670    8.1220 C.ar  306  651306      0.0064
     19  CAS       27.4840  -11.5920    9.0590 C.3   306  651306      0.0361
     20  NAT       27.4090  -10.3610    6.7630 N.3   306  651306     -0.2704
     21  CAU       27.4230  -12.4120    7.8860 C.3   306  651306      0.1599
@<TRIPOS>BOND
     1    15    20    1
     2    15    21    1
     3    20    14    1
     4    20    13    1
     5    10     8   ar
     6    10    18   ar
     7     8    17   ar
     8    14    12    1
     9     6     4   ar
    10     6    16   ar
    11     4     2   ar
    12     1    21    1
    13    13    11    1
    14    21    18    1
    15    21    19    1
    16    18     9   ar
    17    17    16    1
    18    17     7   ar
    19    16     5   ar
    20     2     3   ar
    21    12    19    1
    22    11    19    1
    23     9     7   ar
    24     5     3   ar
