@<TRIPOS>MOLECULE
4ea1_3RX_A_1.pdb
 24 26 0 0 0
SMALL
GASTEIGER

@<TRIPOS>ATOM
      1  CAA        4.0360  -29.9110    8.4190 C.3   301  3RX301      0.0260
      2  CAB        2.5800  -28.7810    6.5860 C.3   301  3RX301      0.0260
      3  CAC       -1.1940  -25.9420    9.2920 C.3   301  3RX301      0.0261
      4  CAD        1.6670  -29.1260    8.7490 C.2   301  3RX301     -0.0342
      5  CAE       -2.8760  -27.8610    9.1930 C.2   301  3RX301     -0.0159
      6  CAF        0.5480  -28.5050    8.2640 C.3   301  3RX301      0.0297
      7  CAG       -4.0920  -27.2090    9.2230 C.3   301  3RX301      0.1141
      8  CAH       -6.3290  -27.8830    9.8950 C.3   301  3RX301      0.1078
      9  CAI       -6.9720  -29.2410   10.1490 C.3   301  3RX301      0.1074
     10  CAJ       -0.5350  -28.5400    9.2800 C.3   301  3RX301      0.0264
     11  CAK      -12.5360  -28.1060   11.8350 C.3   301  3RX301      0.0000
     12  CAL      -10.7700  -29.2180   13.1560 C.3   301  3RX301      0.0014
     13  CAM      -11.2340  -29.9570   10.8890 C.3   301  3RX301      0.0014
     14  CAN      -10.4520  -26.9110   12.3410 C.3   301  3RX301      0.0014
     15  CAO      -10.8370  -27.7290   10.0390 C.3   301  3RX301      0.0014
     16  NAP       -4.9000  -27.9690   10.1810 N.3   301  3RX301     -0.2118
     17  NAQ       -8.4470  -29.1330   10.1390 N.3   301  3RX301     -0.2179
     18  CAR        2.7440  -29.3020    7.9580 C.2   301  3RX301     -0.0478
     19  CAS       -1.5590  -27.4170    9.2250 C.2   301  3RX301     -0.0464
     20  CAT      -11.4560  -27.9050   12.8680 C.3   301  3RX301      0.0001
     21  CAU      -11.8970  -28.6600   10.5770 C.3   301  3RX301      0.0001
     22  CAV      -10.1110  -29.6920   11.8840 C.3   301  3RX301      0.0160
     23  CAW       -9.7970  -27.4450   11.0910 C.3   301  3RX301      0.0160
     24  CAX       -9.0790  -28.7010   11.3870 C.3   301  3RX301      0.0727
@<TRIPOS>BOND
     1     2    18    1
     2    18     1    1
     3    18     4    2
     4     6     4    1
     5     6    10    1
     6     5     7    1
     7     5    19    2
     8     7    16    1
     9    19    10    1
    10    19     3    1
    11     8     9    1
    12     8    16    1
    13    15    21    1
    14    15    23    1
    15    17     9    1
    16    17    24    1
    17    21    13    1
    18    21    11    1
    19    13    22    1
    20    23    24    1
    21    23    14    1
    22    24    22    1
    23    11    20    1
    24    22    12    1
    25    14    20    1
    26    20    12    1
