@<TRIPOS>MOLECULE
4ea2_RWZ_A_1.pdb
 24 26 0 0 0
SMALL
GASTEIGER

@<TRIPOS>ATOM
      1  CAA      -28.1770  -10.5540   -7.8900 C.3   301  RWZ301      0.0260
      2  CAB      -26.1730  -11.0390   -6.2920 C.3   301  RWZ301      0.0260
      3  CAC      -24.6530  -15.7330   -8.8150 C.3   301  RWZ301      0.0261
      4  CAD      -26.7430  -12.6270   -8.0540 C.2   301  RWZ301     -0.0342
      5  CAE      -22.4240  -14.6930   -8.8840 C.2   301  RWZ301     -0.0159
      6  CAF      -25.7230  -13.4570   -7.6630 C.3   301  RWZ301      0.0297
      7  CAG      -21.4680  -13.7220   -8.8200 C.3   301  RWZ301      0.1141
      8  CAH      -20.1210  -15.6310   -8.2750 C.3   301  RWZ301      0.1078
      9  CAI      -21.3150  -16.3980   -7.8140 C.3   301  RWZ301      0.1074
     10  CAJ      -24.4350  -13.2160   -8.4240 C.3   301  RWZ301      0.0264
     11  CAK      -23.1400  -20.2180   -5.9240 C.3   301  RWZ301      0.0000
     12  CAL      -21.7110  -19.9430   -7.9030 C.3   301  RWZ301      0.0014
     13  CAM      -24.1020  -20.0310   -8.1940 C.3   301  RWZ301      0.0014
     14  CAN      -21.9710  -18.0740   -6.2480 C.3   301  RWZ301      0.0014
     15  CAO      -24.3890  -18.2130   -6.4920 C.3   301  RWZ301      0.0014
     16  NAP      -20.3520  -14.2200   -8.0310 N.3   301  RWZ301     -0.2118
     17  NAQ      -21.6980  -17.2760   -8.8970 N.3   301  RWZ301     -0.2179
     18  CAR      -27.0420  -11.4490   -7.4370 C.2   301  RWZ301     -0.0478
     19  CAS      -23.7750  -14.5320   -8.7170 C.2   301  RWZ301     -0.0464
     20  CAT      -21.8840  -19.5830   -6.4350 C.3   301  RWZ301      0.0001
     21  CAU      -24.2990  -19.6980   -6.7290 C.3   301  RWZ301      0.0001
     22  CAV      -22.8530  -19.3720   -8.7100 C.3   301  RWZ301      0.0160
     23  CAW      -23.1450  -17.5450   -7.0310 C.3   301  RWZ301      0.0160
     24  CAX      -22.9470  -17.8780   -8.4970 C.3   301  RWZ301      0.0727
@<TRIPOS>BOND
     1    17    24    1
     2    17     9    1
     3     5     7    1
     4     5    19    2
     5     7    16    1
     6     3    19    1
     7    19    10    1
     8    22    24    1
     9    22    13    1
    10    22    12    1
    11    24    23    1
    12    10     6    1
    13     8    16    1
    14     8     9    1
    15    13    21    1
    16     4     6    1
    17     4    18    2
    18    12    20    1
    19     1    18    1
    20    18     2    1
    21    23    15    1
    22    23    14    1
    23    21    15    1
    24    21    11    1
    25    20    14    1
    26    20    11    1
