@<TRIPOS>MOLECULE
4ea3_0NN_A_1.pdb
 32 36 0 0 0
SMALL
GASTEIGER

@<TRIPOS>ATOM
      1  C4         7.9640  -52.2470   -4.4300 C.ar  1501  0NN1501    -0.0003
      2  C3         7.1050  -52.2540   -3.2070 C.ar  1501  0NN1501    -0.0003
      3  C2         7.6100  -52.7070   -2.0060 C.ar  1501  0NN1501    -0.0023
      4  O2        10.7760  -59.0970    4.7240 O.2   1501  0NN1501    -0.2719
      5  C1         9.0350  -53.1980   -1.9250 C.ar  1501  0NN1501     0.0005
      6  O1        10.9150  -54.3840   -1.4420 O.3   1501  0NN1501    -0.3497
      7  N1        10.4950  -54.5090    2.0090 N.3   1501  0NN1501    -0.2724
      8  C10       10.4080  -55.5080    0.9330 C.3   1501  0NN1501     0.0749
      9  C11       10.2280  -52.6930    0.3050 C.3   1501  0NN1501     0.0488
     10  C12       11.0960  -53.2540    1.4660 C.3   1501  0NN1501     0.0749
     11  C13       11.3050  -54.9870    3.1150 C.3   1501  0NN1501     0.0739
     12  C14       10.4880  -55.8360    4.0680 C.3   1501  0NN1501     0.0407
     13  C15       11.3950  -56.3960    5.1560 C.3   1501  0NN1501     0.1166
     14  C16       10.3720  -58.6420    5.7750 C.2   1501  0NN1501     0.2559
     15  C17        9.5890  -59.5630    6.7530 C.3   1501  0NN1501     0.1368
     16  C18       10.4290  -59.9690    7.9000 C.3   1501  0NN1501     0.0268
     17  C19       10.0660  -59.0180    8.9990 C.3   1501  0NN1501     0.0192
     18  N2        10.6430  -57.2350    6.1080 N.am  1501  0NN1501    -0.2043
     19  C20        8.6070  -58.6660    8.7480 C.3   1501  0NN1501     0.0728
     20  C21        7.8240  -57.8290    6.5830 C.3   1501  0NN1501     0.0995
     21  C22        7.5230  -58.2130    5.1250 C.ar  1501  0NN1501    -0.0061
     22  C23        7.5840  -57.2540    4.1460 C.ar  1501  0NN1501    -0.0029
     23  C24        7.2910  -57.6190    2.7100 C.ar  1501  0NN1501    -0.0003
     24  C25        6.9670  -58.9050    2.3890 C.ar  1501  0NN1501    -0.0000
     25  C26        6.9000  -59.9590    3.4640 C.ar  1501  0NN1501    -0.0003
     26  C27        7.1640  -59.6300    4.7700 C.ar  1501  0NN1501    -0.0029
     27  N3         8.3820  -58.9780    7.3330 N.3   1501  0NN1501    -0.2627
     28  C5         9.2640  -52.6960   -4.3560 C.ar  1501  0NN1501    -0.0021
     29  C6         9.8160  -53.1930   -3.0380 C.ar  1501  0NN1501     0.0055
     30  C7        11.1640  -53.7340   -2.6510 C.3   1501  0NN1501     0.1686
     31  C8         9.8670  -53.7470   -0.7630 C.3   1501  0NN1501     0.1143
     32  C9         9.4350  -55.0380   -0.1110 C.3   1501  0NN1501     0.0488
@<TRIPOS>BOND
     1     1    28   ar
     2     1     2   ar
     3    28    29   ar
     4     2     3   ar
     5    29    30    1
     6    29     5   ar
     7    30     6    1
     8     3     5   ar
     9     5    31    1
    10     6    31    1
    11    31    32    1
    12    31     9    1
    13    32     8    1
    14     9    10    1
    15     8     7    1
    16    10     7    1
    17     7    11    1
    18    24    23   ar
    19    24    25   ar
    20    23    22   ar
    21    11    12    1
    22    25    26   ar
    23    12    13    1
    24    22    21   ar
    25     4    14    2
    26    26    21   ar
    27    21    20    1
    28    13    18    1
    29    14    18   am
    30    14    15    1
    31    20    27    1
    32    15    27    1
    33    15    16    1
    34    27    19    1
    35    16    17    1
    36    19    17    1
