@<TRIPOS>MOLECULE
4ea7_COA_A_1.pdb
 48 50 0 0 0
SMALL
GASTEIGER

@<TRIPOS>ATOM
      1  N1A       37.2750  -26.6110   28.9810 N.2   2001  COA2001     0.0021
      2  C2A       37.9560  -27.6040   29.6770 C.3   2001  COA2001     0.5254
      3  N3A       39.2410  -27.8910   29.5010 N.2   2001  COA2001    -0.0055
      4  C4A       39.8770  -27.1490   28.6450 C.2   2001  COA2001     0.3518
      5  C5A       39.3050  -26.1340   27.9280 C.2   2001  COA2001     0.2526
      6  C6A       37.9300  -25.8590   28.1250 C.2   2001  COA2001     0.4393
      7  N6A       37.2710  -24.8770   27.4870 N.pl3 2001  COA2001     0.2180
      8  N7A       40.2270  -25.5660   27.1090 N.2   2001  COA2001    -0.2095
      9  C8A       41.3370  -26.2180   27.3190 C.3   2001  COA2001     0.3377
     10  N9A       41.1920  -27.1680   28.2260 N.pl3 2001  COA2001    -0.1439
     11  C1B       42.2830  -27.9950   28.7480 C.3   2001  COA2001     0.3185
     12  C2B       43.0650  -28.7550   27.7930 C.3   2001  COA2001     0.2543
     13  O2B       42.4230  -29.9830   27.4340 O.3   2001  COA2001    -0.2131
     14  C3B       44.4900  -28.8820   28.3130 C.3   2001  COA2001     0.1928
     15  O3B       44.3740  -29.9470   29.2200 O.3   2001  COA2001    -0.2673
     16  P3B       45.7800  -30.8310   29.5490 P.3   2001  COA2001     0.5327
     17  O7A       46.6050  -29.8630   30.4350 O.3   2001  COA2001    -0.1145
     18  O8A       46.1160  -30.9970   28.1140 O.2   2001  COA2001    -0.2224
     19  O9A       45.1460  -32.1180   30.0610 O.3   2001  COA2001    -0.1145
     20  C4B       44.6290  -27.5060   28.9490 C.3   2001  COA2001     0.1795
     21  O4B       43.2620  -27.0410   29.1960 O.3   2001  COA2001    -0.3136
     22  C5B       45.4040  -26.3810   28.2720 C.3   2001  COA2001     0.1812
     23  O5B       44.8760  -26.2360   26.8700 O.3   2001  COA2001    -0.3112
     24  P1A       45.3360  -25.0120   26.0600 P.3   2001  COA2001     0.2189
     25  O1A       44.6480  -25.0080   24.6800 O.2   2001  COA2001    -0.5170
     26  O2A       46.8600  -24.9820   25.9820 O.3   2001  COA2001    -0.4371
     27  O3A       44.8390  -23.8440   27.0470 O.3   2001  COA2001    -0.2703
     28  P2A       44.9010  -22.2010   26.9200 P.3   2001  COA2001     0.2188
     29  O4A       45.2890  -21.9750   28.3730 O.3   2001  COA2001    -0.4371
     30  O5A       45.5810  -21.6630   25.6520 O.2   2001  COA2001    -0.5170
     31  O6A       43.3210  -21.8280   26.7170 O.3   2001  COA2001    -0.3138
     32  CBP       41.1080  -21.7500   27.3940 C.3   2001  COA2001     0.0645
     33  CCP       42.4350  -22.3680   27.6600 C.3   2001  COA2001     0.1519
     34  CDP       40.2540  -22.3530   28.4990 C.3   2001  COA2001     0.0056
     35  CEP       41.0830  -20.2250   27.4790 C.3   2001  COA2001     0.0056
     36  CAP       40.6130  -22.0940   25.9090 C.3   2001  COA2001     0.2312
     37  OAP       40.8500  -23.4860   25.5050 O.3   2001  COA2001    -0.2131
     38  C9P       39.1850  -21.7410   25.6190 C.2   2001  COA2001     0.2719
     39  O9P       38.2110  -22.3760   26.0060 O.2   2001  COA2001    -0.2706
     40  N8P       38.9880  -20.7270   24.7860 N.am  2001  COA2001    -0.2028
     41  C7P       37.5950  -20.2990   24.3910 C.3   2001  COA2001     0.1248
     42  C6P       37.7940  -19.4040   23.2310 C.3   2001  COA2001     0.1102
     43  C5P       36.5140  -18.9330   22.6040 C.2   2001  COA2001     0.2432
     44  O5P       35.4950  -19.4640   22.6690 O.2   2001  COA2001    -0.2733
     45  N4P       36.6360  -17.9840   21.7030 N.am  2001  COA2001    -0.2044
     46  C3P       35.3930  -17.5690   20.8600 C.3   2001  COA2001     0.1276
     47  C2P       35.6200  -16.1580   20.5330 C.3   2001  COA2001     0.0920
     48  S1P       34.3670  -15.2950   19.7800 S.3   2001  COA2001    -0.0802
@<TRIPOS>BOND
     1    48    47    1
     2    47    46    1
     3    46    45    1
     4    45    43   am
     5    43    44    2
     6    43    42    1
     7    42    41    1
     8    41    40    1
     9    25    24    2
    10    40    38   am
    11    37    36    1
    12    38    36    1
    13    38    39    2
    14    30    28    2
    15    36    32    1
    16    26    24    1
    17    24    23    1
    18    24    27    1
    19    31    28    1
    20    31    33    1
    21    23    22    1
    22    28    27    1
    23    28    29    1
    24     8     9    1
    25     8     5    2
    26     9    10    1
    27    32    35    1
    28    32    33    1
    29    32    34    1
    30    13    12    1
    31     7     6    1
    32    12    14    1
    33    12    11    1
    34     5     6    1
    35     5     4    1
    36    18    16    2
    37     6     1    2
    38    10     4    1
    39    10    11    1
    40    22    20    1
    41    14    20    1
    42    14    15    1
    43     4     3    2
    44    11    21    1
    45    20    21    1
    46     1     2    1
    47    15    16    1
    48     3     2    1
    49    16    19    1
    50    16    17    1
