@<TRIPOS>MOLECULE
4ea7_JB2_A_1.pdb
 38 41 0 0 0
SMALL
GASTEIGER

@<TRIPOS>ATOM
      1  O6        45.8820   -1.1440   17.9770 O.2   2002  JB22002    -0.2069
      2  C6        45.2100   -1.6090   17.0640 C.1   2002  JB22002     0.2372
      3  C5        45.1730   -2.9080   16.6470 C.2   2002  JB22002     0.2182
      4  N7        45.6960   -4.0860   17.1950 N.2   2002  JB22002    -0.2322
      5  C8        45.2290   -5.0410   16.4000 C.3   2002  JB22002     0.2246
      6  N1        44.5600   -0.6670   16.2200 N.2   2002  JB22002    -0.2485
      7  C2        43.8990   -1.0930   15.0650 C.1   2002  JB22002     0.2531
      8  N2        43.3280   -0.0890   14.3410 N.pl3 2002  JB22002    -0.0226
      9  N3        43.8460   -2.3560   14.6750 N.2   2002  JB22002    -0.3074
     10  C4        44.5090   -3.2400   15.4620 C.2   2002  JB22002     0.2300
     11  N9        44.5350   -4.5590   15.2970 N.pl3 2002  JB22002    -0.2354
     12  C1'       44.0070   -5.3090   14.1910 C.3   2002  JB22002     0.2293
     13  O4'       42.9180   -6.0940   14.7070 O.3   2002  JB22002    -0.3326
     14  C2'       44.9120   -6.3830   13.6170 C.3   2002  JB22002     0.2310
     15  O2'       45.9220   -5.7830   12.8030 O.3   2002  JB22002    -0.2158
     16  C3'       43.9520   -7.3200   12.9640 C.3   2002  JB22002     0.2158
     17  O3'       43.5940   -7.0300   11.6220 O.3   2002  JB22002    -0.2175
     18  C4'       42.6740   -7.1970   13.8230 C.3   2002  JB22002     0.1799
     19  C5'       42.4690   -8.3740   14.7340 C.3   2002  JB22002     0.1813
     20  O5'       41.9540   -9.4030   13.8410 O.3   2002  JB22002    -0.3112
     21  P         41.8240  -10.9490   14.3450 P.3   2002  JB22002     0.2189
     22  O1P       41.0730  -11.6740   13.2670 O.2   2002  JB22002    -0.5170
     23  O2P       43.1850  -11.4610   14.7670 O.3   2002  JB22002    -0.4371
     24  OPP       40.9240  -10.9020   15.7050 O.3   2002  JB22002    -0.2703
     25  P2        39.4820  -10.2780   15.9610 P.3   2002  JB22002     0.2208
     26  O3P       39.6780   -9.2020   16.9060 O.3   2002  JB22002    -0.4371
     27  O4P       38.8700   -9.9000   14.6740 O.2   2002  JB22002    -0.5170
     28  O1G       38.6890  -11.5240   16.3980 O.3   2002  JB22002    -0.2857
     29  C1G       38.9330  -12.3210   17.4820 C.3   2002  JB22002     0.2740
     30  O5G       37.7880  -12.0330   18.3450 O.3   2002  JB22002    -0.3293
     31  C5G       36.5470  -12.4720   17.9280 C.3   2002  JB22002     0.1380
     32  C6G       35.4260  -11.6530   18.5770 C.3   2002  JB22002     0.0338
     33  C2G       39.1270  -13.7720   17.0710 C.3   2002  JB22002     0.2398
     34  O2G       39.4900  -14.4840   18.3210 O.3   2002  JB22002    -0.2149
     35  C3G       37.7450  -14.3110   16.5190 C.3   2002  JB22002     0.2070
     36  O3G       37.8770  -15.8040   16.4460 O.3   2002  JB22002    -0.2186
     37  C4G       36.5590  -13.9190   17.4770 C.3   2002  JB22002     0.1518
     38  N4A       35.3530  -14.0370   16.5760 N.3   2002  JB22002    -0.1276
@<TRIPOS>BOND
     1    17    16    1
     2    15    14    1
     3    16    14    1
     4    16    18    1
     5    22    21    2
     6    14    12    1
     7    18    13    1
     8    18    19    1
     9    20    21    1
    10    20    19    1
    11    12    13    1
    12    12    11    1
    13     8     7    1
    14    21    23    1
    15    21    24    1
    16    27    25    2
    17     9     7    2
    18     9    10    2
    19     7     6    2
    20    11    10    1
    21    11     5    1
    22    10     3    1
    23    24    25    1
    24    25    28    1
    25    25    26    1
    26     6     2    2
    27    28    29    1
    28     5     4    1
    29    36    35    1
    30    35    33    1
    31    35    37    1
    32    38    37    1
    33     3     2    1
    34     3     4    2
    35     2     1    2
    36    33    29    1
    37    33    34    1
    38    37    31    1
    39    29    30    1
    40    31    30    1
    41    31    32    1
