@<TRIPOS>MOLECULE
4ea8_COA_A_1.pdb
 48 50 0 0 0
SMALL
GASTEIGER

@<TRIPOS>ATOM
      1  N1A      -26.7800  -37.5010   29.2240 N.2   1001  COA1001     0.0021
      2  C2A      -27.7370  -38.2000   29.8830 C.3   1001  COA1001     0.5254
      3  N3A      -28.0210  -39.5150   29.7120 N.2   1001  COA1001    -0.0055
      4  C4A      -27.2640  -40.1190   28.7970 C.2   1001  COA1001     0.3518
      5  C5A      -26.2820  -39.5060   28.0980 C.2   1001  COA1001     0.2526
      6  C6A      -26.0460  -38.1300   28.3210 C.2   1001  COA1001     0.4393
      7  N6A      -25.0580  -37.4730   27.6800 N.pl3 1001  COA1001     0.2180
      8  N7A      -25.7530  -40.4300   27.2560 N.2   1001  COA1001    -0.2095
      9  C8A      -26.4020  -41.5830   27.4330 C.3   1001  COA1001     0.3377
     10  N9A      -27.3130  -41.4260   28.3690 N.pl3 1001  COA1001    -0.1439
     11  C1B      -28.1080  -42.5560   28.9320 C.3   1001  COA1001     0.3185
     12  C2B      -28.8690  -43.3490   27.9020 C.3   1001  COA1001     0.2543
     13  O2B      -30.1340  -42.7580   27.5970 O.3   1001  COA1001    -0.2131
     14  C3B      -28.8630  -44.7690   28.3820 C.3   1001  COA1001     0.1928
     15  O3B      -29.9730  -44.7980   29.2750 O.3   1001  COA1001    -0.2673
     16  P3B      -30.8050  -46.1800   29.5750 P.3   1001  COA1001     0.5327
     17  O7A      -29.9350  -47.0590   30.4870 O.3   1001  COA1001    -0.1145
     18  O8A      -30.9480  -46.9250   28.2390 O.2   1001  COA1001    -0.2224
     19  O9A      -32.1490  -45.5700   30.0360 O.3   1001  COA1001    -0.1145
     20  C4B      -27.5080  -44.9170   29.1000 C.3   1001  COA1001     0.1795
     21  O4B      -27.1260  -43.5170   29.3810 O.3   1001  COA1001    -0.3136
     22  C5B      -26.2880  -45.6800   28.4920 C.3   1001  COA1001     0.1812
     23  O5B      -26.2590  -45.1250   27.1120 O.3   1001  COA1001    -0.3112
     24  P1A      -25.0870  -45.6510   26.1720 P.3   1001  COA1001     0.2189
     25  O1A      -25.2240  -44.9720   24.8020 O.2   1001  COA1001    -0.5170
     26  O2A      -25.0830  -47.1420   26.2370 O.3   1001  COA1001    -0.4371
     27  O3A      -23.9300  -45.0310   27.0340 O.3   1001  COA1001    -0.2703
     28  P2A      -22.3220  -45.2010   27.0710 P.3   1001  COA1001     0.2188
     29  O4A      -22.2390  -45.6200   28.5330 O.3   1001  COA1001    -0.4371
     30  O5A      -21.7000  -45.9460   25.9060 O.2   1001  COA1001    -0.5170
     31  O6A      -21.9250  -43.6710   26.9670 O.3   1001  COA1001    -0.3138
     32  CBP      -21.8900  -41.3920   27.6730 C.3   1001  COA1001     0.0645
     33  CCP      -22.5150  -42.7610   27.8580 C.3   1001  COA1001     0.1519
     34  CDP      -22.5530  -40.5100   28.7380 C.3   1001  COA1001     0.0056
     35  CEP      -20.3700  -41.4030   27.8710 C.3   1001  COA1001     0.0056
     36  CAP      -22.1330  -40.8920   26.2260 C.3   1001  COA1001     0.2312
     37  OAP      -23.4910  -41.1160   25.8060 O.3   1001  COA1001    -0.2131
     38  C9P      -21.8130  -39.4790   25.9050 C.2   1001  COA1001     0.2719
     39  O9P      -22.4950  -38.4970   26.2700 O.2   1001  COA1001    -0.2706
     40  N8P      -20.6540  -39.3040   25.2420 N.am  1001  COA1001    -0.2028
     41  C7P      -20.1140  -37.9600   24.9710 C.3   1001  COA1001     0.1248
     42  C6P      -19.6630  -38.0680   23.5350 C.3   1001  COA1001     0.1102
     43  C5P      -19.2790  -36.7790   22.9370 C.2   1001  COA1001     0.2432
     44  O5P      -19.8880  -35.7650   23.2170 O.2   1001  COA1001    -0.2733
     45  N4P      -18.3160  -36.8060   22.0250 N.am  1001  COA1001    -0.2044
     46  C3P      -17.8500  -35.5790   21.4120 C.3   1001  COA1001     0.1276
     47  C2P      -16.5570  -35.9950   20.7760 C.3   1001  COA1001     0.0920
     48  S1P      -15.6620  -34.5800   20.2610 S.3   1001  COA1001    -0.0802
@<TRIPOS>BOND
     1    48    47    1
     2    47    46    1
     3    46    45    1
     4    45    43   am
     5    43    44    2
     6    43    42    1
     7    42    41    1
     8    25    24    2
     9    41    40    1
    10    40    38   am
    11    37    36    1
    12    38    36    1
    13    38    39    2
    14    30    28    2
    15    24    26    1
    16    24    27    1
    17    24    23    1
    18    36    32    1
    19    31    28    1
    20    31    33    1
    21    27    28    1
    22    28    29    1
    23    23    22    1
    24     8     9    1
    25     8     5    2
    26     9    10    1
    27    13    12    1
    28    32    33    1
    29    32    35    1
    30    32    34    1
    31     7     6    1
    32    12    14    1
    33    12    11    1
    34     5     6    1
    35     5     4    1
    36    18    16    2
    37     6     1    2
    38    10     4    1
    39    10    11    1
    40    14    20    1
    41    14    15    1
    42    22    20    1
    43     4     3    2
    44    11    21    1
    45    20    21    1
    46     1     2    1
    47    15    16    1
    48    16    19    1
    49    16    17    1
    50     3     2    1
