@<TRIPOS>MOLECULE
4ea8_JB3_A_1.pdb
 41 44 0 0 0
SMALL
GASTEIGER

@<TRIPOS>ATOM
      1  O4A      -16.8840  -35.8370   17.3640 O.2   1002  JB31002    -0.2733
      2  C4A      -15.7850  -35.2370   17.1160 C.2   1002  JB31002     0.2420
      3  C5A      -15.9230  -33.7220   16.9420 C.3   1002  JB31002     0.0964
      4  N4A      -14.4970  -35.6360   17.0250 N.am  1002  JB31002    -0.2020
      5  C4G      -14.1870  -37.0430   17.4370 C.3   1002  JB31002     0.1553
      6  C5G      -12.7630  -37.1000   18.0690 C.3   1002  JB31002     0.1404
      7  C6G      -12.6130  -36.2720   19.3410 C.3   1002  JB31002     0.0341
      8  O5G      -12.3430  -38.3910   18.2280 O.3   1002  JB31002    -0.3290
      9  C3G      -14.2980  -37.9520   16.1990 C.3   1002  JB31002     0.2094
     10  O3G      -15.6690  -37.9390   15.7230 O.3   1002  JB31002    -0.2183
     11  C2G      -13.8610  -39.3980   16.5870 C.3   1002  JB31002     0.2400
     12  O2G      -14.7710  -40.0660   17.5220 O.3   1002  JB31002    -0.2149
     13  C1G      -12.5270  -39.3580   17.1910 C.3   1002  JB31002     0.2740
     14  O1G      -11.5780  -38.9660   16.1780 O.3   1002  JB31002    -0.2857
     15  P2       -10.2920  -39.8160   15.8730 P.3   1002  JB31002     0.2208
     16  O3P       -9.3220  -40.0240   16.9310 O.3   1002  JB31002    -0.4371
     17  O4P       -9.8260  -39.2290   14.6000 O.2   1002  JB31002    -0.5170
     18  OPP      -10.9110  -41.2760   15.5900 O.3   1002  JB31002    -0.2703
     19  P        -11.0400  -42.1340   14.2370 P.3   1002  JB31002     0.2189
     20  O1P      -11.7870  -41.3090   13.1710 O.2   1002  JB31002    -0.5170
     21  O2P      -11.6010  -43.4270   14.6470 O.3   1002  JB31002    -0.4371
     22  O5'       -9.5420  -42.2910   13.7810 O.3   1002  JB31002    -0.3112
     23  C5'       -8.4930  -42.7910   14.6880 C.3   1002  JB31002     0.1813
     24  C4'       -7.3050  -42.9810   13.7520 C.3   1002  JB31002     0.1799
     25  O4'       -6.1870  -43.2030   14.6390 O.3   1002  JB31002    -0.3326
     26  C3'       -7.4030  -44.1940   12.8410 C.3   1002  JB31002     0.2158
     27  O3'       -7.1020  -43.8780   11.4640 O.3   1002  JB31002    -0.2175
     28  C2'       -6.4660  -45.2340   13.4870 C.3   1002  JB31002     0.2310
     29  O2'       -5.8400  -46.1620   12.6300 O.3   1002  JB31002    -0.2158
     30  C1'       -5.4080  -44.2820   14.1080 C.3   1002  JB31002     0.2293
     31  N9        -4.6310  -44.8260   15.2130 N.pl3 1002  JB31002    -0.2354
     32  C8        -5.1070  -45.4770   16.3200 C.3   1002  JB31002     0.2246
     33  N7        -4.0910  -45.9110   17.1370 N.2   1002  JB31002    -0.2322
     34  C4        -3.2890  -44.7440   15.3970 C.2   1002  JB31002     0.2300
     35  C5        -2.9680  -45.3880   16.6050 C.2   1002  JB31002     0.2182
     36  N3        -2.3850  -44.1300   14.6080 N.2   1002  JB31002    -0.3074
     37  C2        -1.1310  -44.1620   15.0240 C.1   1002  JB31002     0.2531
     38  N2        -0.1320  -43.6270   14.2920 N.pl3 1002  JB31002    -0.0226
     39  N1        -0.7910  -44.7720   16.1910 N.2   1002  JB31002    -0.2485
     40  C6        -1.6410  -45.4120   17.0000 C.1   1002  JB31002     0.2372
     41  O6        -1.2380  -46.0860   17.9700 O.2   1002  JB31002    -0.2069
@<TRIPOS>BOND
     1    27    26    1
     2    29    28    1
     3    26    28    1
     4    26    24    1
     5    20    19    2
     6    28    30    1
     7    24    25    1
     8    24    23    1
     9    22    19    1
    10    22    23    1
    11    30    25    1
    12    30    31    1
    13    19    21    1
    14    19    18    1
    15    38    37    1
    16    17    15    2
    17    36    37    2
    18    36    34    2
    19    37    39    2
    20    31    34    1
    21    31    32    1
    22    34    35    1
    23    18    15    1
    24    10     9    1
    25    15    14    1
    26    15    16    1
    27    14    13    1
    28    39    40    2
    29     9    11    1
    30     9     5    1
    31    32    33    1
    32    11    13    1
    33    11    12    1
    34    35    40    1
    35    35    33    2
    36     3     2    1
    37    40    41    2
    38     4     2   am
    39     4     5    1
    40     2     1    2
    41    13     8    1
    42     5     6    1
    43     6     8    1
    44     6     7    1
