@<TRIPOS>MOLECULE
4eaa_COA_A_1.pdb
 48 50 0 0 0
SMALL
GASTEIGER

@<TRIPOS>ATOM
      1  N1A       37.2350  -26.6200   29.0970 N.2   302  COA302      0.0021
      2  C2A       37.7960  -27.6080   29.8180 C.3   302  COA302      0.5254
      3  N3A       39.0980  -27.8960   29.6720 N.2   302  COA302     -0.0055
      4  C4A       39.8310  -27.1810   28.7870 C.2   302  COA302      0.3518
      5  C5A       39.2660  -26.1420   28.0430 C.2   302  COA302      0.2526
      6  C6A       37.9130  -25.8490   28.2230 C.2   302  COA302      0.4393
      7  N6A       37.2610  -24.8640   27.5610 N.pl3 302  COA302      0.2180
      8  N7A       40.2280  -25.5590   27.2780 N.2   302  COA302     -0.2095
      9  C8A       41.3660  -26.2500   27.5300 C.3   302  COA302      0.3377
     10  N9A       41.1220  -27.2020   28.4260 N.pl3 302  COA302     -0.1439
     11  C1B       42.0890  -28.1550   29.0360 C.3   302  COA302      0.3185
     12  C2B       42.9780  -28.7500   27.9640 C.3   302  COA302      0.2543
     13  O2B       42.4500  -30.0440   27.6380 O.3   302  COA302     -0.2131
     14  C3B       44.3340  -28.8510   28.6470 C.3   302  COA302      0.1928
     15  O3B       44.2780  -30.0780   29.3570 O.3   302  COA302     -0.2673
     16  P3B       45.5390  -31.0310   29.7170 P.3   302  COA302      0.5327
     17  O7A       46.0780  -30.3820   30.9800 O.3   302  COA302     -0.1145
     18  O8A       46.3620  -30.9360   28.4550 O.2   302  COA302     -0.2224
     19  O9A       44.8330  -32.3510   29.9570 O.3   302  COA302     -0.1145
     20  C4B       44.3020  -27.7580   29.7100 C.3   302  COA302      0.1795
     21  O4B       42.9240  -27.4400   29.9560 O.3   302  COA302     -0.3136
     22  C5B       45.0730  -26.5410   29.2210 C.3   302  COA302      0.1812
     23  O5B       44.8070  -26.4010   27.8290 O.3   302  COA302     -0.3112
     24  P1A       45.3880  -25.1430   27.0140 P.3   302  COA302      0.2189
     25  O1A       44.9210  -25.2090   25.5800 O.2   302  COA302     -0.5170
     26  O2A       46.8700  -25.1120   27.3230 O.3   302  COA302     -0.4371
     27  O3A       44.7040  -23.8950   27.7750 O.3   302  COA302     -0.2703
     28  P2A       44.9770  -22.3060   27.5810 P.3   302  COA302      0.2188
     29  O4A       45.0000  -21.9400   29.0510 O.3   302  COA302     -0.4371
     30  O5A       46.0000  -21.9480   26.5230 O.2   302  COA302     -0.5170
     31  O6A       43.5530  -21.8320   26.9820 O.3   302  COA302     -0.3138
     32  CBP       41.0820  -21.7330   27.4290 C.3   302  COA302      0.0645
     33  CCP       42.4600  -22.2920   27.7610 C.3   302  COA302      0.1519
     34  CDP       40.2090  -22.3540   28.5170 C.3   302  COA302      0.0056
     35  CEP       41.0650  -20.2170   27.5860 C.3   302  COA302      0.0056
     36  CAP       40.6230  -22.1010   26.0080 C.3   302  COA302      0.2312
     37  OAP       40.7930  -23.4820   25.6550 O.3   302  COA302     -0.2131
     38  C9P       39.1940  -21.7170   25.7110 C.2   302  COA302      0.2719
     39  O9P       38.2610  -22.3890   26.1340 O.2   302  COA302     -0.2706
     40  N8P       38.9750  -20.6300   24.9660 N.am  302  COA302     -0.2028
     41  C7P       37.6340  -20.1700   24.6100 C.3   302  COA302      0.1248
     42  C6P       37.8530  -19.4130   23.3010 C.3   302  COA302      0.1102
     43  C5P       36.5700  -18.9390   22.6330 C.2   302  COA302      0.2432
     44  O5P       35.5260  -19.4740   22.9020 O.2   302  COA302     -0.2733
     45  N4P       36.5580  -17.9650   21.7380 N.am  302  COA302     -0.2044
     46  C3P       35.3150  -17.5400   21.0880 C.3   302  COA302      0.1276
     47  C2P       35.6500  -16.1010   20.7570 C.3   302  COA302      0.0920
     48  S1P       34.3320  -15.2960   19.8270 S.3   302  COA302     -0.0802
@<TRIPOS>BOND
     1    48    47    1
     2    47    46    1
     3    46    45    1
     4    45    43   am
     5    43    44    2
     6    43    42    1
     7    42    41    1
     8    41    40    1
     9    40    38   am
    10    25    24    2
    11    37    36    1
    12    38    36    1
    13    38    39    2
    14    36    32    1
    15    30    28    2
    16    31    28    1
    17    31    33    1
    18    24    26    1
    19    24    27    1
    20    24    23    1
    21     8     9    1
    22     8     5    2
    23    32    35    1
    24    32    33    1
    25    32    34    1
    26     9    10    1
    27     7     6    1
    28    28    27    1
    29    28    29    1
    30    13    12    1
    31    23    22    1
    32    12    14    1
    33    12    11    1
    34     5     6    1
    35     5     4    1
    36     6     1    2
    37    10     4    1
    38    10    11    1
    39    18    16    2
    40    14    15    1
    41    14    20    1
    42     4     3    2
    43    11    21    1
    44     1     2    1
    45    22    20    1
    46    15    16    1
    47     3     2    1
    48    20    21    1
    49    16    19    1
    50    16    17    1
