@<TRIPOS>MOLECULE
4eaa_JB2_A_1.pdb
 38 41 0 0 0
SMALL
GASTEIGER

@<TRIPOS>ATOM
      1  O6        45.6960   -1.2020   18.2200 O.2   301  JB2301     -0.2069
      2  C6        45.0850   -1.5590   17.2000 C.1   301  JB2301      0.2372
      3  C5        45.0710   -2.8930   16.8180 C.2   301  JB2301      0.2182
      4  N7        45.5490   -4.0240   17.4040 N.2   301  JB2301     -0.2322
      5  C8        45.1520   -5.0240   16.5900 C.3   301  JB2301      0.2246
      6  N1        44.5050   -0.6410   16.3840 N.2   301  JB2301     -0.2485
      7  C2        43.8940   -1.0370   15.2320 C.1   301  JB2301      0.2531
      8  N2        43.2980   -0.0920   14.4690 N.pl3 301  JB2301     -0.0226
      9  N3        43.8000   -2.3330   14.8350 N.2   301  JB2301     -0.3074
     10  C4        44.4030   -3.2340   15.6550 C.2   301  JB2301      0.2300
     11  N9        44.4670   -4.5550   15.5310 N.pl3 301  JB2301     -0.2354
     12  C1'       43.8960   -5.2720   14.3640 C.3   301  JB2301      0.2293
     13  O4'       42.8060   -6.0510   14.8790 O.3   301  JB2301     -0.3326
     14  C2'       44.8450   -6.3450   13.8320 C.3   301  JB2301      0.2310
     15  O2'       45.8560   -5.8590   12.9270 O.3   301  JB2301     -0.2158
     16  C3'       43.9130   -7.3830   13.2260 C.3   301  JB2301      0.2158
     17  O3'       43.6190   -7.0850   11.8590 O.3   301  JB2301     -0.2175
     18  C4'       42.6370   -7.1960   14.0450 C.3   301  JB2301      0.1799
     19  C5'       42.3710   -8.3840   14.9640 C.3   301  JB2301      0.1813
     20  O5'       41.8460   -9.3550   14.0720 O.3   301  JB2301     -0.3112
     21  P         41.7640  -10.9020   14.5540 P.3   301  JB2301      0.2189
     22  O1P       41.0210  -11.6390   13.4490 O.2   301  JB2301     -0.5170
     23  O2P       43.1420  -11.3450   14.9660 O.3   301  JB2301     -0.4371
     24  OPP       40.9120  -10.9130   15.9350 O.3   301  JB2301     -0.2703
     25  P2        39.4260  -10.3210   16.1030 P.3   301  JB2301      0.2208
     26  O3P       39.4920   -9.3350   17.2410 O.3   301  JB2301     -0.4371
     27  O4P       38.8230   -9.7680   14.8540 O.2   301  JB2301     -0.5170
     28  O1G       38.6730  -11.6820   16.5220 O.3   301  JB2301     -0.2857
     29  C1G       38.8430  -12.0360   17.8940 C.3   301  JB2301      0.2740
     30  O5G       37.6630  -11.8040   18.6640 O.3   301  JB2301     -0.3293
     31  C5G       36.4950  -12.3210   18.0220 C.3   301  JB2301      0.1380
     32  C6G       35.3040  -11.9890   18.9150 C.3   301  JB2301      0.0338
     33  C2G       39.1590  -13.5170   18.0010 C.3   301  JB2301      0.2398
     34  O2G       39.4010  -13.8050   19.3880 O.3   301  JB2301     -0.2149
     35  C3G       38.0080  -14.3200   17.3970 C.3   301  JB2301      0.2070
     36  O3G       38.1390  -15.6630   17.8720 O.3   301  JB2301     -0.2186
     37  C4G       36.5990  -13.8160   17.7230 C.3   301  JB2301      0.1518
     38  N4A       35.6990  -14.2070   16.6460 N.3   301  JB2301     -0.1276
@<TRIPOS>BOND
     1    17    16    1
     2    15    14    1
     3    16    14    1
     4    16    18    1
     5    22    21    2
     6    14    12    1
     7    18    13    1
     8    18    19    1
     9    20    21    1
    10    20    19    1
    11    12    13    1
    12    12    11    1
    13     8     7    1
    14    21    23    1
    15    21    24    1
    16     9     7    2
    17     9    10    2
    18    27    25    2
    19     7     6    2
    20    11    10    1
    21    11     5    1
    22    10     3    1
    23    24    25    1
    24    25    28    1
    25    25    26    1
    26     6     2    2
    27    28    29    1
    28     5     4    1
    29    38    37    1
    30     3     2    1
    31     3     4    2
    32     2     1    2
    33    35    37    1
    34    35    36    1
    35    35    33    1
    36    37    31    1
    37    29    33    1
    38    29    30    1
    39    33    34    1
    40    31    30    1
    41    31    32    1
