@<TRIPOS>MOLECULE
4eab_JB2_A_1.pdb
 38 41 0 0 0
SMALL
GASTEIGER

@<TRIPOS>ATOM
      1  O6        45.7160   -1.1480   18.0020 O.2   301  JB2301     -0.2069
      2  C6        45.1510   -1.5570   16.9740 C.1   301  JB2301      0.2372
      3  C5        45.1490   -2.9000   16.6080 C.2   301  JB2301      0.2182
      4  N7        45.6270   -4.0410   17.1770 N.2   301  JB2301     -0.2322
      5  C8        45.2710   -5.0400   16.3340 C.3   301  JB2301      0.2246
      6  N1        44.5660   -0.6310   16.1690 N.2   301  JB2301     -0.2485
      7  C2        43.9910   -1.0310   15.0160 C.1   301  JB2301      0.2531
      8  N2        43.4170   -0.0710   14.2560 N.pl3 301  JB2301     -0.0226
      9  N3        43.9140   -2.3210   14.6290 N.2   301  JB2301     -0.3074
     10  C4        44.5170   -3.2470   15.4200 C.2   301  JB2301      0.2300
     11  N9        44.6060   -4.5660   15.2600 N.pl3 301  JB2301     -0.2354
     12  C1'       44.0500   -5.2860   14.0930 C.3   301  JB2301      0.2293
     13  O4'       42.8760   -5.9910   14.4980 O.3   301  JB2301     -0.3326
     14  C2'       44.9910   -6.3820   13.5850 C.3   301  JB2301      0.2310
     15  O2'       45.9830   -5.8470   12.6900 O.3   301  JB2301     -0.2158
     16  C3'       44.0520   -7.4180   12.9800 C.3   301  JB2301      0.2158
     17  O3'       43.8020   -7.1680   11.5980 O.3   301  JB2301     -0.2175
     18  C4'       42.7320   -7.1780   13.7280 C.3   301  JB2301      0.1799
     19  C5'       42.4830   -8.2680   14.7680 C.3   301  JB2301      0.1813
     20  O5'       42.1520   -9.3710   13.9280 O.3   301  JB2301     -0.3112
     21  P         42.0630  -10.8810   14.5030 P.3   301  JB2301      0.2189
     22  O1P       41.2820  -11.6640   13.4640 O.2   301  JB2301     -0.5170
     23  O2P       43.4270  -11.3790   14.9240 O.3   301  JB2301     -0.4371
     24  OPP       41.1760  -10.8100   15.8610 O.3   301  JB2301     -0.2703
     25  P2        39.6640  -10.2410   16.0210 P.3   301  JB2301      0.2208
     26  O3P       39.6970   -9.1190   16.9740 O.3   301  JB2301     -0.4371
     27  O4P       38.9940   -9.8960   14.7270 O.2   301  JB2301     -0.5170
     28  O1G       38.8730  -11.5180   16.5960 O.3   301  JB2301     -0.2857
     29  C1G       39.1150  -12.0620   17.8780 C.3   301  JB2301      0.2740
     30  O5G       37.9640  -11.7220   18.6380 O.3   301  JB2301     -0.3293
     31  C5G       36.7340  -12.2840   18.1860 C.3   301  JB2301      0.1380
     32  C6G       35.6500  -11.7210   19.1060 C.3   301  JB2301      0.0338
     33  C2G       39.2860  -13.5690   17.8130 C.3   301  JB2301      0.2398
     34  O2G       39.6380  -13.9620   19.1520 O.3   301  JB2301     -0.2149
     35  C3G       38.0130  -14.2900   17.3700 C.3   301  JB2301      0.2070
     36  O3G       38.1590  -15.7180   17.5120 O.3   301  JB2301     -0.2186
     37  C4G       36.7970  -13.8050   18.1480 C.3   301  JB2301      0.1518
     38  N4A       35.6570  -14.3560   17.4170 N.3   301  JB2301     -0.1276
@<TRIPOS>BOND
     1    17    16    1
     2    15    14    1
     3    16    14    1
     4    16    18    1
     5    22    21    2
     6    14    12    1
     7    18    13    1
     8    18    19    1
     9    20    21    1
    10    20    19    1
    11    12    13    1
    12    12    11    1
    13     8     7    1
    14    21    23    1
    15    21    24    1
    16     9     7    2
    17     9    10    2
    18    27    25    2
    19     7     6    2
    20    11    10    1
    21    11     5    1
    22    10     3    1
    23    24    25    1
    24    25    28    1
    25    25    26    1
    26     6     2    2
    27     5     4    1
    28    28    29    1
    29     3     2    1
    30     3     4    2
    31     2     1    2
    32    35    36    1
    33    35    33    1
    34    35    37    1
    35    38    37    1
    36    33    29    1
    37    33    34    1
    38    29    30    1
    39    37    31    1
    40    31    30    1
    41    31    32    1
