@<TRIPOS>MOLECULE
4eab_COA_A_1.pdb
 48 50 0 0 0
SMALL
GASTEIGER

@<TRIPOS>ATOM
      1  N1A       37.3000  -26.7260   29.1240 N.2   302  COA302      0.0021
      2  C2A       37.8900  -27.7050   29.8510 C.3   302  COA302      0.5254
      3  N3A       39.1890  -27.9910   29.6740 N.2   302  COA302     -0.0055
      4  C4A       39.9040  -27.2710   28.7810 C.2   302  COA302      0.3518
      5  C5A       39.3300  -26.2500   28.0390 C.2   302  COA302      0.2526
      6  C6A       37.9790  -25.9580   28.2380 C.2   302  COA302      0.4393
      7  N6A       37.3340  -24.9610   27.5570 N.pl3 302  COA302      0.2180
      8  N7A       40.2640  -25.6760   27.2350 N.2   302  COA302     -0.2095
      9  C8A       41.4110  -26.3580   27.4880 C.3   302  COA302      0.3377
     10  N9A       41.1920  -27.3060   28.3930 N.pl3 302  COA302     -0.1439
     11  C1B       42.2330  -28.2290   28.9440 C.3   302  COA302      0.3185
     12  C2B       43.0800  -28.8620   27.8510 C.3   302  COA302      0.2543
     13  O2B       42.4960  -30.1310   27.5420 O.3   302  COA302     -0.2131
     14  C3B       44.4740  -28.9150   28.4710 C.3   302  COA302      0.1928
     15  O3B       44.4110  -30.0300   29.3590 O.3   302  COA302     -0.2673
     16  P3B       45.6510  -31.0390   29.6770 P.3   302  COA302      0.5327
     17  O7A       46.1820  -30.4730   30.9780 O.3   302  COA302     -0.1145
     18  O8A       46.4770  -30.8750   28.4190 O.2   302  COA302     -0.2224
     19  O9A       44.9490  -32.3750   29.8210 O.3   302  COA302     -0.1145
     20  C4B       44.5150  -27.6130   29.2780 C.3   302  COA302      0.1795
     21  O4B       43.1440  -27.3270   29.5860 O.3   302  COA302     -0.3136
     22  C5B       45.1410  -26.3920   28.6030 C.3   302  COA302      0.1812
     23  O5B       44.9060  -26.3950   27.1940 O.3   302  COA302     -0.3112
     24  P1A       45.3710  -25.1510   26.2920 P.3   302  COA302      0.2189
     25  O1A       44.7080  -25.1690   24.9260 O.2   302  COA302     -0.5170
     26  O2A       46.8920  -25.1360   26.3040 O.3   302  COA302     -0.4371
     27  O3A       44.8860  -23.9470   27.2640 O.3   302  COA302     -0.2703
     28  P2A       45.0730  -22.3340   27.1640 P.3   302  COA302      0.2188
     29  O4A       45.1780  -22.0610   28.6510 O.3   302  COA302     -0.4371
     30  O5A       45.9890  -21.9060   26.0320 O.2   302  COA302     -0.5170
     31  O6A       43.5540  -21.8760   26.8240 O.3   302  COA302     -0.3138
     32  CBP       41.2120  -21.8400   27.4260 C.3   302  COA302      0.0645
     33  CCP       42.6000  -22.4060   27.7280 C.3   302  COA302      0.1519
     34  CDP       40.3350  -22.5030   28.4950 C.3   302  COA302      0.0056
     35  CEP       41.1520  -20.3270   27.6030 C.3   302  COA302      0.0056
     36  CAP       40.6680  -22.2110   26.0320 C.3   302  COA302      0.2312
     37  OAP       40.8130  -23.5660   25.6110 O.3   302  COA302     -0.2131
     38  C9P       39.2360  -21.8590   25.7480 C.2   302  COA302      0.2719
     39  O9P       38.2740  -22.5100   26.1620 O.2   302  COA302     -0.2706
     40  N8P       39.0880  -20.8180   24.9320 N.am  302  COA302     -0.2028
     41  C7P       37.7640  -20.3400   24.5410 C.3   302  COA302      0.1248
     42  C6P       37.9940  -19.4370   23.3500 C.3   302  COA302      0.1102
     43  C5P       36.6610  -19.0650   22.7200 C.2   302  COA302      0.2432
     44  O5P       35.6420  -19.7050   22.9650 O.2   302  COA302     -0.2733
     45  N4P       36.6620  -18.0660   21.8570 N.am  302  COA302     -0.2044
     46  C3P       35.4970  -17.5600   21.1310 C.3   302  COA302      0.1276
     47  C2P       35.8440  -16.1580   20.6410 C.3   302  COA302      0.0920
     48  S1P       34.4330  -15.4470   19.7690 S.3   302  COA302     -0.0802
@<TRIPOS>BOND
     1    48    47    1
     2    47    46    1
     3    46    45    1
     4    45    43   am
     5    43    44    2
     6    43    42    1
     7    42    41    1
     8    41    40    1
     9    25    24    2
    10    40    38   am
    11    37    36    1
    12    38    36    1
    13    38    39    2
    14    36    32    1
    15    30    28    2
    16    24    26    1
    17    24    23    1
    18    24    27    1
    19    31    28    1
    20    31    33    1
    21    28    27    1
    22    28    29    1
    23    23    22    1
    24     8     9    1
    25     8     5    2
    26    32    35    1
    27    32    33    1
    28    32    34    1
    29     9    10    1
    30    13    12    1
    31     7     6    1
    32    12    14    1
    33    12    11    1
    34     5     6    1
    35     5     4    1
    36     6     1    2
    37    10     4    1
    38    10    11    1
    39    18    16    2
    40    14    20    1
    41    14    15    1
    42    22    20    1
    43     4     3    2
    44    11    21    1
    45     1     2    1
    46    20    21    1
    47    15    16    1
    48     3     2    1
    49    16    19    1
    50    16    17    1
