@<TRIPOS>MOLECULE
4eag_ATP_C_1.pdb
 31 33 0 0 0
SMALL
GASTEIGER

@<TRIPOS>ATOM
      1  PG       -25.4270  -34.2480    9.6310 P.3   401  ATP401      0.5373
      2  O1G      -24.8490  -32.8650    9.4130 O.2   401  ATP401     -0.2221
      3  O2G      -24.4390  -35.3150   10.0470 O.3   401  ATP401     -0.1143
      4  O3G      -26.7390  -34.2230   10.3770 O.3   401  ATP401     -0.1143
      5  PB       -25.0040  -35.8670    7.4050 P.3   401  ATP401      0.2277
      6  O1B      -23.5480  -35.7590    7.8320 O.3   401  ATP401     -0.4368
      7  O2B      -25.4260  -35.7600    5.9520 O.2   401  ATP401     -0.5168
      8  O3B      -25.9020  -34.8220    8.2140 O.3   401  ATP401     -0.2258
      9  PA       -27.0820  -37.6120    8.2710 P.3   401  ATP401      0.2189
     10  O1A      -27.7380  -36.4900    9.0400 O.3   401  ATP401     -0.4371
     11  O2A      -27.1300  -39.0380    8.7610 O.2   401  ATP401     -0.5170
     12  O3A      -25.5360  -37.2660    7.9940 O.3   401  ATP401     -0.2700
     13  O5'      -27.6420  -37.6770    6.7750 O.3   401  ATP401     -0.3112
     14  C5'      -27.3500  -38.8600    6.0560 C.3   401  ATP401      0.1813
     15  C4'      -28.5340  -39.2310    5.2020 C.3   401  ATP401      0.1821
     16  O4'      -29.5580  -39.6460    6.0880 O.3   401  ATP401     -0.3135
     17  C3'      -29.0890  -38.0800    4.3940 C.3   401  ATP401      0.2184
     18  O3'      -29.5200  -38.6100    3.1390 O.3   401  ATP401     -0.2174
     19  C2'      -30.3110  -37.6320    5.1560 C.3   401  ATP401      0.2570
     20  O2'      -31.2880  -37.0800    4.2670 O.3   401  ATP401     -0.2130
     21  C1'      -30.7550  -38.9290    5.8250 C.3   401  ATP401      0.3186
     22  N9       -31.4440  -38.7430    7.1290 N.pl3 401  ATP401     -0.1439
     23  C8       -30.9950  -38.0300    8.1780 C.3   401  ATP401      0.3377
     24  N7       -31.8790  -38.0730    9.2140 N.2   401  ATP401     -0.2095
     25  C5       -32.9170  -38.8310    8.8390 C.2   401  ATP401      0.2526
     26  C6       -34.1930  -39.2790    9.4530 C.2   401  ATP401      0.4393
     27  N6       -34.5640  -38.9300   10.7070 N.pl3 401  ATP401      0.2180
     28  N1       -34.9920  -40.0580    8.7060 N.2   401  ATP401      0.0021
     29  C2       -34.6480  -40.4140    7.4560 C.3   401  ATP401      0.5254
     30  N3       -33.5250  -40.0400    6.8260 N.2   401  ATP401     -0.0055
     31  C4       -32.6260  -39.2640    7.4610 C.2   401  ATP401      0.3518
@<TRIPOS>BOND
     1    18    17    1
     2    20    19    1
     3    17    19    1
     4    17    15    1
     5    19    21    1
     6    15    14    1
     7    15    16    1
     8    21    16    1
     9    21    22    1
    10     7     5    2
    11    14    13    1
    12    13     9    1
    13    30    29    1
    14    30    31    2
    15    22    31    1
    16    22    23    1
    17     5     6    1
    18     5    12    1
    19     5     8    1
    20    29    28    1
    21    31    25    1
    22    12     9    1
    23    23    24    1
    24     8     1    1
    25     9    11    2
    26     9    10    1
    27    28    26    2
    28    25    24    2
    29    25    26    1
    30     2     1    2
    31    26    27    1
    32     1     3    1
    33     1     4    1
