@<TRIPOS>MOLECULE
4eah_ATP_D_1.pdb
 31 33 0 0 0
SMALL
GASTEIGER

@<TRIPOS>ATOM
      1  PG       -48.2240  -26.0940  -69.8920 P.3   402  ATP402      0.5373
      2  O1G      -47.6590  -27.3660  -69.2940 O.3   402  ATP402     -0.1143
      3  O2G      -49.6510  -26.2380  -70.3740 O.2   402  ATP402     -0.2221
      4  O3G      -48.0330  -24.8730  -69.0400 O.3   402  ATP402     -0.1143
      5  PB       -47.4550  -26.3600  -72.7060 P.3   402  ATP402      0.2277
      6  O1B      -47.8090  -25.2300  -73.6380 O.2   402  ATP402     -0.5168
      7  O2B      -46.1510  -27.0480  -72.9380 O.3   402  ATP402     -0.4368
      8  O3B      -47.3440  -25.7300  -71.2090 O.3   402  ATP402     -0.2258
      9  PA       -49.9470  -27.6780  -73.4920 P.3   402  ATP402      0.2189
     10  O1A      -51.0690  -27.8800  -72.4990 O.3   402  ATP402     -0.4371
     11  O2A      -50.0070  -26.4690  -74.3830 O.2   402  ATP402     -0.5170
     12  O3A      -48.5530  -27.5730  -72.6680 O.3   402  ATP402     -0.2700
     13  O5'      -49.8990  -28.8720  -74.5350 O.3   402  ATP402     -0.3112
     14  C5'      -49.3500  -28.6270  -75.8200 C.3   402  ATP402      0.1813
     15  C4'      -49.2300  -29.9480  -76.5630 C.3   402  ATP402      0.1821
     16  O4'      -50.3950  -30.7130  -76.3170 O.3   402  ATP402     -0.3135
     17  C3'      -49.1240  -29.8190  -78.0750 C.3   402  ATP402      0.2184
     18  O3'      -47.8030  -30.1690  -78.4840 O.3   402  ATP402     -0.2174
     19  C2'      -50.1190  -30.8010  -78.6630 C.3   402  ATP402      0.2570
     20  O2'      -49.4920  -31.7230  -79.5610 O.3   402  ATP402     -0.2130
     21  C1'      -50.6210  -31.5480  -77.4460 C.3   402  ATP402      0.3186
     22  N9       -52.0490  -31.9230  -77.5300 N.pl3 402  ATP402     -0.1439
     23  C8       -53.1430  -31.1490  -77.4480 C.3   402  ATP402      0.3377
     24  N7       -54.2600  -31.9150  -77.5590 N.2   402  ATP402     -0.2095
     25  C5       -53.8720  -33.1990  -77.7130 C.2   402  ATP402      0.2526
     26  C6       -54.4990  -34.5320  -77.8970 C.2   402  ATP402      0.4393
     27  N6       -55.8350  -34.7310  -77.9450 N.pl3 402  ATP402      0.2180
     28  N1       -53.6860  -35.5910  -78.0220 N.2   402  ATP402      0.0021
     29  C2       -52.3530  -35.4790  -77.9850 C.3   402  ATP402      0.5254
     30  N3       -51.7150  -34.3190  -77.8210 N.2   402  ATP402     -0.0055
     31  C4       -52.4150  -33.1760  -77.6990 C.2   402  ATP402      0.3518
@<TRIPOS>BOND
     1    20    19    1
     2    19    17    1
     3    19    21    1
     4    18    17    1
     5    17    15    1
     6    28    29    1
     7    28    26    2
     8    29    30    1
     9    27    26    1
    10    26    25    1
    11    30    31    2
    12    25    31    1
    13    25    24    2
    14    31    22    1
    15    24    23    1
    16    22    23    1
    17    22    21    1
    18    21    16    1
    19    15    16    1
    20    15    14    1
    21    14    13    1
    22    13     9    1
    23    11     9    2
    24     6     5    2
    25     9    12    1
    26     9    10    1
    27     7     5    1
    28     5    12    1
    29     5     8    1
    30     8     1    1
    31     3     1    2
    32     1     2    1
    33     1     4    1
