@<TRIPOS>MOLECULE
4eai_AMP_C_1.pdb
 23 25 0 0 0
SMALL
GASTEIGER

@<TRIPOS>ATOM
      1  P        -26.3650    5.4950  -12.6830 P.3   401  AMP401      0.5327
      2  O1P      -27.0310    4.6010  -13.7050 O.2   401  AMP401     -0.2224
      3  O2P      -25.9860    4.8060  -11.3910 O.3   401  AMP401     -0.1145
      4  O3P      -25.2720    6.3550  -13.2670 O.3   401  AMP401     -0.1145
      5  O5'      -27.5160    6.5420  -12.2430 O.3   401  AMP401     -0.2675
      6  C5'      -27.8500    7.6610  -13.0700 C.3   401  AMP401      0.1860
      7  C4'      -29.2820    8.1080  -12.7850 C.3   401  AMP401      0.1823
      8  O4'      -30.2020    7.2360  -13.4460 O.3   401  AMP401     -0.3135
      9  C3'      -29.6160    8.0760  -11.3010 C.3   401  AMP401      0.2184
     10  O3'      -30.3590    9.2520  -10.9750 O.3   401  AMP401     -0.2174
     11  C2'      -30.5030    6.8610  -11.1300 C.3   401  AMP401      0.2570
     12  O2'      -31.5180    7.0570  -10.1390 O.3   401  AMP401     -0.2130
     13  C1'      -31.1040    6.6440  -12.5070 C.3   401  AMP401      0.3186
     14  N9       -31.2000    5.1910  -12.7600 N.pl3 401  AMP401     -0.1439
     15  C8       -30.1770    4.3220  -12.6830 C.3   401  AMP401      0.3377
     16  N7       -30.5890    3.0630  -12.9680 N.2   401  AMP401     -0.2095
     17  C5       -31.9080    3.1180  -13.2340 C.2   401  AMP401      0.2526
     18  C6       -32.9630    2.1460  -13.6090 C.2   401  AMP401      0.4393
     19  N6       -32.6850    0.8260  -13.7590 N.pl3 401  AMP401      0.2180
     20  N1       -34.2140    2.6250  -13.7960 N.2   401  AMP401      0.0021
     21  C2       -34.5060    3.9320  -13.6510 C.3   401  AMP401      0.5254
     22  N3       -33.5990    4.8660  -13.3150 N.2   401  AMP401     -0.0055
     23  C4       -32.3070    4.5270  -13.0940 C.2   401  AMP401      0.3518
@<TRIPOS>BOND
     1    20    21    1
     2    20    18    2
     3    19    18    1
     4     2     1    2
     5    21    22    1
     6    18    17    1
     7     8     7    1
     8     8    13    1
     9    22    23    2
    10     4     1    1
    11    17    23    1
    12    17    16    2
    13    23    14    1
    14     6     7    1
    15     6     5    1
    16    16    15    1
    17     7     9    1
    18    14    15    1
    19    14    13    1
    20     1     5    1
    21     1     3    1
    22    13    11    1
    23     9    11    1
    24     9    10    1
    25    11    12    1
