@<TRIPOS>MOLECULE
4eaj_ATP_C_1.pdb
 31 33 0 0 0
SMALL
GASTEIGER

@<TRIPOS>ATOM
      1  PG       -21.8410    5.7310  -14.8520 P.3   401  ATP401      0.5373
      2  O1G      -20.5710    6.1050  -15.5670 O.2   401  ATP401     -0.2221
      3  O2G      -21.6960    5.5500  -13.3660 O.3   401  ATP401     -0.1143
      4  O3G      -22.5890    4.6070  -15.5090 O.3   401  ATP401     -0.1143
      5  PB       -23.8940    7.4500  -13.8940 P.3   401  ATP401      0.2277
      6  O1B      -24.0460    8.9340  -14.0320 O.2   401  ATP401     -0.5168
      7  O2B      -23.4770    6.9120  -12.5730 O.3   401  ATP401     -0.4368
      8  O3B      -22.8320    6.9950  -15.0140 O.3   401  ATP401     -0.2258
      9  PA       -26.1080    5.8150  -13.2870 P.3   401  ATP401      0.2189
     10  O1A      -26.6450    4.6460  -14.0650 O.2   401  ATP401     -0.5170
     11  O2A      -25.2800    5.5550  -12.0660 O.3   401  ATP401     -0.4371
     12  O3A      -25.2920    6.7710  -14.2970 O.3   401  ATP401     -0.2700
     13  O5'      -27.3460    6.7180  -12.8050 O.3   401  ATP401     -0.3112
     14  C5'      -27.9270    7.6880  -13.6790 C.3   401  ATP401      0.1813
     15  C4'      -29.3180    8.0470  -13.1710 C.3   401  ATP401      0.1821
     16  O4'      -30.2710    7.1810  -13.7840 O.3   401  ATP401     -0.3135
     17  C3'      -29.4100    7.8640  -11.6670 C.3   401  ATP401      0.2184
     18  O3'      -29.9050    9.0570  -11.0560 O.3   401  ATP401     -0.2174
     19  C2'      -30.3790    6.7200  -11.4660 C.3   401  ATP401      0.2570
     20  O2'      -31.3350    7.0100  -10.4460 O.3   401  ATP401     -0.2130
     21  C1'      -31.0560    6.5050  -12.8080 C.3   401  ATP401      0.3186
     22  N9       -31.0630    5.0490  -13.0820 N.pl3 401  ATP401     -0.1439
     23  C8       -29.9760    4.2610  -13.0620 C.3   401  ATP401      0.3377
     24  N7       -30.3120    2.9840  -13.3380 N.2   401  ATP401     -0.2095
     25  C5       -31.6400    2.9290  -13.5350 C.2   401  ATP401      0.2526
     26  C6       -32.6360    1.8820  -13.8590 C.2   401  ATP401      0.4393
     27  N6       -32.2670    0.5880  -14.0380 N.pl3 401  ATP401      0.2180
     28  N1       -33.9280    2.2640  -13.9720 N.2   401  ATP401      0.0021
     29  C2       -34.3180    3.5360  -13.8060 C.3   401  ATP401      0.5254
     30  N3       -33.4650    4.5290  -13.5100 N.2   401  ATP401     -0.0055
     31  C4       -32.1360    4.2970  -13.3590 C.2   401  ATP401      0.3518
@<TRIPOS>BOND
     1     2     1    2
     2     4     1    1
     3     8     1    1
     4     8     5    1
     5     1     3    1
     6    12     5    1
     7    12     9    1
     8    10     9    2
     9    27    26    1
    10     6     5    2
    11    28    26    2
    12    28    29    1
    13     5     7    1
    14    26    25    1
    15    29    30    1
    16    16    15    1
    17    16    21    1
    18    14    15    1
    19    14    13    1
    20    25    31    1
    21    25    24    2
    22    30    31    2
    23    31    22    1
    24    24    23    1
    25     9    13    1
    26     9    11    1
    27    15    17    1
    28    22    23    1
    29    22    21    1
    30    21    19    1
    31    17    19    1
    32    17    18    1
    33    19    20    1
