@<TRIPOS>MOLECULE
4eaj_AMP_C_1.pdb
 23 25 0 0 0
SMALL
GASTEIGER

@<TRIPOS>ATOM
      1  P        -22.0000   -2.3430  -10.5240 P.3   403  AMP403      0.5327
      2  O1P      -20.9870   -1.9260  -11.5540 O.2   403  AMP403     -0.2224
      3  O2P      -23.4290   -2.1050  -10.9230 O.3   403  AMP403     -0.1145
      4  O3P      -21.6780   -1.9460   -9.1090 O.3   403  AMP403     -0.1145
      5  O5'      -21.9250   -3.9450  -10.4920 O.3   403  AMP403     -0.2675
      6  C5'      -20.8580   -4.6940   -9.9060 C.3   403  AMP403      0.1860
      7  C4'      -21.3760   -6.0920   -9.5840 C.3   403  AMP403      0.1823
      8  O4'      -22.2930   -5.9870   -8.4980 O.3   403  AMP403     -0.3135
      9  C3'      -22.1440   -6.6850  -10.7500 C.3   403  AMP403      0.2184
     10  O3'      -21.8670   -8.0810  -10.8240 O.3   403  AMP403     -0.2174
     11  C2'      -23.5950   -6.4950  -10.3890 C.3   403  AMP403      0.2570
     12  O2'      -24.3920   -7.5630  -10.8860 O.3   403  AMP403     -0.2130
     13  C1'      -23.5800   -6.4770   -8.8720 C.3   403  AMP403      0.3186
     14  N9       -24.6670   -5.6450   -8.2860 N.pl3 403  AMP403     -0.1439
     15  C8       -25.0440   -4.4080   -8.6550 C.3   403  AMP403      0.3377
     16  N7       -26.0780   -3.9710   -7.8940 N.2   403  AMP403     -0.2095
     17  C5       -26.3890   -4.9340   -7.0120 C.2   403  AMP403      0.2526
     18  C6       -27.3710   -5.1250   -5.9200 C.2   403  AMP403      0.4393
     19  N6       -28.2780   -4.1690   -5.5960 N.pl3 403  AMP403      0.2180
     20  N1       -27.3280   -6.3020   -5.2580 N.2   403  AMP403      0.0021
     21  C2       -26.4450   -7.2680   -5.5570 C.3   403  AMP403      0.5254
     22  N3       -25.5290   -7.1580   -6.5280 N.2   403  AMP403     -0.0055
     23  C4       -25.4550   -6.0370   -7.2810 C.2   403  AMP403      0.3518
@<TRIPOS>BOND
     1     2     1    2
     2     3     1    1
     3    12    11    1
     4    10     9    1
     5     9    11    1
     6     9     7    1
     7     1     5    1
     8     1     4    1
     9     5     6    1
    10    11    13    1
    11     6     7    1
    12     7     8    1
    13    13     8    1
    14    13    14    1
    15    15    14    1
    16    15    16    1
    17    14    23    1
    18    16    17    2
    19    23    17    1
    20    23    22    2
    21    17    18    1
    22    22    21    1
    23    18    19    1
    24    18    20    2
    25    21    20    1
