@<TRIPOS>MOLECULE
4eak_ATP_C_1.pdb
 31 33 0 0 0
SMALL
GASTEIGER

@<TRIPOS>ATOM
      1  PG        -8.9360  399.3260  -25.6520 P.3   401  ATP401      0.5373
      2  O1G       -8.1430  399.2470  -26.8730 O.2   401  ATP401     -0.2221
      3  O2G      -10.3720  399.1350  -25.8150 O.3   401  ATP401     -0.1143
      4  O3G       -8.3070  398.5920  -24.5470 O.3   401  ATP401     -0.1143
      5  PB        -9.9620  401.8490  -25.5510 P.3   401  ATP401      0.2277
      6  O1B      -10.9390  401.3160  -26.4970 O.2   401  ATP401     -0.5168
      7  O2B       -9.3080  403.1160  -25.7930 O.3   401  ATP401     -0.4368
      8  O3B       -8.8500  400.8110  -25.2060 O.3   401  ATP401     -0.2258
      9  PA       -10.1620  402.2590  -22.7130 P.3   401  ATP401      0.2189
     10  O1A       -9.0480  401.4070  -22.4170 O.2   401  ATP401     -0.5170
     11  O2A      -11.3090  402.1330  -21.8460 O.3   401  ATP401     -0.4371
     12  O3A      -10.7060  401.9910  -24.1660 O.3   401  ATP401     -0.2700
     13  O5'       -9.7190  403.7500  -22.7810 O.3   401  ATP401     -0.3112
     14  C5'      -10.5880  404.8360  -22.5580 C.3   401  ATP401      0.1813
     15  C4'       -9.8650  405.9770  -21.8620 C.3   401  ATP401      0.1821
     16  O4'       -9.7450  405.6800  -20.5010 O.3   401  ATP401     -0.3135
     17  C3'       -8.4790  406.2190  -22.3680 C.3   401  ATP401      0.2184
     18  O3'       -8.2590  407.5920  -22.5720 O.3   401  ATP401     -0.2174
     19  C2'       -7.5810  405.7860  -21.2590 C.3   401  ATP401      0.2570
     20  O2'       -6.5380  406.7090  -21.1210 O.3   401  ATP401     -0.2130
     21  C1'       -8.4320  405.8310  -20.0490 C.3   401  ATP401      0.3186
     22  N9        -8.1410  404.6680  -19.2180 N.pl3 401  ATP401     -0.1439
     23  C8        -8.1410  403.4250  -19.6260 C.3   401  ATP401      0.3377
     24  N7        -7.8520  402.6050  -18.6380 N.2   401  ATP401     -0.2095
     25  C5        -7.6460  403.3370  -17.5590 C.2   401  ATP401      0.2526
     26  C6        -7.3000  403.1040  -16.1620 C.2   401  ATP401      0.4393
     27  N6        -7.0980  401.8890  -15.6560 N.pl3 401  ATP401      0.2180
     28  N1        -7.1980  404.1600  -15.3960 N.2   401  ATP401      0.0021
     29  C2        -7.3920  405.3880  -15.8180 C.3   401  ATP401      0.5254
     30  N3        -7.7040  405.6720  -17.0560 N.2   401  ATP401     -0.0055
     31  C4        -7.8460  404.7020  -17.9520 C.2   401  ATP401      0.3518
@<TRIPOS>BOND
     1     2     1    2
     2     6     5    2
     3     3     1    1
     4     7     5    1
     5     1     8    1
     6     1     4    1
     7     5     8    1
     8     5    12    1
     9    12     9    1
    10    13     9    1
    11    13    14    1
    12     9    10    2
    13     9    11    1
    14    18    17    1
    15    14    15    1
    16    17    15    1
    17    17    19    1
    18    15    16    1
    19    19    20    1
    20    19    21    1
    21    16    21    1
    22    21    22    1
    23    23    22    1
    24    23    24    1
    25    22    31    1
    26    24    25    2
    27    31    25    1
    28    31    30    2
    29    25    26    1
    30    30    29    1
    31    26    27    1
    32    26    28    2
    33    29    28    1
