@<TRIPOS>MOLECULE
4eal_AMP_C_1.pdb
 23 25 0 0 0
SMALL
GASTEIGER

@<TRIPOS>ATOM
      1  P        -10.1790  402.9540  -22.8350 P.3   401  AMP401      0.5327
      2  O1P      -10.1110  403.0570  -24.3400 O.2   401  AMP401     -0.2224
      3  O2P       -9.1680  402.0170  -22.2220 O.3   401  AMP401     -0.1145
      4  O3P      -11.5660  402.8320  -22.2530 O.3   401  AMP401     -0.1145
      5  O5'       -9.7110  404.4000  -22.3220 O.3   401  AMP401     -0.2675
      6  C5'      -10.5900  405.5180  -22.3980 C.3   401  AMP401      0.1860
      7  C4'       -9.9290  406.6510  -21.6320 C.3   401  AMP401      0.1823
      8  O4'       -9.7870  406.2650  -20.2650 O.3   401  AMP401     -0.3135
      9  C3'       -8.5360  406.9140  -22.1810 C.3   401  AMP401      0.2184
     10  O3'       -8.3770  408.3230  -22.3670 O.3   401  AMP401     -0.2174
     11  C2'       -7.5810  406.4070  -21.1190 C.3   401  AMP401      0.2570
     12  O2'       -6.4630  407.2850  -20.9580 O.3   401  AMP401     -0.2130
     13  C1'       -8.4220  406.3520  -19.8560 C.3   401  AMP401      0.3186
     14  N9        -8.0960  405.1530  -19.0540 N.pl3 401  AMP401     -0.1439
     15  C8        -8.1610  403.8800  -19.4820 C.3   401  AMP401      0.3377
     16  N7        -7.8010  403.0150  -18.5040 N.2   401  AMP401     -0.2095
     17  C5        -7.4950  403.7470  -17.4170 C.2   401  AMP401      0.2526
     18  C6        -7.0400  403.4690  -16.0390 C.2   401  AMP401      0.4393
     19  N6        -6.8350  402.1960  -15.6230 N.pl3 401  AMP401      0.2180
     20  N1        -6.8360  404.5240  -15.2180 N.2   401  AMP401      0.0021
     21  C2        -7.0380  405.7900  -15.6270 C.3   401  AMP401      0.5254
     22  N3        -7.4500  406.1170  -16.8620 N.2   401  AMP401     -0.0055
     23  C4        -7.6880  405.1570  -17.7850 C.2   401  AMP401      0.3518
@<TRIPOS>BOND
     1     2     1    2
     2     1     5    1
     3     1     4    1
     4     1     3    1
     5     6     5    1
     6     6     7    1
     7    10     9    1
     8     9     7    1
     9     9    11    1
    10     7     8    1
    11    11    12    1
    12    11    13    1
    13     8    13    1
    14    13    14    1
    15    15    14    1
    16    15    16    1
    17    14    23    1
    18    16    17    2
    19    23    17    1
    20    23    22    2
    21    17    18    1
    22    22    21    1
    23    18    19    1
    24    18    20    2
    25    21    20    1
