@<TRIPOS>MOLECULE
4eaq_ATM_A_1.pdb
 23 24 0 0 0
SMALL
GASTEIGER

@<TRIPOS>ATOM
      1  P          4.5150    2.9200   31.9560 P.3   301  ATM301      0.5327
      2  OP1        3.4580    1.9100   31.5140 O.3   301  ATM301     -0.1145
      3  OP2        4.0490    4.3350   32.2680 O.3   301  ATM301     -0.1145
      4  OP3        5.7680    2.8540   31.1160 O.2   301  ATM301     -0.2224
      5  O5'        4.9350    2.4160   33.4460 O.3   301  ATM301     -0.2676
      6  C5'        6.0850    2.8950   34.1400 C.3   301  ATM301      0.1852
      7  C4'        7.0720    1.7490   34.3740 C.3   301  ATM301      0.1714
      8  O4'        6.9750    1.1930   35.6930 O.3   301  ATM301     -0.3345
      9  C3'        6.9560    0.5630   33.4140 C.3   301  ATM301      0.1604
     10  N3'        7.9330    0.7200   32.3350 N.2   301  ATM301     -0.1554
     11  N4'        8.2130    1.8440   31.8710 N.2   301  ATM301     -0.0397
     12  N5'        9.0790    1.9660   30.9120 N.pl3 301  ATM301      0.0145
     13  C2'        7.2970   -0.6840   34.2270 C.3   301  ATM301      0.0808
     14  C1'        7.3290   -0.2030   35.6720 C.3   301  ATM301      0.2084
     15  N1         6.4180   -0.9950   36.5280 N.am  301  ATM301     -0.1794
     16  C2         6.9850   -2.1080   37.2050 C.1   301  ATM301      0.2844
     17  O2         8.2040   -2.3230   37.0250 O.2   301  ATM301     -0.1918
     18  N3         6.2420   -2.8880   38.0440 N.2   301  ATM301     -0.2455
     19  C4         4.9250   -2.6330   38.2410 C.1   301  ATM301      0.2134
     20  O4         4.2000   -3.2930   39.0150 O.2   301  ATM301     -0.2088
     21  C5         4.3060   -1.5010   37.5570 C.2   301  ATM301      0.0891
     22  C5A        2.8400   -1.2320   37.8230 C.3   301  ATM301      0.0462
     23  C6         5.1040   -0.6910   36.7250 C.2   301  ATM301      0.0877
@<TRIPOS>BOND
     1    12    11    1
     2     4     1    2
     3     2     1    1
     4    11    10    2
     5     1     3    1
     6     1     5    1
     7    10     9    1
     8     9    13    1
     9     9     7    1
    10     5     6    1
    11     6     7    1
    12    13    14    1
    13     7     8    1
    14    14     8    1
    15    14    15    1
    16    15    23    1
    17    15    16   am
    18    23    21    2
    19    17    16    2
    20    16    18    2
    21    21    22    1
    22    21    19    1
    23    18    19    2
    24    19    20    2
