@<TRIPOS>MOLECULE
4ear_IM5_A_1.pdb
 20 22 0 0 0
SMALL
GASTEIGER

@<TRIPOS>ATOM
      1  N1       -19.8460   26.4910  -47.3730 N.2   301  IM5301     -0.2486
      2  C2       -18.9290   27.1450  -46.5310 C.1   301  IM5301      0.2519
      3  N2       -18.4760   26.4840  -45.4810 N.pl3 301  IM5301     -0.0226
      4  N3       -18.6000   28.4440  -46.7570 N.2   301  IM5301     -0.3232
      5  C4       -19.1600   29.1090  -47.8200 C.2   301  IM5301      0.1736
      6  C5       -20.0320   28.4690  -48.6590 C.2   301  IM5301      0.2065
      7  C6       -20.3920   27.1680  -48.4520 C.1   301  IM5301      0.2362
      8  O6       -21.1760   26.5190  -49.1820 O.2   301  IM5301     -0.2069
      9  N7       -20.3890   29.3620  -49.6030 N.2   301  IM5301     -0.2292
     10  C8       -19.7760   30.5280  -49.3530 C.2   301  IM5301      0.0995
     11  C9       -18.9870   30.3680  -48.2820 C.2   301  IM5301      0.0458
     12  N1'      -16.6800   31.5010  -48.0870 N.3   301  IM5301     -0.2665
     13  C10      -18.1220   31.4520  -47.6210 C.3   301  IM5301      0.1035
     14  C2'      -15.9090   30.3670  -47.6320 C.3   301  IM5301      0.1057
     15  C3'      -14.5440   30.7200  -48.3060 C.3   301  IM5301      0.1717
     16  O3'      -13.8130   31.7610  -47.6080 O.3   301  IM5301     -0.2215
     17  C4'      -14.9880   31.1760  -49.7040 C.3   301  IM5301      0.0807
     18  C5'      -14.8610   30.0210  -50.6510 C.3   301  IM5301      0.1860
     19  O5'      -15.5840   30.3640  -51.8460 O.3   301  IM5301     -0.2203
     20  C6'      -16.5110   31.5640  -49.5310 C.3   301  IM5301      0.0776
@<TRIPOS>BOND
     1    19    18    1
     2    18    17    1
     3    17    20    1
     4    17    15    1
     5     9    10    1
     6     9     6    2
     7    20    12    1
     8    10    11    2
     9     8     7    2
    10     6     7    1
    11     6     5    1
    12     7     1    2
    13    15    14    1
    14    15    16    1
    15    11     5    1
    16    11    13    1
    17    12    14    1
    18    12    13    1
    19     5     4    2
    20     1     2    2
    21     4     2    2
    22     2     3    1
