@<TRIPOS>MOLECULE
4eax_S12_B_1.pdb
 27 26 0 0 0
SMALL
GASTEIGER

@<TRIPOS>ATOM
      1  C         37.1180   27.7440    2.9480 C.2   201  S12201      0.3844
      2  N         37.2870   28.2680    5.2980 N.3   201  S12201     -0.1181
      3  P         38.6720   24.7610    6.6210 P.3   201  S12201      0.2141
      4  OG        38.1520   26.0550    5.8060 O.3   201  S12201     -0.3119
      5  C2        39.5470   24.9380    9.1850 C.3   201  S12201      0.1857
      6  O2        39.4020   25.5000    7.8730 O.3   201  S12201     -0.3112
      7  C3        39.1370   25.9680   10.2480 C.3   201  S12201      0.2252
      8  O3        39.6690   24.0300    5.7560 O.2   201  S12201     -0.5172
      9  C4        39.8020   25.7210   11.6180 C.3   201  S12201      0.2437
     10  O4        37.4230   24.0680    7.1100 O.3   201  S12201     -0.4373
     11  C5        39.9890   26.8760   13.9120 C.2   201  S12201      0.3215
     12  C6        39.2430   26.8200   15.2440 C.3   201  S12201      0.1352
     13  C7        40.3410   26.9950   16.2750 C.2   201  S12201     -0.0188
     14  C8        40.2880   27.2280   17.5900 C.2   201  S12201     -0.0254
     15  C9        39.1330   27.3760   18.5670 C.3   201  S12201      0.0514
     16  CA        38.0250   27.7750    4.1490 C.3   201  S12201      0.2241
     17  CB        38.5380   26.3700    4.4670 C.3   201  S12201      0.1796
     18  C10       39.7190   28.2130   19.7070 C.2   201  S12201     -0.0250
     19  C11       39.1680   28.4260   20.9130 C.2   201  S12201     -0.0164
     20  O11       37.7050   25.9060   10.3750 O.3   201  S12201     -0.2164
     21  C12       37.8920   27.7230   21.2160 C.3   201  S12201      0.1026
     22  C13       37.0760   28.3270   21.9620 C.1   201  S12201     -0.0731
     23  C14       36.2040   28.8950   22.6780 C.1   201  S12201     -0.0138
     24  O51       41.1890   27.1400   13.9680 O.2   201  S12201     -0.2497
     25  O52       39.3540   26.6870   12.5910 O.3   201  S12201     -0.4454
     26  O         37.4340   28.4060    1.9230 O.co2 201  S12201     -0.2440
     27  OXT       36.0690   27.0490    3.0190 O.co2 201  S12201     -0.2440
@<TRIPOS>BOND
     1    26     1   ar
     2     1    27   ar
     3     1    16    1
     4    16    17    1
     5    16     2    1
     6    17     4    1
     7     8     3    2
     8     4     3    1
     9     3    10    1
    10     3     6    1
    11     6     5    1
    12     5     7    1
    13     7    20    1
    14     7     9    1
    15     9    25    1
    16    25    11    1
    17    11    24    2
    18    11    12    1
    19    12    13    1
    20    13    14    2
    21    14    15    1
    22    15    18    1
    23    18    19    2
    24    19    21    1
    25    21    22    1
    26    22    23    3
