@<TRIPOS>MOLECULE
4eb3_0O3_A_1.pdb
 15 14 0 0 0
SMALL
GASTEIGER

@<TRIPOS>ATOM
      1  O20      -24.8090    0.8660  -16.1210 O.3   402  0O3402     -0.1143
      2  P17      -26.0370    0.7730  -16.9300 P.3   402  0O3402      0.5373
      3  O19      -25.7780    0.8750  -18.4630 O.2   402  0O3402     -0.2221
      4  O18      -26.9990    1.9450  -16.5660 O.3   402  0O3402     -0.1143
      5  O16      -26.8760   -0.5240  -16.7350 O.3   402  0O3402     -0.2261
      6  P13      -26.4180   -2.1090  -16.5790 P.3   402  0O3402      0.2230
      7  O15      -24.8730   -2.4420  -16.8940 O.3   402  0O3402     -0.4370
      8  O14      -27.5370   -2.9210  -17.2930 O.2   402  0O3402     -0.5169
      9  O29      -26.5730   -2.6390  -15.0460 O.3   402  0O3402     -0.3138
     10  C28      -26.7510   -1.9680  -13.8300 C.3   402  0O3402      0.1492
     11  C27      -27.7400   -0.8420  -14.1870 C.3   402  0O3402      0.0351
     12  C30      -29.1370   -1.3150  -14.3030 C.3   402  0O3402      0.0355
     13  C1       -29.3170   -2.6580  -14.5860 C.3   402  0O3402      0.0028
     14  C13      -30.1120   -0.1680  -13.9630 C.3   402  0O3402      0.1821
     15  O3       -29.3060    0.8910  -13.1260 O.3   402  0O3402     -0.2204
@<TRIPOS>BOND
     1     3     2    2
     2     8     6    2
     3     2     5    1
     4     2     4    1
     5     2     1    1
     6     7     6    1
     7     5     6    1
     8     6     9    1
     9     9    10    1
    10    13    12    1
    11    12    11    1
    12    12    14    1
    13    11    10    1
    14    14    15    1
