@<TRIPOS>MOLECULE
4eb4_UMP_A_1.pdb
 20 21 0 0 0
SMALL
GASTEIGER

@<TRIPOS>ATOM
      1  N1        29.4000   21.1580   33.0990 N.am  401  UMP401     -0.1790
      2  C2        30.1160   20.2600   33.8710 C.1   401  UMP401      0.2844
      3  N3        29.4390   19.1410   34.3800 N.2   401  UMP401     -0.2452
      4  C4        28.0580   19.0010   34.2690 C.1   401  UMP401      0.2182
      5  C5        27.3350   19.9340   33.5690 C.2   401  UMP401      0.1242
      6  C6        28.0230   20.9970   32.9650 C.2   401  UMP401      0.0928
      7  O2        31.3780   20.3830   34.1290 O.2   401  UMP401     -0.1918
      8  O4        27.5970   18.0800   34.9180 O.2   401  UMP401     -0.2085
      9  C1'       30.0750   22.4160   32.7150 C.3   401  UMP401      0.2090
     10  C2'       30.9670   22.4650   31.5450 C.3   401  UMP401      0.0874
     11  C3'       30.7890   23.9050   31.0840 C.3   401  UMP401      0.1857
     12  C4'       29.3430   24.1650   31.4210 C.3   401  UMP401      0.1774
     13  O3'       31.6010   24.7400   31.9010 O.3   401  UMP401     -0.2203
     14  O4'       29.0150   23.3650   32.5950 O.3   401  UMP401     -0.3339
     15  C5'       28.4350   23.8000   30.2550 C.3   401  UMP401      0.1858
     16  O5'       28.6420   24.7450   29.2520 O.3   401  UMP401     -0.2675
     17  P         28.7470   24.3800   27.6880 P.3   401  UMP401      0.5327
     18  OP1       28.9250   25.7520   27.0080 O.2   401  UMP401     -0.2224
     19  OP2       29.9440   23.4550   27.5820 O.3   401  UMP401     -0.1145
     20  OP3       27.4640   23.7000   27.2250 O.3   401  UMP401     -0.1145
@<TRIPOS>BOND
     1    18    17    2
     2    20    17    1
     3    19    17    1
     4    17    16    1
     5    16    15    1
     6    15    12    1
     7    11    12    1
     8    11    10    1
     9    11    13    1
    10    12    14    1
    11    10     9    1
    12    14     9    1
    13     9     1    1
    14     6     1    1
    15     6     5    2
    16     1     2   am
    17     5     4    1
    18     2     7    2
    19     2     3    2
    20     4     3    2
    21     4     8    2
