@<TRIPOS>MOLECULE
4eb4_D16_A_1.pdb
 32 34 0 0 0
SMALL
GASTEIGER

@<TRIPOS>ATOM
      1  N1        27.5050   25.0980   34.5730 N.2   402  D16402     -0.3460
      2  C2        28.8170   25.3740   34.7130 C.1   402  D16402      0.1266
      3  CM2       29.3890   26.5970   34.0470 C.3   402  D16402      0.1438
      4  N3        29.6480   24.5470   35.4250 N.2   402  D16402     -0.2706
      5  C4        29.2140   23.4750   36.0320 C.1   402  D16402      0.2162
      6  O4        29.9880   22.7040   36.5800 O.2   402  D16402     -0.2085
      7  C4A       27.7880   23.1340   35.9490 C.2   402  D16402      0.1216
      8  C5        27.2960   22.0270   36.6320 C.2   402  D16402      0.0121
      9  C6        25.9040   21.8120   36.5570 C.2   402  D16402     -0.0054
     10  C7        25.1130   22.6750   35.8150 C.2   402  D16402     -0.0212
     11  C8        25.5920   23.7630   35.0980 C.3   402  D16402      0.0864
     12  C8A       26.9460   24.0510   35.2030 C.2   402  D16402      0.1373
     13  C9        25.3500   20.5870   37.3090 C.3   402  D16402      0.1178
     14  N10       26.1610   20.0520   38.4010 N.pl3 402  D16402     -0.2969
     15  C11       27.4350   21.5830   41.6470 C.ar  402  D16402      0.0856
     16  S13       27.5270   20.0890   40.7340 S.2   402  D16402     -0.0677
     17  C14       26.5630   20.7930   39.5220 C.ar  402  D16402      0.0787
     18  C15       26.1930   22.0870   39.7890 C.ar  402  D16402      0.0219
     19  C16       26.6730   22.4970   40.9950 C.ar  402  D16402      0.0129
     20  C         28.1210   21.5550   43.0200 C.2   402  D16402      0.2713
     21  O         28.9140   20.6570   43.3910 O.2   402  D16402     -0.2678
     22  N         27.7950   22.5390   43.8760 N.am  402  D16402     -0.1914
     23  CA        28.3450   22.7230   45.2250 C.3   402  D16402      0.1986
     24  CB        29.4980   23.7260   45.1600 C.3   402  D16402      0.0451
     25  CG        28.9880   25.1130   44.7270 C.3   402  D16402      0.1164
     26  CD        30.0920   26.1600   44.5630 C.2   402  D16402      0.3649
     27  OE1       31.2840   25.8570   44.8070 O.co2 402  D16402     -0.2457
     28  OE2       29.7220   27.2910   44.1160 O.co2 402  D16402     -0.2457
     29  CT        27.2640   23.1390   46.1990 C.2   402  D16402      0.3842
     30  O1        26.1490   23.5760   45.7930 O.co2 402  D16402     -0.2437
     31  O2        27.4920   22.9680   47.4130 O.co2 402  D16402     -0.2437
     32  CP1       26.5960   18.6300   38.3810 C.3   402  D16402      0.1129
@<TRIPOS>BOND
     1     3     2    1
     2     1     2    2
     3     1    12    2
     4     2     4    2
     5    11    12    1
     6    11    10    1
     7    12     7    1
     8     4     5    2
     9    10     9    2
    10     7     5    1
    11     7     8    2
    12     5     6    2
    13     9     8    1
    14     9    13    1
    15    13    14    1
    16    32    14    1
    17    14    17    1
    18    17    18   ar
    19    17    16   ar
    20    18    19   ar
    21    16    15   ar
    22    19    15   ar
    23    15    20    1
    24    20    21    2
    25    20    22   am
    26    22    23    1
    27    28    26   ar
    28    26    25    1
    29    26    27   ar
    30    25    24    1
    31    24    23    1
    32    23    29    1
    33    30    29   ar
    34    29    31   ar
