@<TRIPOS>MOLECULE
4eb5_PLP_A_1.pdb
 16 16 0 0 0
SMALL
GASTEIGER

@<TRIPOS>ATOM
      1  N1        -2.3660   12.2870   -1.9990 N.ar  401  PLP401     -0.2452
      2  C2        -2.3970   11.2390   -1.1400 C.ar  401  PLP401      0.0982
      3  C2A       -2.8630   11.4730    0.2870 C.3   401  PLP401      0.0555
      4  C3        -2.0290    9.9550   -1.5940 C.ar  401  PLP401      0.2120
      5  O3        -2.0600    8.8870   -0.7490 O.3   401  PLP401     -0.2852
      6  C4        -1.6340    9.7940   -2.9160 C.ar  401  PLP401      0.0822
      7  C4A       -1.2300    8.4660   -3.3930 C.2   401  PLP401      0.2372
      8  O4A       -1.9720    7.5280   -3.2210 O.2   401  PLP401     -0.2830
      9  C5        -1.6030   10.9020   -3.7680 C.ar  401  PLP401      0.0333
     10  C6        -1.9850   12.1480   -3.2780 C.ar  401  PLP401      0.0969
     11  C5A       -1.2070   10.8070   -5.2360 C.3   401  PLP401      0.1819
     12  O4P       -2.2080   10.1030   -6.0140 O.3   401  PLP401     -0.2653
     13  P         -1.8660    9.5120   -7.4770 P.3   401  PLP401      0.5329
     14  O1P       -1.7610   10.7540   -8.3230 O.2   401  PLP401     -0.2224
     15  O2P       -3.0080    8.6640   -7.9150 O.3   401  PLP401     -0.1145
     16  O3P       -0.5390    8.7910   -7.3630 O.3   401  PLP401     -0.1145
@<TRIPOS>BOND
     1    14    13    2
     2    15    13    1
     3    13    16    1
     4    13    12    1
     5    12    11    1
     6    11     9    1
     7     9    10   ar
     8     9     6   ar
     9     7     8    2
    10     7     6    1
    11    10     1   ar
    12     6     4   ar
    13     1     2   ar
    14     4     2   ar
    15     4     5    1
    16     2     3    1
