@<TRIPOS>MOLECULE
4eb6_GDP_B_1.pdb
 28 30 0 0 0
SMALL
GASTEIGER

@<TRIPOS>ATOM
      1  PB         0.0840   86.3100   91.7780 P.3   501  GDP501      0.5373
      2  O1B       -0.0500   84.8840   91.3600 O.3   501  GDP501     -0.1143
      3  O2B        0.9390   87.1840   90.7210 O.2   501  GDP501     -0.2221
      4  O3B       -1.3480   87.0290   91.8860 O.3   501  GDP501     -0.1143
      5  O3A        0.7150   86.4490   93.2760 O.3   501  GDP501     -0.2261
      6  PA         2.0440   85.5750   93.5880 P.3   501  GDP501      0.2231
      7  O1A        3.1160   86.5310   93.9730 O.3   501  GDP501     -0.4370
      8  O2A        2.5200   84.7730   92.2650 O.2   501  GDP501     -0.5169
      9  O5'        1.7280   84.5200   94.7970 O.3   501  GDP501     -0.3111
     10  C5'        2.0680   84.9920   96.1160 C.3   501  GDP501      0.1813
     11  C4'        2.3900   83.7800   97.0120 C.3   501  GDP501      0.1799
     12  O4'        3.4870   83.0390   96.4400 O.3   501  GDP501     -0.3326
     13  C3'        2.8590   84.1680   98.4420 C.3   501  GDP501      0.2158
     14  O3'        2.6430   83.0900   99.3640 O.3   501  GDP501     -0.2175
     15  C2'        4.3690   84.4210   98.2410 C.3   501  GDP501      0.2310
     16  O2'        5.1610   84.0560   99.3790 O.3   501  GDP501     -0.2158
     17  C1'        4.7190   83.4570   97.1020 C.3   501  GDP501      0.2293
     18  N9         5.7000   83.9420   96.1240 N.pl3 501  GDP501     -0.2354
     19  C8         5.6220   85.0470   95.3310 C.3   501  GDP501      0.2246
     20  N7         6.6670   85.1210   94.5520 N.2   501  GDP501     -0.2322
     21  C5         7.4820   84.0740   94.7990 C.2   501  GDP501      0.2182
     22  C6         8.7190   83.5980   94.2470 C.1   501  GDP501      0.2372
     23  O6         9.2930   84.2180   93.3640 O.2   501  GDP501     -0.2069
     24  N1         9.2460   82.4350   94.7580 N.2   501  GDP501     -0.2485
     25  C2         8.5940   81.7270   95.7530 C.1   501  GDP501      0.2531
     26  N2         9.1370   80.5780   96.2520 N.pl3 501  GDP501     -0.0226
     27  N3         7.4370   82.1510   96.2500 N.2   501  GDP501     -0.3074
     28  C4         6.8560   83.3020   95.8120 C.2   501  GDP501      0.2300
@<TRIPOS>BOND
     1     3     1    2
     2     2     1    1
     3     1     4    1
     4     1     5    1
     5     8     6    2
     6     5     6    1
     7    23    22    2
     8     6     7    1
     9     6     9    1
    10    22    24    2
    11    22    21    1
    12    20    21    2
    13    20    19    1
    14    24    25    2
    15     9    10    1
    16    21    28    1
    17    19    18    1
    18    25    27    2
    19    25    26    1
    20    28    18    1
    21    28    27    2
    22    10    11    1
    23    18    17    1
    24    12    11    1
    25    12    17    1
    26    11    13    1
    27    17    15    1
    28    15    13    1
    29    15    16    1
    30    13    14    1
