@<TRIPOS>MOLECULE
4eb6_GTP_A_1.pdb
 32 34 0 0 0
SMALL
GASTEIGER

@<TRIPOS>ATOM
      1  PG         4.4840   50.2970   76.2650 P.3   501  GTP501      0.5373
      2  O1G        3.6840   50.7780   75.1340 O.2   501  GTP501     -0.2221
      3  O2G        5.8860   51.0620   76.2810 O.3   501  GTP501     -0.1143
      4  O3G        3.6810   50.6840   77.5820 O.3   501  GTP501     -0.1143
      5  O3B        4.6100   48.6710   76.1720 O.3   501  GTP501     -0.2258
      6  PB         6.1140   48.0850   76.0220 P.3   501  GTP501      0.2277
      7  O1B        6.8270   48.8280   74.9800 O.2   501  GTP501     -0.5168
      8  O2B        6.0310   46.5730   75.5110 O.3   501  GTP501     -0.4368
      9  O3A        6.8620   48.1320   77.4590 O.3   501  GTP501     -0.2700
     10  PA         8.1410   47.1440   77.6770 P.3   501  GTP501      0.2189
     11  O1A        8.4170   46.2330   76.5510 O.2   501  GTP501     -0.5170
     12  O2A        9.4190   48.1220   77.8050 O.3   501  GTP501     -0.4371
     13  O5'        7.9280   46.1920   78.9990 O.3   501  GTP501     -0.3112
     14  C5'        8.8510   46.4400   80.0970 C.3   501  GTP501      0.1813
     15  C4'        9.3100   45.1260   80.7950 C.3   501  GTP501      0.1799
     16  O4'       10.0900   44.3460   79.8730 O.3   501  GTP501     -0.3326
     17  C3'       10.2850   45.3400   81.9920 C.3   501  GTP501      0.2158
     18  O3'       10.4890   44.1080   82.7290 O.3   501  GTP501     -0.2175
     19  C2'       11.5690   45.7100   81.2180 C.3   501  GTP501      0.2310
     20  O2'       12.7630   45.6130   81.9980 O.3   501  GTP501     -0.2158
     21  C1'       11.4960   44.6460   80.1100 C.3   501  GTP501      0.2293
     22  N9        12.1490   45.0290   78.8740 N.pl3 501  GTP501     -0.2354
     23  C8        11.9030   46.1090   78.0880 C.3   501  GTP501      0.2246
     24  N7        12.6780   46.0710   77.0450 N.2   501  GTP501     -0.2322
     25  C5        13.4590   44.9630   77.0980 C.2   501  GTP501      0.2182
     26  C6        14.4650   44.3680   76.2560 C.1   501  GTP501      0.2372
     27  O6        14.8360   44.8850   75.2270 O.2   501  GTP501     -0.2069
     28  N1        15.0340   43.1950   76.6670 N.2   501  GTP501     -0.2485
     29  C2        14.6450   42.5740   77.8440 C.1   501  GTP501      0.2531
     30  N2        15.2320   41.3830   78.2100 N.pl3 501  GTP501     -0.0226
     31  N3        13.7050   43.1130   78.6230 N.2   501  GTP501     -0.3074
     32  C4        13.0900   44.2710   78.2750 C.2   501  GTP501      0.2300
@<TRIPOS>BOND
     1     7     6    2
     2     2     1    2
     3    27    26    2
     4     8     6    1
     5     6     5    1
     6     6     9    1
     7     5     1    1
     8    26    28    2
     9    26    25    1
    10     1     3    1
    11     1     4    1
    12    11    10    2
    13    28    29    2
    14    24    25    2
    15    24    23    1
    16    25    32    1
    17     9    10    1
    18    10    12    1
    19    10    13    1
    20    29    30    1
    21    29    31    2
    22    23    22    1
    23    32    31    2
    24    32    22    1
    25    22    21    1
    26    13    14    1
    27    16    21    1
    28    16    15    1
    29    14    15    1
    30    21    19    1
    31    15    17    1
    32    19    17    1
    33    19    20    1
    34    17    18    1
