@<TRIPOS>MOLECULE
4eb7_PLP_A_1.pdb
 16 16 0 0 0
SMALL
GASTEIGER

@<TRIPOS>ATOM
      1  N1        -2.3970   12.4920   -2.1390 N.ar  401  PLP401     -0.2452
      2  C2        -2.3870   11.4460   -1.2830 C.ar  401  PLP401      0.0982
      3  C2A       -2.6860   11.7070    0.1830 C.3   401  PLP401      0.0555
      4  C3        -2.1010   10.1700   -1.7650 C.ar  401  PLP401      0.2120
      5  O3        -2.0920    9.0910   -0.9220 O.3   401  PLP401     -0.2852
      6  C4        -1.8360   10.0000   -3.1150 C.ar  401  PLP401      0.0822
      7  C4A       -1.5710    8.6270   -3.6230 C.2   401  PLP401      0.2372
      8  O4A       -2.5310    8.0030   -4.1060 O.2   401  PLP401     -0.2830
      9  C5        -1.8760   11.1020   -3.9640 C.ar  401  PLP401      0.0333
     10  C6        -2.1330   12.3490   -3.4250 C.ar  401  PLP401      0.0969
     11  C5A       -1.5850   11.0830   -5.4440 C.3   401  PLP401      0.1819
     12  O4P       -2.1040    9.9800   -6.1430 O.3   401  PLP401     -0.2653
     13  P         -1.7690    9.7650   -7.7300 P.3   401  PLP401      0.5329
     14  O1P       -2.9250    8.8860   -8.1610 O.3   401  PLP401     -0.1145
     15  O2P       -1.7570   11.1050   -8.4570 O.2   401  PLP401     -0.2224
     16  O3P       -0.4070    9.1050   -7.6950 O.3   401  PLP401     -0.1145
@<TRIPOS>BOND
     1    15    13    2
     2    14    13    1
     3    13    16    1
     4    13    12    1
     5    12    11    1
     6    11     9    1
     7     8     7    2
     8     9    10   ar
     9     9     6   ar
    10     7     6    1
    11    10     1   ar
    12     6     4   ar
    13     1     2   ar
    14     4     2   ar
    15     4     5    1
    16     2     3    1
