@<TRIPOS>MOLECULE
4eb8_IM5_A_1.pdb
 20 22 0 0 0
SMALL
GASTEIGER

@<TRIPOS>ATOM
      1  N1        21.3350  -28.0980  -19.7440 N.2   302  IM5302     -0.2486
      2  C2        20.0980  -27.4370  -19.6710 C.1   302  IM5302      0.2519
      3  N2        19.5280  -27.0360  -20.8070 N.pl3 302  IM5302     -0.0226
      4  N3        19.5300  -27.2040  -18.4670 N.2   302  IM5302     -0.3232
      5  C4        20.1420  -27.6050  -17.3260 C.2   302  IM5302      0.1736
      6  C5        21.3350  -28.2470  -17.3700 C.2   302  IM5302      0.2065
      7  C6        21.9330  -28.5150  -18.5530 C.1   302  IM5302      0.2362
      8  O6        22.9960  -29.1400  -18.6290 O.2   302  IM5302     -0.2069
      9  N7        21.6950  -28.5270  -16.1050 N.2   302  IM5302     -0.2292
     10  C8        20.7560  -28.0550  -15.2760 C.2   302  IM5302      0.0995
     11  C9        19.8040  -27.5090  -16.0300 C.2   302  IM5302      0.0458
     12  N1'       17.3040  -27.5940  -15.3400 N.3   302  IM5302     -0.2665
     13  C10       18.5470  -26.8030  -15.4550 C.3   302  IM5302      0.1035
     14  C2'       16.7520  -27.9580  -16.6580 C.3   302  IM5302      0.1057
     15  C3'       15.6740  -28.9730  -16.2950 C.3   302  IM5302      0.1717
     16  O3'       14.4690  -28.3100  -15.8870 O.3   302  IM5302     -0.2215
     17  C4'       16.2450  -29.7210  -15.1080 C.3   302  IM5302      0.0807
     18  C5'       16.6840  -31.0830  -15.5950 C.3   302  IM5302      0.1860
     19  O5'       17.5320  -31.6610  -14.6030 O.3   302  IM5302     -0.2203
     20  C6'       17.4800  -28.8810  -14.6350 C.3   302  IM5302      0.0776
@<TRIPOS>BOND
     1     3     2    1
     2     1     2    2
     3     1     7    2
     4     2     4    2
     5     8     7    2
     6     7     6    1
     7     4     5    2
     8     6     5    1
     9     6     9    2
    10     5    11    1
    11    14    15    1
    12    14    12    1
    13    15    16    1
    14    15    17    1
    15     9    10    1
    16    11    13    1
    17    11    10    2
    18    18    17    1
    19    18    19    1
    20    13    12    1
    21    12    20    1
    22    17    20    1
