@<TRIPOS>MOLECULE
4ebc_0OH_A_1.pdb
 31 34 0 0 0
SMALL
GASTEIGER

@<TRIPOS>ATOM
      1  OAF       97.4660  -17.6740  217.4920 O.3   501  0OH501     -0.1143
      2  PBC       95.9780  -17.6730  217.7350 P.3   501  0OH501      0.5373
      3  OAG       95.3820  -18.6400  216.7440 O.2   501  0OH501     -0.2221
      4  OAB       95.3940  -16.3120  217.4090 O.3   501  0OH501     -0.1143
      5  OAS       95.6600  -17.9610  219.2470 O.3   501  0OH501     -0.2258
      6  PBE       95.7770  -19.3610  219.9550 P.3   501  0OH501      0.2277
      7  OAI       94.5690  -19.4540  220.8360 O.3   501  0OH501     -0.4368
      8  OAD       97.0350  -19.4880  220.7860 O.2   501  0OH501     -0.5168
      9  OAT       95.8080  -20.4430  218.8080 O.3   501  0OH501     -0.2700
     10  PBD       95.3650  -21.9490  218.9020 P.3   501  0OH501      0.2188
     11  OAH       96.4310  -22.8350  218.3020 O.3   501  0OH501     -0.4371
     12  OAC       94.0850  -22.1720  218.1190 O.2   501  0OH501     -0.5170
     13  OAR       95.2260  -22.2720  220.4240 O.3   501  0OH501     -0.3138
     14  CAL       94.0210  -22.5310  221.0680 C.3   501  0OH501      0.1516
     15  CBB       94.2010  -22.6240  222.5590 C.3   501  0OH501      0.0599
     16  CAZ       94.1540  -24.0480  223.0840 C.3   501  0OH501      0.0478
     17  CAN       93.0330  -23.0760  223.4030 C.3   501  0OH501      0.0092
     18  CAX       95.3960  -21.9370  223.1820 C.3   501  0OH501      0.1583
     19  OAE       95.0400  -20.7450  223.7430 O.3   501  0OH501     -0.2229
     20  CAM       95.9930  -22.8910  224.1490 C.3   501  0OH501      0.0795
     21  CAY       95.4170  -24.2270  223.8900 C.3   501  0OH501      0.1646
     22  N9        96.3320  -25.1220  223.1810 N.pl3 501  0OH501     -0.1716
     23  C8        96.6370  -25.1220  221.8620 C.3   501  0OH501      0.3357
     24  N7        97.5130  -26.1120  221.6010 N.2   501  0OH501     -0.2096
     25  C5        97.7890  -26.7710  222.7550 C.2   501  0OH501      0.2525
     26  C4        97.0330  -26.1320  223.7570 C.2   501  0OH501      0.3499
     27  N3        97.0900  -26.5430  225.0470 N.2   501  0OH501     -0.0055
     28  C2        97.8760  -27.5740  225.3960 C.3   501  0OH501      0.5254
     29  N1        98.6080  -28.2100  224.4670 N.2   501  0OH501      0.0021
     30  C6        98.6040  -27.8530  223.1660 C.2   501  0OH501      0.4393
     31  N6        99.4340  -28.5870  222.2430 N.pl3 501  0OH501      0.2180
@<TRIPOS>BOND
     1     3     2    2
     2     4     2    1
     3     1     2    1
     4     2     5    1
     5    12    10    2
     6    11    10    1
     7     9    10    1
     8     9     6    1
     9    10    13    1
    10     5     6    1
    11     6     8    2
    12     6     7    1
    13    13    14    1
    14    14    15    1
    15    24    23    1
    16    24    25    2
    17    23    22    1
    18    31    30    1
    19    15    16    1
    20    15    18    1
    21    15    17    1
    22    25    30    1
    23    25    26    1
    24    16    17    1
    25    16    21    1
    26    30    29    2
    27    22    26    1
    28    22    21    1
    29    18    19    1
    30    18    20    1
    31    26    27    2
    32    21    20    1
    33    29    28    1
    34    27    28    1
