@<TRIPOS>MOLECULE
4ebd_0OJ_A_1.pdb
 45 48 0 0 0
SMALL
GASTEIGER

@<TRIPOS>ATOM
      1  OAF        2.9400   17.9100   13.7800 O.3   501  0OJ501     -0.1143
      2  PBC        1.5200   17.8110   14.2400 P.3   501  0OJ501      0.5373
      3  OAG        1.1420   16.3570   13.9840 O.3   501  0OJ501     -0.1143
      4  OAB        0.7140   18.7960   13.3970 O.2   501  0OJ501     -0.2221
      5  OAS        1.3570   18.1000   15.8010 O.3   501  0OJ501     -0.2258
      6  PBE        1.9780   19.3750   16.5040 P.3   501  0OJ501      0.2277
      7  OAI        3.3960   19.1060   16.9190 O.2   501  0OJ501     -0.5168
      8  OAD        1.1670   19.7480   17.7180 O.3   501  0OJ501     -0.4368
      9  OAT        1.8840   20.4760   15.3880 O.3   501  0OJ501     -0.2700
     10  PBD        2.0460   22.0210   15.6310 P.3   501  0OJ501      0.2181
     11  OAH        1.1740   22.7420   14.6100 O.2   501  0OJ501     -0.5170
     12  OAC        3.4940   22.3660   15.3640 O.3   501  0OJ501     -0.4371
     13  OAR        1.6050   22.4070   17.1140 O.3   501  0OJ501     -0.3269
     14  CAL        2.5830   22.8190   18.0460 C.3   501  0OJ501      0.0604
     15  CAY        2.1640   23.1610   19.3850 C.3   501  0OJ501      0.0138
     16  CAZ        2.2260   24.6860   19.5830 C.3   501  0OJ501     -0.0098
     17  CAN        1.7530   25.4270   20.8140 C.3   501  0OJ501     -0.0254
     18  CAX        0.7360   22.7710   19.6190 C.3   501  0OJ501      0.0624
     19  OAE        0.5800   22.3930   20.8980 O.3   501  0OJ501     -0.3914
     20  CAM       -0.0750   23.9880   19.3400 C.3   501  0OJ501     -0.0042
     21  CBB        0.7880   25.1480   19.6900 C.3   501  0OJ501      0.0497
     22  N9         0.0670   26.3410   19.2540 N.pl3 501  0OJ501     -0.2465
     23  C8        -0.3900   27.2680   20.1120 C.2   501  0OJ501      0.1435
     24  N7        -1.0110   28.2280   19.4040 N.2   501  0OJ501     -0.3872
     25  C5        -0.9580   27.9100   18.0920 C.2   501  0OJ501      0.2211
     26  C4        -0.2700   26.7020   17.9890 C.2   501  0OJ501      0.2338
     27  N3        -0.0770   26.1360   16.7780 N.2   501  0OJ501     -0.3288
     28  C2        -0.5360   26.7320   15.6660 C.1   501  0OJ501      0.0930
     29  N1        -1.2020   27.8970   15.7120 N.2   501  0OJ501     -0.3296
     30  C6        -1.4220   28.4920   16.9030 C.2   501  0OJ501      0.2227
     31  N6        -2.1420   29.7410   16.9590 N.pl3 501  0OJ501     -0.3300
     32  H5         3.2480   22.1080   18.1120 H     501  0OJ501      0.0568
     33  H6         3.0240   23.6030   17.6740 H     501  0OJ501      0.0568
     34  H7         2.7300   22.7190   20.0310 H     501  0OJ501      0.0351
     35  H8         2.7110   25.2090   18.9220 H     501  0OJ501      0.0326
     36  H9         2.0390   26.3500   20.8990 H     501  0OJ501      0.0290
     37  H10        1.6560   24.8760   21.6060 H     501  0OJ501      0.0290
     38  H11        0.4810   22.0520   19.0210 H     501  0OJ501      0.0597
     39  H12        0.1160   21.6400   20.9290 H     501  0OJ501      0.2098
     40  H13       -0.8850   23.9930   19.8810 H     501  0OJ501      0.0311
     41  H14       -0.3020   24.0170   18.3950 H     501  0OJ501      0.0311
     42  H15       -0.2790   27.2540   21.0720 H     501  0OJ501      0.1149
     43  H16       -0.3800   26.3120   14.8070 H     501  0OJ501      0.1751
     44  H17       -2.2470   30.1700   17.7550 H     501  0OJ501      0.1448
     45  H18       -2.4920   30.0990   16.2010 H     501  0OJ501      0.1448
@<TRIPOS>BOND
     1     4     2    2
     2     1     2    1
     3     3     2    1
     4     2     5    1
     5    11    10    2
     6    43    28    1
     7    12    10    1
     8     9    10    1
     9     9     6    1
    10    10    13    1
    11    28    29    2
    12    28    27    2
    13    29    30    2
    14     5     6    1
    15    45    31    1
    16     6     7    2
    17     6     8    1
    18    27    26    2
    19    30    31    1
    20    30    25    1
    21    31    44    1
    22    13    14    1
    23    33    14    1
    24    26    25    1
    25    26    22    1
    26    14    32    1
    27    14    15    1
    28    25    24    2
    29    41    20    1
    30    35    16    1
    31    38    18    1
    32    22    21    1
    33    22    23    1
    34    20    18    1
    35    20    21    1
    36    20    40    1
    37    15    16    1
    38    15    18    1
    39    15    34    1
    40    24    23    2
    41    16    21    1
    42    16    17    1
    43    18    19    1
    44    21    17    1
    45    23    42    1
    46    17    36    1
    47    17    37    1
    48    19    39    1
