@<TRIPOS>MOLECULE
4ebe_DTP_A_1.pdb
 30 32 0 0 0
SMALL
GASTEIGER

@<TRIPOS>ATOM
      1  PG        47.0770   67.1620  216.2210 P.3   501  DTP501      0.5373
      2  O1G       48.3070   66.9010  215.3130 O.2   501  DTP501     -0.2221
      3  O2G       45.9140   66.2580  215.7740 O.3   501  DTP501     -0.1143
      4  O3G       46.6570   68.6330  216.1110 O.3   501  DTP501     -0.1143
      5  PB        46.8090   65.5880  218.4250 P.3   501  DTP501      0.2277
      6  O1B       45.4370   65.9260  218.8710 O.2   501  DTP501     -0.5168
      7  O2B       47.6250   65.2090  219.5930 O.3   501  DTP501     -0.4368
      8  O3B       47.4480   66.8280  217.7240 O.3   501  DTP501     -0.2258
      9  PA        47.2090   62.9470  217.8580 P.3   501  DTP501      0.2189
     10  O1A       47.8270   62.1980  216.6480 O.2   501  DTP501     -0.5170
     11  O2A       46.0410   62.1930  218.3540 O.3   501  DTP501     -0.4371
     12  O3A       46.7460   64.3770  217.4040 O.3   501  DTP501     -0.2700
     13  O5'       48.3280   63.0930  219.0260 O.3   501  DTP501     -0.3112
     14  C5'       48.5810   62.0540  219.9150 C.3   501  DTP501      0.1813
     15  C4'       47.4750   61.2640  220.3240 C.3   501  DTP501      0.1795
     16  O4'       47.6560   59.8870  219.8270 O.3   501  DTP501     -0.3155
     17  C3'       47.3690   61.1730  221.7810 C.3   501  DTP501      0.1883
     18  O3'       46.0340   61.2560  222.1940 O.3   501  DTP501     -0.2202
     19  C2'       47.9060   59.8500  222.1280 C.3   501  DTP501      0.1151
     20  C1'       47.6820   59.0180  220.9160 C.3   501  DTP501      0.2873
     21  N9        48.6810   57.9680  220.7440 N.pl3 501  DTP501     -0.1460
     22  C8        49.2960   57.2780  221.7330 C.3   501  DTP501      0.3377
     23  N7        50.1500   56.3920  221.1930 N.2   501  DTP501     -0.2095
     24  C5        50.0850   56.5140  219.8410 C.2   501  DTP501      0.2526
     25  C6        50.7300   55.8710  218.7890 C.2   501  DTP501      0.4393
     26  N6        51.6940   54.8390  219.0660 N.pl3 501  DTP501      0.2180
     27  N1        50.4520   56.2150  217.5150 N.2   501  DTP501      0.0021
     28  C2        49.5490   57.1810  217.2870 C.3   501  DTP501      0.5254
     29  N3        48.9000   57.8310  218.2650 N.2   501  DTP501     -0.0055
     30  C4        49.1530   57.5130  219.5520 C.2   501  DTP501      0.3518
@<TRIPOS>BOND
     1     2     1    2
     2     3     1    1
     3     4     1    1
     4     1     8    1
     5    10     9    2
     6    28    27    1
     7    28    29    1
     8    12     9    1
     9    12     5    1
    10    27    25    2
    11     8     5    1
    12     9    11    1
    13     9    13    1
    14    29    30    2
    15     5     6    2
    16     5     7    1
    17    25    26    1
    18    25    24    1
    19    13    14    1
    20    30    24    1
    21    30    21    1
    22    16    15    1
    23    16    20    1
    24    24    23    2
    25    14    15    1
    26    15    17    1
    27    21    20    1
    28    21    22    1
    29    20    19    1
    30    23    22    1
    31    17    19    1
    32    17    18    1
