@<TRIPOS>MOLECULE
4ebf_NAD_A_1.pdb
 44 48 0 0 0
SMALL
GASTEIGER

@<TRIPOS>ATOM
      1  PA       -11.1010    3.9030   99.7430 P.3   800  NAD800      0.2189
      2  O1A      -12.2550    3.7820   98.7810 O.2   800  NAD800     -0.5170
      3  O2A       -9.6930    4.0220   99.2600 O.3   800  NAD800     -0.4371
      4  O5B      -11.3710    5.1720  100.6660 O.3   800  NAD800     -0.3112
      5  C5B      -10.3700    5.6210  101.5900 C.3   800  NAD800      0.1813
      6  C4B      -10.7750    7.0150  102.0510 C.3   800  NAD800      0.1821
      7  O4B      -10.0510    7.4200  103.2230 O.3   800  NAD800     -0.3135
      8  C3B      -10.5230    8.0670  100.9680 C.3   800  NAD800      0.2184
      9  O3B      -11.7300    8.8140  100.7880 O.3   800  NAD800     -0.2174
     10  C2B       -9.4450    8.9710  101.5400 C.3   800  NAD800      0.2570
     11  O2B       -9.5920   10.3420  101.1180 O.3   800  NAD800     -0.2130
     12  C1B       -9.6040    8.7790  103.0500 C.3   800  NAD800      0.3186
     13  N9A       -8.3670    9.1230  103.8320 N.pl3 800  NAD800     -0.1439
     14  C8A       -7.0930    8.7450  103.5890 C.3   800  NAD800      0.3377
     15  N7A       -6.2640    9.2840  104.5270 N.2   800  NAD800     -0.2095
     16  C5A       -7.0320   10.0070  105.3630 C.2   800  NAD800      0.2526
     17  C6A       -6.7550   10.7630  106.4910 C.2   800  NAD800      0.4393
     18  N6A       -5.4750   10.8700  106.9230 N.pl3 800  NAD800      0.2180
     19  N1A       -7.7630   11.3940  107.1400 N.2   800  NAD800      0.0021
     20  C2A       -9.0310   11.2870  106.7030 C.3   800  NAD800      0.5254
     21  N3A       -9.3230   10.5530  105.6020 N.2   800  NAD800     -0.0055
     22  C4A       -8.3470    9.9040  104.9200 C.2   800  NAD800      0.3518
     23  O3       -11.1190    2.6000  100.6820 O.3   800  NAD800     -0.2703
     24  PN       -12.4640    1.8540  101.1540 P.3   800  NAD800      0.2189
     25  O1N      -12.8040    0.7270  100.2060 O.2   800  NAD800     -0.5170
     26  O2N      -13.5260    2.8720  101.5650 O.3   800  NAD800     -0.4371
     27  O5D      -11.8880    1.0290  102.4070 O.3   800  NAD800     -0.3112
     28  C5D      -11.1500    1.6540  103.4530 C.3   800  NAD800      0.1813
     29  C4D      -10.2770    0.5900  104.1080 C.3   800  NAD800      0.1799
     30  O4D      -11.0560   -0.3910  104.8270 O.3   800  NAD800     -0.3327
     31  C3D       -9.4910   -0.1930  103.0610 C.3   800  NAD800      0.2158
     32  O3D       -8.2960    0.4980  102.6930 O.3   800  NAD800     -0.2175
     33  C2D       -9.1660   -1.4580  103.8050 C.3   800  NAD800      0.2309
     34  O2D       -7.9630   -1.1540  104.5560 O.3   800  NAD800     -0.2158
     35  C1D      -10.3680   -1.6350  104.7440 C.3   800  NAD800      0.2263
     36  N1N      -11.3030   -2.6910  104.3580 N.pl3 800  NAD800     -0.2787
     37  C2N      -11.6310   -3.6330  105.2450 C.3   800  NAD800      0.1244
     38  C3N      -12.5270   -4.6460  104.8940 C.2   800  NAD800      0.0544
     39  C7N      -12.9040   -5.6990  105.8900 C.2   800  NAD800      0.2818
     40  O7N      -13.0060   -6.8490  105.5320 O.2   800  NAD800     -0.2670
     41  N7N      -13.1560   -5.3200  107.1400 N.am  800  NAD800     -0.0839
     42  C4N      -13.0890   -4.6830  103.6260 C.2   800  NAD800      0.0033
     43  C5N      -12.7290   -3.7010  102.7160 C.2   800  NAD800      0.0157
     44  C6N      -11.8500   -2.7150  103.1140 C.2   800  NAD800      0.0633
@<TRIPOS>BOND
     1     2     1    2
     2     3     1    1
     3     1     4    1
     4     1    23    1
     5    25    24    2
     6     4     5    1
     7    23    24    1
     8     9     8    1
     9     8    10    1
    10     8     6    1
    11    11    10    1
    12    24    26    1
    13    24    27    1
    14    10    12    1
    15     5     6    1
    16     6     7    1
    17    27    28    1
    18    32    31    1
    19    43    44    2
    20    43    42    1
    21    12     7    1
    22    12    13    1
    23    31    33    1
    24    31    29    1
    25    44    36    1
    26    28    29    1
    27    14    13    1
    28    14    15    1
    29    42    38    2
    30    33    34    1
    31    33    35    1
    32    13    22    1
    33    29    30    1
    34    36    35    1
    35    36    37    1
    36    15    16    2
    37    35    30    1
    38    38    37    1
    39    38    39    1
    40    22    16    1
    41    22    21    2
    42    16    17    1
    43    40    39    2
    44    21    20    1
    45    39    41   am
    46    17    18    1
    47    17    19    2
    48    20    19    1
