@<TRIPOS>MOLECULE
4ebt_NAG_C_1.pdb
 15 15 0 0 0
SMALL
GASTEIGER

@<TRIPOS>ATOM
      1  C1       -24.9100  -33.8580  -21.6090 C.3   201  NAG201      0.2917
      2  C2       -24.7090  -32.4050  -22.0540 C.3   201  NAG201      0.1871
      3  C3       -26.1050  -31.7560  -21.8710 C.3   201  NAG201      0.2095
      4  C4       -26.9900  -32.4870  -22.9150 C.3   201  NAG201      0.2136
      5  C5       -27.1430  -33.9350  -22.4330 C.3   201  NAG201      0.1835
      6  C6       -28.2130  -34.8810  -23.0170 C.3   201  NAG201      0.2142
      7  C7       -23.2440  -30.6590  -20.7070 C.2   201  NAG201      0.2421
      8  C8       -21.7980  -30.5350  -20.5330 C.3   201  NAG201      0.0964
      9  N2       -23.6110  -31.9230  -21.2170 N.am  201  NAG201     -0.1991
     10  O1       -23.6880  -34.5170  -21.6020 O.3   201  NAG201     -0.1879
     11  O3       -26.0950  -30.3560  -22.0910 O.3   201  NAG201     -0.2183
     12  O4       -28.2500  -31.8620  -23.0960 O.3   201  NAG201     -0.2176
     13  O5       -25.8470  -34.5710  -22.4450 O.3   201  NAG201     -0.3242
     14  O6       -28.5420  -35.0260  -24.3990 O.3   201  NAG201     -0.2176
     15  O7       -23.9860  -29.6720  -21.0220 O.2   201  NAG201     -0.2733
@<TRIPOS>BOND
     1    14     6    1
     2    12     4    1
     3     6     5    1
     4     4     5    1
     5     4     3    1
     6    13     5    1
     7    13     1    1
     8    11     3    1
     9     2     3    1
    10     2     1    1
    11     2     9    1
    12     1    10    1
    13     9     7   am
    14    15     7    2
    15     7     8    1
