@<TRIPOS>MOLECULE
4ebu_ADP_A_1.pdb
 27 29 0 0 0
SMALL
GASTEIGER

@<TRIPOS>ATOM
      1  PB        81.5750   64.6800   85.6070 P.3   402  ADP402      0.5373
      2  O1B       80.6520   63.8860   84.7130 O.2   402  ADP402     -0.2221
      3  O2B       81.2600   66.1590   85.6630 O.3   402  ADP402     -0.1143
      4  O3B       83.0310   64.3570   85.3860 O.3   402  ADP402     -0.1143
      5  PA        81.6800   62.7220   87.6630 P.3   402  ADP402      0.2231
      6  O1A       81.3580   61.7300   86.5690 O.2   402  ADP402     -0.5169
      7  O2A       83.0850   62.8130   88.2090 O.3   402  ADP402     -0.4370
      8  O3A       81.2830   64.1890   87.1180 O.3   402  ADP402     -0.2261
      9  O5'       80.6870   62.4880   88.9120 O.3   402  ADP402     -0.3111
     10  C5'       80.4480   63.5390   89.8430 C.3   402  ADP402      0.1813
     11  C4'       79.3120   63.1740   90.7890 C.3   402  ADP402      0.1821
     12  O4'       78.0600   63.3040   90.1090 O.3   402  ADP402     -0.3135
     13  C3'       79.3740   61.7430   91.3070 C.3   402  ADP402      0.2184
     14  O3'       80.0340   61.6620   92.5710 O.3   402  ADP402     -0.2174
     15  C2'       77.9200   61.3900   91.5000 C.3   402  ADP402      0.2570
     16  O2'       77.5300   61.7840   92.8220 O.3   402  ADP402     -0.2130
     17  C1'       77.1890   62.2240   90.4620 C.3   402  ADP402      0.3186
     18  N9        77.0050   61.3310   89.2930 N.pl3 402  ADP402     -0.1439
     19  C8        77.7710   61.3100   88.1840 C.3   402  ADP402      0.3377
     20  N7        77.3420   60.3530   87.3230 N.2   402  ADP402     -0.2095
     21  C5        76.2830   59.7400   87.8800 C.2   402  ADP402      0.2526
     22  C6        75.3610   58.6460   87.4960 C.2   402  ADP402      0.4393
     23  N6        75.4880   58.0000   86.3090 N.pl3 402  ADP402      0.2180
     24  N1        74.3900   58.3190   88.3750 N.2   402  ADP402      0.0021
     25  C2        74.2530   58.9530   89.5570 C.3   402  ADP402      0.5254
     26  N3        75.0510   59.9540   89.9660 N.2   402  ADP402     -0.0055
     27  C4        76.0670   60.3860   89.1820 C.2   402  ADP402      0.3518
@<TRIPOS>BOND
     1     2     1    2
     2     4     1    1
     3     1     3    1
     4     1     8    1
     5    23    22    1
     6     6     5    2
     7     8     5    1
     8    20    21    2
     9    20    19    1
    10    22    21    1
    11    22    24    2
    12     5     7    1
    13     5     9    1
    14    21    27    1
    15    19    18    1
    16    24    25    1
    17     9    10    1
    18    27    18    1
    19    27    26    2
    20    18    17    1
    21    25    26    1
    22    10    11    1
    23    12    17    1
    24    12    11    1
    25    17    15    1
    26    11    13    1
    27    13    15    1
    28    13    14    1
    29    15    16    1
