@<TRIPOS>MOLECULE
4ebv_0O7_A_1.pdb
 24 27 0 0 0
SMALL
GASTEIGER

@<TRIPOS>ATOM
      1  C1        -8.0970    9.4540  -19.3230 C.3   700  0O7700      0.0050
      2  C2        -8.9670    9.6000  -18.0830 C.3   700  0O7700      0.0264
      3  C3        -9.3760    8.2090  -17.6400 C.ar  700  0O7700     -0.0222
      4  C4       -10.3520    7.5220  -18.3540 C.ar  700  0O7700     -0.0043
      5  C5       -10.7710    6.2450  -17.9820 C.ar  700  0O7700     -0.0003
      6  C6       -10.2040    5.6370  -16.8490 C.ar  700  0O7700     -0.0000
      7  C7        -9.2010    6.3470  -16.1420 C.ar  700  0O7700     -0.0003
      8  C8        -8.7830    7.6220  -16.5230 C.ar  700  0O7700     -0.0043
      9  C9       -10.5810    4.2550  -16.3930 C.ar  700  0O7700      0.0001
     10  C10      -10.8130    3.2300  -17.3270 C.ar  700  0O7700      0.0013
     11  C11      -11.1100    1.9260  -16.9370 C.ar  700  0O7700      0.0162
     12  C12      -11.2050    1.5980  -15.5830 C.ar  700  0O7700      0.0704
     13  N13      -11.4870    0.2640  -15.2660 N.pl3 700  0O7700     -0.1887
     14  C14      -11.1960   -0.8170  -16.2160 C.3   700  0O7700      0.1392
     15  S15      -12.1920   -0.1090  -13.8060 S.O2  700  0O7700      0.0797
     16  O16      -13.5780    0.1550  -14.0790 O.2   700  0O7700     -0.1496
     17  O17      -11.7810   -1.4270  -13.3920 O.2   700  0O7700     -0.1496
     18  C18      -11.6040    1.0990  -12.6820 C.ar  700  0O7700      0.1655
     19  C19      -11.5770    1.1150  -11.3510 C.ar  700  0O7700      0.1439
     20  N20      -11.0760    2.3020  -10.9930 N.ar  700  0O7700     -0.1449
     21  N22      -10.7580    3.0430  -12.1300 N.ar  700  0O7700     -0.1464
     22  C23      -11.0890    2.3260  -13.1660 C.ar  700  0O7700      0.1245
     23  C24      -10.9890    2.6250  -14.6150 C.ar  700  0O7700      0.0357
     24  C25      -10.6700    3.9310  -15.0260 C.ar  700  0O7700      0.0029
@<TRIPOS>BOND
     1     1     2    1
     2     4     5   ar
     3     4     3   ar
     4     2     3    1
     5     5     6   ar
     6     3     8   ar
     7    10    11   ar
     8    10     9   ar
     9    11    12   ar
    10     6     9    1
    11     6     7   ar
    12     8     7   ar
    13     9    24   ar
    14    14    13    1
    15    12    13    1
    16    12    23   ar
    17    13    15    1
    18    24    23   ar
    19    23    22    1
    20    16    15    2
    21    15    17    2
    22    15    18    1
    23    22    18   ar
    24    22    21   ar
    25    18    19   ar
    26    21    20   ar
    27    19    20   ar
