@<TRIPOS>MOLECULE
4ebw_0PF_A_1.pdb
 26 29 0 0 0
SMALL
GASTEIGER

@<TRIPOS>ATOM
      1  C1        13.0750    9.1250   18.4220 C.3   700  0PF700      0.0050
      2  C2        11.6670    9.2370   19.0120 C.3   700  0PF700      0.0264
      3  C3        11.1870    7.8880   19.5190 C.ar  700  0PF700     -0.0222
      4  C4        10.2140    7.2080   18.7960 C.ar  700  0PF700     -0.0043
      5  C5         9.7620    5.9820   19.2310 C.ar  700  0PF700     -0.0003
      6  C6        10.2760    5.4250   20.4050 C.ar  700  0PF700     -0.0000
      7  C7        11.2520    6.1090   21.1390 C.ar  700  0PF700     -0.0003
      8  C8        11.7020    7.3330   20.6890 C.ar  700  0PF700     -0.0043
      9  C9         9.7650    4.1100   20.8630 C.ar  700  0PF700      0.0001
     10  C10        9.5110    3.0820   19.9510 C.ar  700  0PF700      0.0013
     11  C11        9.0400    1.8750   20.3950 C.ar  700  0PF700      0.0162
     12  C12        8.7940    1.6500   21.7530 C.ar  700  0PF700      0.0703
     13  N13        8.2900    0.3990   22.1330 N.pl3 700  0PF700     -0.1887
     14  C14        7.4580   -0.4270   21.2410 C.3   700  0PF700      0.1392
     15  S15        8.5970   -0.1750   23.6510 S.O2  700  0PF700      0.0796
     16  O16        7.4440   -0.9190   24.0180 O.2   700  0PF700     -0.1496
     17  O17        9.9230   -0.6860   23.6160 O.2   700  0PF700     -0.1496
     18  C18        8.6480    1.2580   24.6740 C.ar  700  0PF700      0.1633
     19  C19        8.5260    1.3620   26.0310 C.ar  700  0PF700      0.1418
     20  N20        8.6430    2.6320   26.3330 N.ar  700  0PF700     -0.1662
     21  N21        8.8530    3.3930   25.1660 N.ar  700  0PF700     -0.2495
     22  C22        9.0110    4.8620   25.1280 C.3   700  0PF700      0.1276
     23  C23       10.4660    5.2690   25.3700 C.3   700  0PF700      0.0284
     24  C24        8.8370    2.5150   24.1270 C.ar  700  0PF700      0.0995
     25  C25        9.0360    2.6900   22.6690 C.ar  700  0PF700      0.0336
     26  C26        9.5320    3.9070   22.2100 C.ar  700  0PF700      0.0028
@<TRIPOS>BOND
     1     1     2    1
     2     4     5   ar
     3     4     3   ar
     4     2     3    1
     5     5     6   ar
     6     3     8   ar
     7    10    11   ar
     8    10     9   ar
     9    11    12   ar
    10     6     9    1
    11     6     7   ar
    12     8     7   ar
    13     9    26   ar
    14    14    13    1
    15    12    13    1
    16    12    25   ar
    17    13    15    1
    18    26    25   ar
    19    25    24    1
    20    17    15    2
    21    15    16    2
    22    15    18    1
    23    24    18   ar
    24    24    21   ar
    25    18    19   ar
    26    22    21    1
    27    22    23    1
    28    21    20   ar
    29    19    20   ar
