@<TRIPOS>MOLECULE
4ec0_7PQ_A_1.pdb
 29 32 0 0 0
SMALL
GASTEIGER

@<TRIPOS>ATOM
      1  C1        19.6950    0.2230   18.5160 C.ar  203  7PQ203      0.0001
      2  C2        21.0960    0.1340   18.4770 C.ar  203  7PQ203      0.0046
      3  C3        21.8570    1.1100   17.7750 C.ar  203  7PQ203      0.0550
      4  C4        21.1820    2.1640   17.1200 C.ar  203  7PQ203      0.0046
      5  C5        19.7810    2.2550   17.1520 C.ar  203  7PQ203      0.0001
      6  C6        19.0130    1.2890   17.8460 C.ar  203  7PQ203     -0.0003
      7  C7        17.4880    1.3680   17.9130 C.ar  203  7PQ203     -0.0026
      8  C8        23.3520    1.0380   17.7200 C.2   203  7PQ203      0.2648
      9  O9        23.9440    0.0490   18.1510 O.2   203  7PQ203     -0.2684
     10  N10       24.0490    2.0730   17.1750 N.am  203  7PQ203     -0.2002
     11  C11       25.4410    2.3590   17.5410 C.3   203  7PQ203      0.1327
     12  C12       25.9160    3.5810   16.7350 C.3   203  7PQ203      0.0959
     13  N13       27.3240    3.9100   17.0440 N.3   203  7PQ203     -0.2669
     14  C14       27.5390    5.3110   16.5720 C.3   203  7PQ203      0.1047
     15  C15       29.0480    5.6580   16.6200 C.3   203  7PQ203      0.1595
     16  O16       29.7900    4.7350   15.7860 O.3   203  7PQ203     -0.3508
     17  C17       29.6670    3.4090   16.3420 C.3   203  7PQ203      0.1595
     18  C18       28.1910    2.9690   16.2720 C.3   203  7PQ203      0.1047
     19  C19       16.6320    0.3060   17.3550 C.ar  203  7PQ203     -0.0003
     20  C20       15.1700    0.4240   17.4790 C.ar  203  7PQ203     -0.0000
     21  C21       14.5970    1.5560   18.1010 C.ar  203  7PQ203     -0.0003
     22  C22       15.4080    2.5500   18.6040 C.ar  203  7PQ203     -0.0028
     23  C23       16.8310    2.4920   18.5330 C.ar  203  7PQ203     -0.0032
     24  C24       17.1580   -0.8630   16.7010 C.ar  203  7PQ203     -0.0000
     25  C25       16.3040   -1.8350   16.2040 C.ar  203  7PQ203     -0.0000
     26  C26       14.9100   -1.7130   16.3370 C.ar  203  7PQ203     -0.0000
     27  C27       14.3420   -0.6110   16.9560 C.ar  203  7PQ203     -0.0000
     28  C28       17.6450    3.6350   19.1320 C.3   203  7PQ203      0.1356
     29  N29       16.9440    4.2920   20.2120 N.3   203  7PQ203     -0.1262
@<TRIPOS>BOND
     1    16    17    1
     2    16    15    1
     3    25    26   ar
     4    25    24   ar
     5    18    17    1
     6    18    13    1
     7    26    27   ar
     8    14    15    1
     9    14    13    1
    10    24    19   ar
    11    12    13    1
    12    12    11    1
    13    27    20   ar
    14     4     5   ar
    15     4     3   ar
    16     5     6   ar
    17    10    11    1
    18    10     8   am
    19    19    20   ar
    20    19     7   ar
    21    20    21   ar
    22     8     3    1
    23     8     9    2
    24     3     2   ar
    25     6     7    1
    26     6     1   ar
    27     7    23   ar
    28    21    22   ar
    29     2     1   ar
    30    23    22   ar
    31    23    28    1
    32    28    29    1
