@<TRIPOS>MOLECULE
4ec0_GSH_A_1.pdb
 20 19 0 0 0
SMALL
GASTEIGER

@<TRIPOS>ATOM
      1  N1        16.4980   -8.5440   16.6740 N.3   201  GSH201     -0.1208
      2  CA1       17.4790   -8.6260   17.7070 C.3   201  GSH201      0.1948
      3  C1        16.9400   -8.1850   19.0050 C.2   201  GSH201      0.3819
      4  O11       15.9280   -7.2840   18.9200 O.co2 201  GSH201     -0.2441
      5  O12       17.3150   -8.5450   20.1790 O.co2 201  GSH201     -0.2441
      6  CB1       18.7840   -7.9910   17.3160 C.3   201  GSH201      0.0402
      7  CG1       19.8980   -8.0730   18.3520 C.3   201  GSH201      0.0889
      8  CD1       21.0390   -7.2250   17.8560 C.2   201  GSH201      0.2418
      9  OE1       21.3980   -7.2860   16.5380 O.2   201  GSH201     -0.2733
     10  N2        21.7670   -6.5330   18.7360 N.am  201  GSH201     -0.1968
     11  CA2       23.0100   -5.8370   18.4040 C.3   201  GSH201      0.1843
     12  C2        24.1950   -6.7160   18.6450 C.2   201  GSH201      0.2627
     13  O2        24.2460   -7.5310   19.7550 O.2   201  GSH201     -0.2714
     14  CB2       23.1920   -4.6440   19.3400 C.3   201  GSH201      0.0997
     15  SG2       22.0190   -3.3120   19.0240 S.3   201  GSH201     -0.0797
     16  N3        25.1560   -6.6840   17.7460 N.am  201  GSH201     -0.1917
     17  CA3       26.5430   -6.4900   18.1210 C.3   201  GSH201      0.2285
     18  C3        27.3630   -7.5420   17.4270 C.2   201  GSH201      0.3865
     19  O31       26.8120   -8.2910   16.4950 O.co2 201  GSH201     -0.2437
     20  O32       28.7120   -7.7290   17.7720 O.co2 201  GSH201     -0.2437
@<TRIPOS>BOND
     1    19    18   ar
     2     9     8    2
     3     1     2    1
     4     6     2    1
     5     6     7    1
     6    18    20   ar
     7    18    17    1
     8     2     3    1
     9    16    17    1
    10    16    12   am
    11     8     7    1
    12     8    10   am
    13    11    12    1
    14    11    10    1
    15    11    14    1
    16    12    13    2
    17     4     3   ar
    18     3     5   ar
    19    15    14    1
