@<TRIPOS>MOLECULE
4ec3_REN_A_1.pdb
 24 26 0 0 0
SMALL
GASTEIGER

@<TRIPOS>ATOM
      1  C2        30.0210   33.7530   20.5590 C.ar  602  REN602      0.0419
      2  C3        30.7790   32.7930   19.8640 C.ar  602  REN602      0.2290
      3  C5        30.3990   32.3870   18.5950 C.ar  602  REN602      0.1770
      4  C8        29.2710   32.9210   18.0010 C.ar  602  REN602      0.0357
      5  C9        28.5130   33.8690   18.6710 C.ar  602  REN602     -0.0203
      6  C10       27.2780   34.4450   18.0010 C.3   602  REN602      0.0435
      7  C11       26.3000   34.6830   19.0880 C.3   602  REN602      0.0771
      8  N12       26.9070   35.6860   19.9030 N.3   602  REN602     -0.2685
      9  C14       28.0840   35.3160   20.7180 C.3   602  REN602      0.0843
     10  C16       27.7450   34.7000   22.1040 C.3   602  REN602      0.0469
     11  C17       27.4180   35.6390   23.2960 C.ar  602  REN602     -0.0171
     12  C25       28.3730   35.8870   24.2880 C.ar  602  REN602     -0.0009
     13  C24       28.0560   36.7340   25.3510 C.ar  602  REN602      0.0399
     14  C21       26.7790   37.3270   25.4100 C.ar  602  REN602      0.1773
     15  O22       26.4510   38.1560   26.4370 O.3   602  REN602     -0.4682
     16  C23       26.5500   37.7050   27.7550 C.3   602  REN602      0.2526
     17  C19       25.8610   37.0770   24.4400 C.ar  602  REN602      0.2290
     18  O20       24.6140   37.6670   24.5110 O.3   602  REN602     -0.2833
     19  C18       26.1710   36.2330   23.3850 C.ar  602  REN602      0.0410
     20  C1        28.8950   34.2930   19.9740 C.ar  602  REN602     -0.0080
     21  C13       26.0760   36.8820   20.0540 C.3   602  REN602      0.0899
     22  O6        31.1560   31.4410   17.9250 O.3   602  REN602     -0.4682
     23  C7        31.3430   31.5350   16.5220 C.3   602  REN602      0.2526
     24  O4        31.9140   32.2450   20.4430 O.3   602  REN602     -0.2833
@<TRIPOS>BOND
     1    23    22    1
     2    22     3    1
     3     4     3   ar
     4     4     5   ar
     5     6     5    1
     6     6     7    1
     7     3     2   ar
     8     5    20   ar
     9     7     8    1
    10     2    24    1
    11     2     1   ar
    12     8    21    1
    13     8     9    1
    14    20     1   ar
    15    20     9    1
    16     9    10    1
    17    10    11    1
    18    11    19   ar
    19    11    12   ar
    20    19    17   ar
    21    12    13   ar
    22    17    18    1
    23    17    14   ar
    24    13    14   ar
    25    14    15    1
    26    15    16    1
