@<TRIPOS>MOLECULE
4ece_GUN_A_1.pdb
 11 12 0 0 0
SMALL
GASTEIGER

@<TRIPOS>ATOM
      1  N9         5.9700  -31.4880   -5.6910 N.2   301  GUN301     -0.1802
      2  C8         7.3140  -31.8070   -5.7020 C.3   301  GUN301      0.2633
      3  N7         7.8070  -31.9710   -4.4380 N.2   301  GUN301     -0.2212
      4  C5         6.7780  -31.7260   -3.5990 C.2   301  GUN301      0.2482
      5  C6         6.6380  -31.7710   -2.1400 C.1   301  GUN301      0.2442
      6  O6         7.6400  -32.0570   -1.4400 O.2   301  GUN301     -0.2063
      7  N1         5.4340  -31.4480   -1.6030 N.2   301  GUN301     -0.2474
      8  C2         4.3730  -31.1650   -2.3830 C.1   301  GUN301      0.2608
      9  N2         3.2440  -30.8940   -1.7020 N.pl3 301  GUN301     -0.0220
     10  N3         4.4100  -31.1310   -3.7540 N.2   301  GUN301     -0.2682
     11  C4         5.5790  -31.3990   -4.3970 C.1   301  GUN301      0.1289
@<TRIPOS>BOND
     1     2     1    1
     2     2     3    1
     3     1    11    2
     4     3     4    2
     5    11    10    2
     6    11     4    1
     7    10     8    2
     8     4     5    1
     9     8     9    1
    10     8     7    2
    11     5     7    2
    12     5     6    2
