@<TRIPOS>MOLECULE
4ecj_GSH_A_1.pdb
 20 19 0 0 0
SMALL
GASTEIGER

@<TRIPOS>ATOM
      1  N1        11.5360  -27.1590   -7.1710 N.3   301  GSH301     -0.1208
      2  CA1       12.0780  -28.1130   -6.1490 C.3   301  GSH301      0.1948
      3  C1        11.5140  -29.5000   -6.3120 C.2   301  GSH301      0.3819
      4  O11       12.1850  -30.5340   -6.0170 O.co2 301  GSH301     -0.2441
      5  O12       10.3470  -29.5490   -6.7370 O.co2 301  GSH301     -0.2441
      6  CB1       11.6640  -27.5840   -4.7830 C.3   301  GSH301      0.0402
      7  CG1       12.1860  -28.4310   -3.6280 C.3   301  GSH301      0.0889
      8  CD1       11.7760  -27.7820   -2.3140 C.2   301  GSH301      0.2418
      9  OE1       11.5680  -26.5660   -2.2280 O.2   301  GSH301     -0.2733
     10  N2        11.6600  -28.6260   -1.2840 N.am  301  GSH301     -0.1968
     11  CA2       11.4730  -28.1690    0.0940 C.3   301  GSH301      0.1843
     12  C2        12.7080  -28.2800    0.9350 C.2   301  GSH301      0.2627
     13  O2        13.4780  -29.2160    0.8310 O.2   301  GSH301     -0.2714
     14  CB2       10.3750  -28.9770    0.7720 C.3   301  GSH301      0.0997
     15  SG2        8.8480  -29.0210   -0.1960 S.3   301  GSH301     -0.0797
     16  N3        12.9160  -27.3150    1.8210 N.am  301  GSH301     -0.1917
     17  CA3       13.9410  -27.4780    2.8330 C.3   301  GSH301      0.2285
     18  C3        14.8980  -26.3230    2.7600 C.2   301  GSH301      0.3865
     19  O31       15.9070  -26.3280    3.5070 O.co2 301  GSH301     -0.2437
     20  O32       14.6160  -25.4130    1.9420 O.co2 301  GSH301     -0.2437
@<TRIPOS>BOND
     1     1     2    1
     2     5     3   ar
     3     3     2    1
     4     3     4   ar
     5     2     6    1
     6     6     7    1
     7     7     8    1
     8     8     9    2
     9     8    10   am
    10    10    11    1
    11    15    14    1
    12    11    14    1
    13    11    12    1
    14    13    12    2
    15    12    16   am
    16    16    17    1
    17    20    18   ar
    18    18    17    1
    19    18    19   ar
