@<TRIPOS>MOLECULE
4ecm_DAU_A_1.pdb
 36 38 0 0 0
SMALL
GASTEIGER

@<TRIPOS>ATOM
      1  O6        57.6620  -22.2350   26.9590 O.3   301  DAU301     -0.2176
      2  C6        57.1210  -22.5480   25.6740 C.3   301  DAU301      0.2142
      3  C5        55.7310  -21.9420   25.5430 C.3   301  DAU301      0.1835
      4  O5        55.8510  -20.5440   25.7890 O.3   301  DAU301     -0.3254
      5  C4        55.1260  -22.2020   24.1590 C.3   301  DAU301      0.2144
      6  O4        54.9250  -23.5940   23.9470 O.3   301  DAU301     -0.2176
      7  C3        53.7920  -21.4850   23.9680 C.3   301  DAU301      0.2198
      8  O3        53.3530  -21.6760   22.6060 O.3   301  DAU301     -0.2174
      9  C2        53.9970  -19.9980   24.2800 C.3   301  DAU301      0.2409
     10  O2        52.7490  -19.2820   24.2230 O.3   301  DAU301     -0.2149
     11  C1        54.6310  -19.8050   25.6520 C.3   301  DAU301      0.2742
     12  O1        53.7040  -20.2120   26.6520 O.3   301  DAU301     -0.2857
     13  P2        53.8180  -19.6520   28.1620 P.3   301  DAU301      0.2208
     14  O3P       54.9420  -20.3360   28.9030 O.3   301  DAU301     -0.4371
     15  O4P       52.4230  -19.6390   28.7210 O.2   301  DAU301     -0.5170
     16  OPP       54.3100  -18.1300   27.9210 O.3   301  DAU301     -0.2703
     17  P         54.6040  -17.1220   29.1390 P.3   301  DAU301      0.2189
     18  O1P       55.1220  -17.9090   30.3190 O.3   301  DAU301     -0.4371
     19  O2P       53.4290  -16.2250   29.2850 O.2   301  DAU301     -0.5170
     20  O5'       55.8470  -16.2590   28.5810 O.3   301  DAU301     -0.3112
     21  C5'       57.1130  -16.8730   28.4540 C.3   301  DAU301      0.1812
     22  C4'       58.2760  -15.8890   28.3250 C.3   301  DAU301      0.1773
     23  O4'       58.0120  -14.7830   27.4640 O.3   301  DAU301     -0.3339
     24  C3'       58.7400  -15.3390   29.6560 C.3   301  DAU301      0.1857
     25  O3'       60.1410  -15.6210   29.7170 O.3   301  DAU301     -0.2203
     26  C2'       58.4920  -13.8510   29.6000 C.3   301  DAU301      0.0874
     27  C1'       58.2870  -13.5620   28.1200 C.3   301  DAU301      0.2090
     28  N11       57.1230  -12.7270   27.7790 N.am  301  DAU301     -0.1794
     29  C61       55.8380  -13.1760   28.1780 C.2   301  DAU301      0.0877
     30  C51       54.7630  -12.3100   28.1970 C.2   301  DAU301      0.0891
     31  C5A       53.3770  -12.8290   28.5190 C.3   301  DAU301      0.0462
     32  C21       57.3210  -11.3430   27.6140 C.1   301  DAU301      0.2844
     33  O21       58.5540  -10.9100   27.3120 O.2   301  DAU301     -0.1918
     34  N31       56.2880  -10.4650   27.6210 N.2   301  DAU301     -0.2455
     35  C41       55.0260  -10.8780   27.9080 C.1   301  DAU301      0.2134
     36  O41       54.0100   -9.9860   27.9310 O.2   301  DAU301     -0.2088
@<TRIPOS>BOND
     1     8     7    1
     2     6     5    1
     3     7     5    1
     4     7     9    1
     5     5     3    1
     6    10     9    1
     7     9    11    1
     8     3     2    1
     9     3     4    1
    10    11     4    1
    11    11    12    1
    12     2     1    1
    13    12    13    1
    14    33    32    2
    15    23    27    1
    16    23    22    1
    17    32    34    2
    18    32    28   am
    19    34    35    2
    20    28    27    1
    21    28    29    1
    22    35    36    2
    23    35    30    1
    24    16    13    1
    25    16    17    1
    26    27    26    1
    27    13    15    2
    28    13    14    1
    29    29    30    2
    30    30    31    1
    31    22    21    1
    32    22    24    1
    33    21    20    1
    34    20    17    1
    35    17    19    2
    36    17    18    1
    37    26    24    1
    38    24    25    1
