@<TRIPOS>MOLECULE
4ecw_DTP_P_1.pdb
 30 32 0 0 0
SMALL
GASTEIGER

@<TRIPOS>ATOM
      1  PG        55.3520    2.8000    7.1610 P.3   504  DTP504      0.5373
      2  O1G       55.0900    1.9270    8.3650 O.3   504  DTP504     -0.1143
      3  O2G       56.6370    3.5880    7.2670 O.3   504  DTP504     -0.1143
      4  O3G       55.1200    2.1240    5.8270 O.2   504  DTP504     -0.2221
      5  PB        53.1800    4.2380    6.0650 P.3   504  DTP504      0.2277
      6  O1B       53.9320    4.3240    4.7520 O.2   504  DTP504     -0.5168
      7  O2B       52.2940    5.3820    6.5010 O.3   504  DTP504     -0.4368
      8  O3B       54.1910    3.9210    7.2760 O.3   504  DTP504     -0.2258
      9  PA        51.7430    2.1050    4.8170 P.3   504  DTP504      0.2189
     10  O1A       50.9140    0.9550    5.3420 O.3   504  DTP504     -0.4371
     11  O2A       52.8730    1.7870    3.8500 O.2   504  DTP504     -0.5170
     12  O3A       52.3230    2.8710    6.1140 O.3   504  DTP504     -0.2700
     13  O5'       50.7330    3.1750    4.1600 O.3   504  DTP504     -0.3112
     14  C5'       51.1430    4.0610    3.1180 C.3   504  DTP504      0.1813
     15  C4'       50.2410    5.2970    3.0810 C.3   504  DTP504      0.1795
     16  O4'       48.9060    4.9480    2.7010 O.3   504  DTP504     -0.3155
     17  C3'       50.1440    5.9940    4.4320 C.3   504  DTP504      0.1883
     18  O3'       51.0090    7.1340    4.5010 O.3   504  DTP504     -0.2202
     19  C2'       48.7000    6.4480    4.5350 C.3   504  DTP504      0.1151
     20  C1'       47.9360    5.5710    3.5540 C.3   504  DTP504      0.2873
     21  N9        47.1870    4.5460    4.3220 N.pl3 504  DTP504     -0.1460
     22  C8        47.6980    3.4230    4.8450 C.3   504  DTP504      0.3377
     23  N7        46.7070    2.7420    5.4700 N.2   504  DTP504     -0.2095
     24  C5        45.5690    3.4520    5.3240 C.2   504  DTP504      0.2526
     25  C6        44.2610    3.2530    5.7420 C.2   504  DTP504      0.4393
     26  N6        43.9390    2.1450    6.4530 N.pl3 504  DTP504      0.2180
     27  N1        43.3180    4.1740    5.4330 N.2   504  DTP504      0.0021
     28  C2        43.6420    5.2670    4.7290 C.3   504  DTP504      0.5254
     29  N3        44.9000    5.4820    4.3100 N.2   504  DTP504     -0.0055
     30  C4        45.8780    4.5850    4.5930 C.2   504  DTP504      0.3518
@<TRIPOS>BOND
     1    16    15    1
     2    16    20    1
     3    15    14    1
     4    15    17    1
     5    14    13    1
     6    20    21    1
     7    20    19    1
     8    11     9    2
     9    13     9    1
    10    29    30    2
    11    29    28    1
    12    21    30    1
    13    21    22    1
    14    17    18    1
    15    17    19    1
    16    30    24    1
    17    28    27    1
    18     6     5    2
    19     9    10    1
    20     9    12    1
    21    22    23    1
    22    24    23    2
    23    24    25    1
    24    27    25    2
    25    25    26    1
    26     4     1    2
    27     5    12    1
    28     5     7    1
    29     5     8    1
    30     1     3    1
    31     1     8    1
    32     1     2    1
