@<TRIPOS>MOLECULE
4ecy_DTP_P_1.pdb
 30 32 0 0 0
SMALL
GASTEIGER

@<TRIPOS>ATOM
      1  PG        55.3180    2.6270    7.3070 P.3   101  DTP101      0.5373
      2  O1G       55.1070    1.7090    8.4850 O.3   101  DTP101     -0.1143
      3  O2G       56.5650    3.4780    7.4090 O.3   101  DTP101     -0.1143
      4  O3G       55.1620    1.9240    5.9920 O.2   101  DTP101     -0.2221
      5  PB        53.0830    4.1430    6.2580 P.3   101  DTP101      0.2277
      6  O1B       53.8060    4.3190    4.9520 O.2   101  DTP101     -0.5168
      7  O2B       52.3410    5.3490    6.7800 O.3   101  DTP101     -0.4368
      8  O3B       54.0860    3.6710    7.4380 O.3   101  DTP101     -0.2258
      9  PA        51.4560    2.0700    5.0080 P.3   101  DTP101      0.2189
     10  O1A       50.5140    1.0410    5.5850 O.3   101  DTP101     -0.4371
     11  O2A       52.5630    1.5580    4.1300 O.2   101  DTP101     -0.5170
     12  O3A       52.0780    2.8740    6.2670 O.3   101  DTP101     -0.2700
     13  O5'       50.5500    3.1120    4.1860 O.3   101  DTP101     -0.3112
     14  C5'       51.0560    3.9280    3.1410 C.3   101  DTP101      0.1813
     15  C4'       50.1970    5.1830    3.1090 C.3   101  DTP101      0.1795
     16  O4'       48.8480    4.8920    2.7220 O.3   101  DTP101     -0.3155
     17  C3'       50.1170    5.7940    4.4970 C.3   101  DTP101      0.1883
     18  O3'       51.1040    6.8150    4.6570 O.3   101  DTP101     -0.2202
     19  C2'       48.7170    6.3680    4.5760 C.3   101  DTP101      0.1151
     20  C1'       47.9070    5.5200    3.6030 C.3   101  DTP101      0.2873
     21  N9        47.1370    4.4940    4.3550 N.pl3 101  DTP101     -0.1460
     22  C8        47.6050    3.3250    4.8170 C.3   101  DTP101      0.3377
     23  N7        46.6020    2.6640    5.4410 N.2   101  DTP101     -0.2095
     24  C5        45.4950    3.4300    5.3590 C.2   101  DTP101      0.2526
     25  C6        44.1870    3.2790    5.8080 C.2   101  DTP101      0.4393
     26  N6        43.8070    2.1670    6.4860 N.pl3 101  DTP101      0.2180
     27  N1        43.2910    4.2590    5.5620 N.2   101  DTP101      0.0021
     28  C2        43.6500    5.3640    4.8940 C.3   101  DTP101      0.5254
     29  N3        44.9030    5.5330    4.4520 N.2   101  DTP101     -0.0055
     30  C4        45.8400    4.5780    4.6690 C.2   101  DTP101      0.3518
@<TRIPOS>BOND
     1    16    15    1
     2    16    20    1
     3    15    14    1
     4    15    17    1
     5    14    13    1
     6    20    21    1
     7    20    19    1
     8    11     9    2
     9    13     9    1
    10    21    30    1
    11    21    22    1
    12    29    30    2
    13    29    28    1
    14    17    19    1
    15    17    18    1
    16    30    24    1
    17    22    23    1
    18    28    27    1
    19     6     5    2
    20     9    10    1
    21     9    12    1
    22    24    23    2
    23    24    25    1
    24    27    25    2
    25    25    26    1
    26     4     1    2
    27     5    12    1
    28     5     7    1
    29     5     8    1
    30     1     3    1
    31     1     8    1
    32     1     2    1
