@<TRIPOS>MOLECULE
4ecz_DTP_P_1.pdb
 30 32 0 0 0
SMALL
GASTEIGER

@<TRIPOS>ATOM
      1  PG        55.3170    2.6560    7.2410 P.3   102  DTP102      0.5373
      2  O1G       55.0350    1.7900    8.4510 O.3   102  DTP102     -0.1143
      3  O2G       56.6190    3.4170    7.3920 O.3   102  DTP102     -0.1143
      4  O3G       55.1120    1.9720    5.9240 O.2   102  DTP102     -0.2221
      5  PB        53.1330    4.2010    6.1640 P.3   102  DTP102      0.2277
      6  O1B       53.8350    4.3660    4.8430 O.2   102  DTP102     -0.5168
      7  O2B       52.3510    5.3960    6.6610 O.3   102  DTP102     -0.4368
      8  O3B       54.1110    3.7410    7.3560 O.3   102  DTP102     -0.2258
      9  PA        51.5620    2.0780    4.9040 P.3   102  DTP102      0.2189
     10  O1A       50.6940    1.0040    5.5280 O.3   102  DTP102     -0.4371
     11  O2A       52.6910    1.6340    4.0360 O.2   102  DTP102     -0.5170
     12  O3A       52.0910    2.9530    6.1770 O.3   102  DTP102     -0.2700
     13  O5'       50.5970    3.0120    4.0440 O.3   102  DTP102     -0.3112
     14  C5'       51.0910    3.9540    3.0900 C.3   102  DTP102      0.1813
     15  C4'       50.1720    5.1770    3.0940 C.3   102  DTP102      0.1795
     16  O4'       48.8320    4.8260    2.7080 O.3   102  DTP102     -0.3155
     17  C3'       50.0540    5.8070    4.4760 C.3   102  DTP102      0.1883
     18  O3'       51.0640    6.8080    4.6850 O.3   102  DTP102     -0.2202
     19  C2'       48.6430    6.3930    4.4670 C.3   102  DTP102      0.1151
     20  C1'       47.8570    5.4900    3.5220 C.3   102  DTP102      0.2873
     21  N9        47.1110    4.4760    4.3070 N.pl3 102  DTP102     -0.1460
     22  C8        47.5910    3.3120    4.7770 C.3   102  DTP102      0.3377
     23  N7        46.6010    2.6670    5.4420 N.2   102  DTP102     -0.2095
     24  C5        45.4920    3.4390    5.3570 C.2   102  DTP102      0.2526
     25  C6        44.1900    3.3110    5.8250 C.2   102  DTP102      0.4393
     26  N6        43.8410    2.2110    6.5370 N.pl3 102  DTP102      0.2180
     27  N1        43.2880    4.2960    5.5750 N.2   102  DTP102      0.0021
     28  C2        43.6330    5.3870    4.8780 C.3   102  DTP102      0.5254
     29  N3        44.8890    5.5280    4.4160 N.2   102  DTP102     -0.0055
     30  C4        45.8210    4.5710    4.6390 C.2   102  DTP102      0.3518
@<TRIPOS>BOND
     1    16    15    1
     2    16    20    1
     3    14    15    1
     4    14    13    1
     5    15    17    1
     6    20    21    1
     7    20    19    1
     8    11     9    2
     9    13     9    1
    10    21    30    1
    11    21    22    1
    12    29    30    2
    13    29    28    1
    14    19    17    1
    15    17    18    1
    16    30    24    1
    17    22    23    1
    18     6     5    2
    19    28    27    1
    20     9    10    1
    21     9    12    1
    22    24    23    2
    23    24    25    1
    24    27    25    2
    25    25    26    1
    26     4     1    2
    27     5    12    1
    28     5     7    1
    29     5     8    1
    30     1     8    1
    31     1     3    1
    32     1     2    1
