@<TRIPOS>MOLECULE
4ed1_DTP_P_1.pdb
 30 32 0 0 0
SMALL
GASTEIGER

@<TRIPOS>ATOM
      1  PG        55.3270    2.6080    7.2190 P.3   502  DTP502      0.5373
      2  O1G       55.0630    1.7040    8.3990 O.3   502  DTP502     -0.1143
      3  O2G       56.6110    3.3840    7.4000 O.3   502  DTP502     -0.1143
      4  O3G       55.1650    1.9140    5.8970 O.2   502  DTP502     -0.2221
      5  PB        53.1340    4.1340    6.1270 P.3   502  DTP502      0.2277
      6  O1B       53.8940    4.3690    4.8570 O.2   502  DTP502     -0.5168
      7  O2B       52.3510    5.3190    6.6430 O.3   502  DTP502     -0.4368
      8  O3B       54.1080    3.6740    7.3250 O.3   502  DTP502     -0.2258
      9  PA        51.5780    2.0310    4.7920 P.3   502  DTP502      0.2189
     10  O1A       50.7120    0.9240    5.3570 O.3   502  DTP502     -0.4371
     11  O2A       52.7000    1.5840    3.9080 O.2   502  DTP502     -0.5170
     12  O3A       52.1310    2.8510    6.0810 O.3   502  DTP502     -0.2700
     13  O5'       50.5990    3.0020    3.9630 O.3   502  DTP502     -0.3112
     14  C5'       51.0670    3.9780    3.0390 C.3   502  DTP502      0.1813
     15  C4'       50.1410    5.1870    3.0700 C.3   502  DTP502      0.1795
     16  O4'       48.8020    4.8570    2.6580 O.3   502  DTP502     -0.3155
     17  C3'       50.0060    5.7620    4.4740 C.3   502  DTP502      0.1883
     18  O3'       50.9900    6.7700    4.7190 O.3   502  DTP502     -0.2202
     19  C2'       48.6100    6.3640    4.4620 C.3   502  DTP502      0.1151
     20  C1'       47.8290    5.4570    3.5220 C.3   502  DTP502      0.2873
     21  N9        47.0940    4.4160    4.2960 N.pl3 502  DTP502     -0.1460
     22  C8        47.5760    3.2600    4.7700 C.3   502  DTP502      0.3377
     23  N7        46.5770    2.6030    5.4110 N.2   502  DTP502     -0.2095
     24  C5        45.4570    3.3600    5.3130 C.2   502  DTP502      0.2526
     25  C6        44.1470    3.2200    5.7670 C.2   502  DTP502      0.4393
     26  N6        43.7770    2.1110    6.4580 N.pl3 502  DTP502      0.2180
     27  N1        43.2440    4.2000    5.5190 N.2   502  DTP502      0.0021
     28  C2        43.6010    5.2930    4.8310 C.3   502  DTP502      0.5254
     29  N3        44.8600    5.4570    4.3840 N.2   502  DTP502     -0.0055
     30  C4        45.7980    4.5010    4.6160 C.2   502  DTP502      0.3518
@<TRIPOS>BOND
     1    16    15    1
     2    16    20    1
     3    14    15    1
     4    14    13    1
     5    15    17    1
     6    20    21    1
     7    20    19    1
     8    11     9    2
     9    13     9    1
    10    21    30    1
    11    21    22    1
    12    29    30    2
    13    29    28    1
    14    19    17    1
    15    17    18    1
    16    30    24    1
    17    22    23    1
    18     9    10    1
    19     9    12    1
    20    28    27    1
    21     6     5    2
    22    24    23    2
    23    24    25    1
    24    27    25    2
    25    25    26    1
    26     4     1    2
    27    12     5    1
    28     5     7    1
    29     5     8    1
    30     1     8    1
    31     1     3    1
    32     1     2    1
