@<TRIPOS>MOLECULE
4ed4_ATP_A_1.pdb
 31 33 0 0 0
SMALL
GASTEIGER

@<TRIPOS>ATOM
      1  PG       -10.6900    6.8710  -18.3140 P.3   401  ATP401      0.5373
      2  O1G      -11.0450    5.8780  -17.1990 O.3   401  ATP401     -0.1143
      3  O2G      -11.7340    7.9690  -18.4970 O.2   401  ATP401     -0.2221
      4  O3G       -9.1730    7.1200  -18.2700 O.3   401  ATP401     -0.1143
      5  PB       -11.5840    6.1430  -21.0040 P.3   401  ATP401      0.2277
      6  O1B      -13.0840    5.9880  -20.9560 O.3   401  ATP401     -0.4368
      7  O2B      -10.9990    7.3960  -21.5870 O.2   401  ATP401     -0.5168
      8  O3B      -10.9960    5.8400  -19.5590 O.3   401  ATP401     -0.2258
      9  PA       -11.6820    3.4090  -21.9170 P.3   401  ATP401      0.2189
     10  O1A      -12.7010    3.3800  -23.0590 O.2   401  ATP401     -0.5170
     11  O2A      -12.0880    2.9350  -20.5480 O.3   401  ATP401     -0.4371
     12  O3A      -11.0190    4.8470  -21.8110 O.3   401  ATP401     -0.2700
     13  O5'      -10.3380    2.6150  -22.2280 O.3   401  ATP401     -0.3112
     14  C5'       -9.7400    2.7330  -23.5480 C.3   401  ATP401      0.1813
     15  C4'       -8.4130    1.9730  -23.6050 C.3   401  ATP401      0.1821
     16  O4'       -8.4790    0.7120  -22.9030 O.3   401  ATP401     -0.3135
     17  C3'       -8.0110    1.6040  -25.0140 C.3   401  ATP401      0.2184
     18  O3'       -6.5580    1.5000  -25.0100 O.3   401  ATP401     -0.2174
     19  C2'       -8.7110    0.2550  -25.2070 C.3   401  ATP401      0.2570
     20  O2'       -8.1540   -0.5630  -26.2910 O.3   401  ATP401     -0.2130
     21  C1'       -8.5020   -0.3680  -23.8610 C.3   401  ATP401      0.3186
     22  N9        -9.6020   -1.2040  -23.3650 N.pl3 401  ATP401     -0.1439
     23  C8        -9.3840   -2.3160  -22.6410 C.3   401  ATP401      0.3377
     24  N7       -10.5680   -2.8280  -22.2530 N.2   401  ATP401     -0.2095
     25  C5       -11.5540   -2.0330  -22.7500 C.2   401  ATP401      0.2526
     26  C6       -13.0200   -2.0600  -22.6920 C.2   401  ATP401      0.4393
     27  N6       -13.6230   -3.0660  -21.9910 N.pl3 401  ATP401      0.2180
     28  N1       -13.7050   -1.0090  -23.2300 N.2   401  ATP401      0.0021
     29  C2       -13.0470   -0.0600  -23.9470 C.3   401  ATP401      0.5254
     30  N3       -11.6820   -0.0130  -24.0590 N.2   401  ATP401     -0.0055
     31  C4       -10.9150   -0.9560  -23.4660 C.2   401  ATP401      0.3518
@<TRIPOS>BOND
     1    20    19    1
     2    19    17    1
     3    19    21    1
     4    17    18    1
     5    17    15    1
     6    30    29    1
     7    30    31    2
     8    29    28    1
     9    21    22    1
    10    21    16    1
    11    15    14    1
    12    15    16    1
    13    14    13    1
    14    31    22    1
    15    31    25    1
    16    22    23    1
    17    28    26    2
    18    10     9    2
    19    25    26    1
    20    25    24    2
    21    26    27    1
    22    23    24    1
    23    13     9    1
    24     9    12    1
    25     9    11    1
    26    12     5    1
    27     7     5    2
    28     5     6    1
    29     5     8    1
    30     8     1    1
    31     3     1    2
    32     1     4    1
    33     1     2    1
