@<TRIPOS>MOLECULE
4ed7_DTP_P_1.pdb
 30 32 0 0 0
SMALL
GASTEIGER

@<TRIPOS>ATOM
      1  PG        55.2230    2.6690    7.4940 P.3   501  DTP501      0.5373
      2  O1G       54.8890    1.7350    8.6310 O.3   501  DTP501     -0.1143
      3  O2G       56.4670    3.4830    7.7020 O.3   501  DTP501     -0.1143
      4  O3G       55.1340    2.0130    6.1530 O.2   501  DTP501     -0.2221
      5  PB        53.0240    4.2490    6.4590 P.3   501  DTP501      0.2277
      6  O1B       53.7630    4.4100    5.1600 O.2   501  DTP501     -0.5168
      7  O2B       52.3100    5.4540    7.0170 O.3   501  DTP501     -0.4368
      8  O3B       54.0220    3.7590    7.6170 O.3   501  DTP501     -0.2258
      9  PA        51.4260    2.1930    5.1670 P.3   501  DTP501      0.2189
     10  O1A       50.5170    1.1440    5.7620 O.3   501  DTP501     -0.4371
     11  O2A       52.5600    1.6930    4.3250 O.2   501  DTP501     -0.5170
     12  O3A       51.9800    3.0260    6.4270 O.3   501  DTP501     -0.2700
     13  O5'       50.4910    3.1760    4.3100 O.3   501  DTP501     -0.3112
     14  C5'       51.0050    4.1150    3.3750 C.3   501  DTP501      0.1813
     15  C4'       50.0690    5.3130    3.3420 C.3   501  DTP501      0.1795
     16  O4'       48.7410    4.9050    2.9960 O.3   501  DTP501     -0.3155
     17  C3'       49.9560    5.9210    4.7300 C.3   501  DTP501      0.1883
     18  O3'       50.9920    6.8810    4.9960 O.3   501  DTP501     -0.2202
     19  C2'       48.5710    6.5350    4.7190 C.3   501  DTP501      0.1151
     20  C1'       47.7800    5.5990    3.8070 C.3   501  DTP501      0.2873
     21  N9        47.0280    4.5840    4.5820 N.pl3 501  DTP501     -0.1460
     22  C8        47.4780    3.4000    5.0380 C.3   501  DTP501      0.3377
     23  N7        46.4650    2.7660    5.6860 N.2   501  DTP501     -0.2095
     24  C5        45.3770    3.5710    5.6080 C.2   501  DTP501      0.2526
     25  C6        44.0720    3.4790    6.0670 C.2   501  DTP501      0.4393
     26  N6        43.6680    2.3790    6.7540 N.pl3 501  DTP501      0.2180
     27  N1        43.2070    4.4960    5.8210 N.2   501  DTP501      0.0021
     28  C2        43.6000    5.5800    5.1390 C.3   501  DTP501      0.5254
     29  N3        44.8510    5.7020    4.6810 N.2   501  DTP501     -0.0055
     30  C4        45.7460    4.7050    4.9040 C.2   501  DTP501      0.3518
@<TRIPOS>BOND
     1    16    15    1
     2    16    20    1
     3    15    14    1
     4    15    17    1
     5    14    13    1
     6    20    21    1
     7    20    19    1
     8    13     9    1
     9    11     9    2
    10    21    30    1
    11    21    22    1
    12    29    30    2
    13    29    28    1
    14    19    17    1
    15    17    18    1
    16    30    24    1
    17    22    23    1
    18    28    27    1
    19     6     5    2
    20     9    10    1
    21     9    12    1
    22    24    23    2
    23    24    25    1
    24    27    25    2
    25    25    26    1
    26     4     1    2
    27    12     5    1
    28     5     7    1
    29     5     8    1
    30     1     8    1
    31     1     3    1
    32     1     2    1
