@<TRIPOS>MOLECULE
4ede_RET_B_1.pdb
 20 20 0 0 0
SMALL
GASTEIGER

@<TRIPOS>ATOM
      1  C1        -7.6490   -1.0010    7.1940 C.3   202  RET202      0.0037
      2  C2        -7.5430   -1.2730    5.6820 C.3   202  RET202      0.0003
      3  C3        -8.0690   -2.6090    5.1420 C.3   202  RET202      0.0000
      4  C4        -9.0030   -3.2940    6.1370 C.3   202  RET202      0.0003
      5  C5        -8.3230   -3.3750    7.4800 C.3   202  RET202      0.0040
      6  C6        -7.8930   -2.2580    8.0430 C.3   202  RET202      0.0220
      7  C7        -7.6960   -2.3160    9.5170 C.2   202  RET202     -0.0268
      8  C8        -6.5380   -1.8640   10.0110 C.2   202  RET202     -0.0088
      9  C9        -6.2690   -1.8470   11.4500 C.2   202  RET202     -0.0222
     10  C10       -5.4150   -0.8820   11.8910 C.2   202  RET202     -0.0046
     11  C11       -5.0510   -0.6610   13.2750 C.2   202  RET202     -0.0049
     12  C12       -3.9390    0.0530   13.5450 C.2   202  RET202     -0.0265
     13  C13       -3.6160    0.3170   14.9550 C.3   202  RET202      0.0220
     14  C14       -2.7240    1.2530   15.2180 C.3   202  RET202      0.0043
     15  C15       -2.4870    1.5070   16.6760 C.3   202  RET202      0.0003
     16  C16       -6.3660   -0.3100    7.6370 C.3   202  RET202      0.0003
     17  C17       -8.6720    0.1010    7.4380 C.3   202  RET202      0.0003
     18  C18       -8.1200   -4.6880    8.1720 C.3   202  RET202      0.0003
     19  C19       -6.9240   -2.8690   12.3430 C.3   202  RET202      0.0310
     20  C20       -4.2260   -0.4210   16.1270 C.3   202  RET202      0.0047
@<TRIPOS>BOND
     1     3     2    1
     2     3     4    1
     3     2     1    1
     4     4     5    1
     5     1    17    1
     6     1    16    1
     7     1     6    1
     8     5     6    1
     9     5    18    1
    10     6     7    1
    11     7     8    2
    12     8     9    1
    13     9    10    2
    14     9    19    1
    15    10    11    1
    16    11    12    2
    17    12    13    1
    18    13    14    1
    19    13    20    1
    20    14    15    1
