@<TRIPOS>MOLECULE
4edf_UPG_A_1.pdb
 36 38 0 0 0
SMALL
GASTEIGER

@<TRIPOS>ATOM
      1  N1        35.5990   -1.5850   13.3330 N.am  501  UPG501     -0.1766
      2  C2        36.7350   -1.1090   12.6460 C.1   501  UPG501      0.2845
      3  N3        37.3940   -1.9070   11.8040 N.2   501  UPG501     -0.2452
      4  C4        36.9860   -3.1620   11.6060 C.1   501  UPG501      0.2182
      5  C5        35.8700   -3.6610   12.2700 C.2   501  UPG501      0.1242
      6  C6        35.1750   -2.8400   13.1510 C.2   501  UPG501      0.0929
      7  O2        37.1270    0.0660   12.8220 O.2   501  UPG501     -0.1918
      8  O4        37.6200   -3.8810   10.8080 O.2   501  UPG501     -0.2085
      9  C1C       34.9200   -0.6790   14.2570 C.3   501  UPG501      0.2401
     10  C2C       33.4730   -0.4380   13.8860 C.3   501  UPG501      0.2319
     11  O2C       33.3640    0.6370   12.9570 O.3   501  UPG501     -0.2157
     12  C3C       32.8580   -0.1030   15.2300 C.3   501  UPG501      0.2158
     13  C4C       33.6790   -0.8970   16.2350 C.3   501  UPG501      0.1799
     14  O4C       34.8910   -1.2460   15.5690 O.3   501  UPG501     -0.3320
     15  O3C       33.0400    1.2880   15.5100 O.3   501  UPG501     -0.2175
     16  C5C       32.9760   -2.1720   16.6890 C.3   501  UPG501      0.1813
     17  O5C       32.1270   -2.6170   15.6360 O.3   501  UPG501     -0.3112
     18  PA        31.4470   -4.0640   15.6510 P.3   501  UPG501      0.2189
     19  O1A       31.2420   -4.4470   14.2050 O.2   501  UPG501     -0.5170
     20  O2A       32.2510   -4.9510   16.5580 O.3   501  UPG501     -0.4371
     21  O3A       30.0180   -3.6600   16.2820 O.3   501  UPG501     -0.2703
     22  PB        29.4660   -4.0090   17.7650 P.3   501  UPG501      0.2208
     23  O1B       30.2130   -3.1540   18.7600 O.3   501  UPG501     -0.4371
     24  O2B       27.9620   -3.9120   17.6980 O.2   501  UPG501     -0.5170
     25  O3B       29.8150   -5.5610   18.0500 O.3   501  UPG501     -0.2857
     26  C1'       30.7670   -5.9740   19.0410 C.3   501  UPG501      0.2742
     27  C2'       31.2450   -7.3880   18.7080 C.3   501  UPG501      0.2409
     28  C3'       30.1250   -8.3990   18.9310 C.3   501  UPG501      0.2198
     29  C4'       29.5990   -8.2570   20.3540 C.3   501  UPG501      0.2144
     30  C5'       29.1380   -6.8250   20.5900 C.3   501  UPG501      0.1835
     31  C6'       28.6000   -6.6780   22.0070 C.3   501  UPG501      0.2142
     32  O2'       31.7070   -7.4600   17.3500 O.3   501  UPG501     -0.2149
     33  O3'       30.6150   -9.7240   18.7060 O.3   501  UPG501     -0.2174
     34  O4'       28.4970   -9.1410   20.5900 O.3   501  UPG501     -0.2176
     35  O5'       30.2310   -5.9310   20.3770 O.3   501  UPG501     -0.3254
     36  O6'       29.5030   -7.2880   22.9400 O.3   501  UPG501     -0.2176
@<TRIPOS>BOND
     1     8     4    2
     2     4     3    2
     3     4     5    1
     4     3     2    2
     5     5     6    2
     6     2     7    2
     7     2     1   am
     8    11    10    1
     9     6     1    1
    10     1     9    1
    11    10     9    1
    12    10    12    1
    13    19    18    2
    14     9    14    1
    15    12    15    1
    16    12    13    1
    17    14    13    1
    18    17    18    1
    19    17    16    1
    20    18    21    1
    21    18    20    1
    22    13    16    1
    23    21    22    1
    24    32    27    1
    25    24    22    2
    26    22    25    1
    27    22    23    1
    28    25    26    1
    29    33    28    1
    30    27    28    1
    31    27    26    1
    32    28    29    1
    33    26    35    1
    34    29    30    1
    35    29    34    1
    36    35    30    1
    37    30    31    1
    38    31    36    1
