@<TRIPOS>MOLECULE
4edg_ATP_A_1.pdb
 31 33 0 0 0
SMALL
GASTEIGER

@<TRIPOS>ATOM
      1  PG        17.5270  -48.1730  -14.4620 P.3   503  ATP503      0.5373
      2  O1G       18.6130  -49.2170  -14.3020 O.3   503  ATP503     -0.1143
      3  O2G       16.5610  -48.3950  -15.6030 O.2   503  ATP503     -0.2221
      4  O3G       18.1270  -46.8060  -14.3990 O.3   503  ATP503     -0.1143
      5  PB        16.1730  -47.2160  -12.1440 P.3   503  ATP503      0.2277
      6  O1B       17.3580  -46.7480  -11.3370 O.3   503  ATP503     -0.4368
      7  O2B       15.3440  -46.2590  -12.9600 O.2   503  ATP503     -0.5168
      8  O3B       16.6110  -48.3900  -13.1590 O.3   503  ATP503     -0.2258
      9  PA        13.6390  -47.7550  -11.0960 P.3   503  ATP503      0.2189
     10  O1A       12.9840  -48.3230  -12.3400 O.2   503  ATP503     -0.5170
     11  O2A       13.4660  -46.3070  -10.7080 O.3   503  ATP503     -0.4371
     12  O3A       15.2150  -48.0570  -11.1730 O.3   503  ATP503     -0.2700
     13  O5'       13.2700  -48.6540   -9.8130 O.3   503  ATP503     -0.3112
     14  C5'       13.4850  -48.1330   -8.5010 C.3   503  ATP503      0.1813
     15  C4'       14.0630  -49.2520   -7.6470 C.3   503  ATP503      0.1821
     16  O4'       13.0840  -50.2870   -7.5380 O.3   503  ATP503     -0.3135
     17  C3'       15.2980  -49.8640   -8.2980 C.3   503  ATP503      0.2184
     18  O3'       16.5140  -49.4860   -7.6510 O.3   503  ATP503     -0.2174
     19  C2'       15.1350  -51.3480   -8.1170 C.3   503  ATP503      0.2570
     20  O2'       15.9570  -51.7630   -7.0210 O.3   503  ATP503     -0.2130
     21  C1'       13.6840  -51.5680   -7.7370 C.3   503  ATP503      0.3186
     22  N9        13.0450  -52.3010   -8.8530 N.pl3 503  ATP503     -0.1439
     23  C8        12.7990  -51.7940  -10.0770 C.3   503  ATP503      0.3377
     24  N7        12.2170  -52.7160  -10.8840 N.2   503  ATP503     -0.2095
     25  C5        12.0880  -53.8440  -10.1640 C.2   503  ATP503      0.2526
     26  C6        11.5500  -55.1960  -10.4120 C.2   503  ATP503      0.4393
     27  N6        11.0280  -55.5060  -11.6210 N.pl3 503  ATP503      0.2180
     28  N1        11.6020  -56.0910   -9.3950 N.2   503  ATP503      0.0021
     29  C2        12.1230  -55.7740   -8.1930 C.3   503  ATP503      0.5254
     30  N3        12.6300  -54.5620   -7.8940 N.2   503  ATP503     -0.0055
     31  C4        12.6400  -53.5730   -8.8240 C.2   503  ATP503      0.3518
@<TRIPOS>BOND
     1     3     1    2
     2     1     4    1
     3     1     2    1
     4     1     8    1
     5     8     5    1
     6     7     5    2
     7    10     9    2
     8     5     6    1
     9     5    12    1
    10    27    26    1
    11    12     9    1
    12     9    11    1
    13     9    13    1
    14    24    25    2
    15    24    23    1
    16    26    25    1
    17    26    28    2
    18    25    31    1
    19    23    22    1
    20    13    14    1
    21    28    29    1
    22    22    31    1
    23    22    21    1
    24    31    30    2
    25    14    15    1
    26    17    19    1
    27    17    18    1
    28    17    15    1
    29    29    30    1
    30    19    21    1
    31    19    20    1
    32    21    16    1
    33    15    16    1
