@<TRIPOS>MOLECULE
4edh_TMP_A_1.pdb
 21 22 0 0 0
SMALL
GASTEIGER

@<TRIPOS>ATOM
      1  P         -4.6460    5.4900    5.8730 P.3   301  TMP301      0.5327
      2  O1P       -4.1180    4.1580    5.4560 O.2   301  TMP301     -0.2224
      3  O2P       -3.4620    6.4180    5.7900 O.3   301  TMP301     -0.1145
      4  O3P       -4.9620    5.3560    7.3300 O.3   301  TMP301     -0.1145
      5  O5'       -5.8340    6.0610    5.0420 O.3   301  TMP301     -0.2675
      6  C5'       -5.7550    6.2080    3.6670 C.3   301  TMP301      0.1858
      7  C4'       -7.1310    5.9340    3.1010 C.3   301  TMP301      0.1774
      8  O4'       -7.0590    6.0260    1.6910 O.3   301  TMP301     -0.3339
      9  C3'       -7.6720    4.5800    3.4690 C.3   301  TMP301      0.1857
     10  O3'       -9.0150    4.6110    3.8660 O.3   301  TMP301     -0.2203
     11  C2'       -7.5140    3.7910    2.2410 C.3   301  TMP301      0.0874
     12  C1'       -7.6480    4.8550    1.2040 C.3   301  TMP301      0.2090
     13  N1        -6.9600    4.5100   -0.0190 N.am  301  TMP301     -0.1794
     14  C2        -7.7080    4.2560   -1.2110 C.1   301  TMP301      0.2844
     15  O2        -8.9210    4.3310   -1.2280 O.2   301  TMP301     -0.1918
     16  N3        -6.9990    3.9320   -2.3840 N.2   301  TMP301     -0.2455
     17  C4        -5.5980    3.8850   -2.4050 C.1   301  TMP301      0.2134
     18  O4        -5.0150    3.6260   -3.4440 O.2   301  TMP301     -0.2088
     19  C5        -4.8300    4.1730   -1.1690 C.2   301  TMP301      0.0891
     20  C5M       -3.3200    4.1270   -1.1570 C.3   301  TMP301      0.0462
     21  C6        -5.5170    4.4650   -0.0220 C.2   301  TMP301      0.0877
@<TRIPOS>BOND
     1    18    17    2
     2    17    16    2
     3    17    19    1
     4    16    14    2
     5    15    14    2
     6    14    13   am
     7    19    20    1
     8    19    21    2
     9    21    13    1
    10    13    12    1
    11    12     8    1
    12    12    11    1
    13     8     7    1
    14    11     9    1
    15     7     9    1
    16     7     6    1
    17     9    10    1
    18     6     5    1
    19     5     1    1
    20     2     1    2
    21     3     1    1
    22     1     4    1
