@<TRIPOS>MOLECULE
4edh_ADP_A_1.pdb
 27 29 0 0 0
SMALL
GASTEIGER

@<TRIPOS>ATOM
      1  PB        -3.6400    0.5800   10.3140 P.3   302  ADP302      0.5373
      2  O1B       -2.4240    1.4430   10.0240 O.3   302  ADP302     -0.1143
      3  O2B       -3.5950   -0.7530    9.6140 O.2   302  ADP302     -0.2221
      4  O3B       -4.9710    1.2920   10.1740 O.3   302  ADP302     -0.1143
      5  PA        -2.5810    0.7200   13.0010 P.3   302  ADP302      0.2231
      6  O1A       -2.8560    2.2050   13.0850 O.3   302  ADP302     -0.4370
      7  O2A       -1.1620    0.2230   12.8350 O.2   302  ADP302     -0.5169
      8  O3A       -3.4870    0.1330   11.8200 O.3   302  ADP302     -0.2261
      9  O5'       -3.1040    0.0280   14.3480 O.3   302  ADP302     -0.3111
     10  C5'       -4.4160    0.3180   14.8380 C.3   302  ADP302      0.1813
     11  C4'       -4.5210    0.0280   16.3340 C.3   302  ADP302      0.1821
     12  O4'       -4.5910   -1.3790   16.5760 O.3   302  ADP302     -0.3135
     13  C3'       -3.3240    0.5370   17.1150 C.3   302  ADP302      0.2184
     14  O3'       -3.7950    1.0220   18.3790 O.3   302  ADP302     -0.2174
     15  C2'       -2.4770   -0.7030   17.3110 C.3   302  ADP302      0.2570
     16  O2'       -1.6740   -0.6230   18.4810 O.3   302  ADP302     -0.2130
     17  C1'       -3.5160   -1.8030   17.4060 C.3   302  ADP302      0.3186
     18  N9        -3.0470   -3.0910   16.8640 N.pl3 302  ADP302     -0.1439
     19  C8        -2.3740   -3.2840   15.7150 C.3   302  ADP302      0.3377
     20  N7        -2.1440   -4.6070   15.5100 N.2   302  ADP302     -0.2095
     21  C5        -2.6820   -5.2800   16.5430 C.2   302  ADP302      0.2526
     22  C6        -2.8070   -6.7010   16.9310 C.2   302  ADP302      0.4393
     23  N6        -2.2850   -7.7010   16.1790 N.pl3 302  ADP302      0.2180
     24  N1        -3.4550   -6.9700   18.0890 N.2   302  ADP302      0.0021
     25  C2        -3.9750   -5.9880   18.8500 C.3   302  ADP302      0.5254
     26  N3        -3.9130   -4.6810   18.5530 N.2   302  ADP302     -0.0055
     27  C4        -3.2820   -4.2740   17.4270 C.2   302  ADP302      0.3518
@<TRIPOS>BOND
     1     3     1    2
     2     2     1    1
     3     4     1    1
     4     1     8    1
     5     8     5    1
     6     7     5    2
     7     5     6    1
     8     5     9    1
     9     9    10    1
    10    10    11    1
    11    20    19    1
    12    20    21    2
    13    19    18    1
    14    23    22    1
    15    11    12    1
    16    11    13    1
    17    21    22    1
    18    21    27    1
    19    12    17    1
    20    18    17    1
    21    18    27    1
    22    22    24    2
    23    13    15    1
    24    13    14    1
    25    15    17    1
    26    15    16    1
    27    27    26    2
    28    24    25    1
    29    26    25    1
