@<TRIPOS>MOLECULE
4edk_GTP_A_1.pdb
 32 34 0 0 0
SMALL
GASTEIGER

@<TRIPOS>ATOM
      1  PG       -32.7780  -39.3890   -9.9050 P.3   504  GTP504      0.5373
      2  O1G      -33.4370  -38.8790  -11.1580 O.2   504  GTP504     -0.2221
      3  O2G      -31.2940  -39.2780  -10.0320 O.3   504  GTP504     -0.1143
      4  O3G      -33.0540  -40.8790   -9.7660 O.3   504  GTP504     -0.1143
      5  O3B      -33.4230  -38.6340   -8.6230 O.3   504  GTP504     -0.2258
      6  PB       -32.5330  -37.7990   -7.5630 P.3   504  GTP504      0.2277
      7  O1B      -31.6620  -38.7060   -6.7290 O.3   504  GTP504     -0.4368
      8  O2B      -31.6810  -36.8920   -8.3910 O.2   504  GTP504     -0.5168
      9  O3A      -33.5940  -37.0240   -6.6470 O.3   504  GTP504     -0.2700
     10  PA       -34.2910  -35.6160   -6.9930 P.3   504  GTP504      0.2189
     11  O1A      -33.2200  -34.5440   -6.9790 O.3   504  GTP504     -0.4371
     12  O2A      -35.1580  -35.6110   -8.2310 O.2   504  GTP504     -0.5170
     13  O5'      -35.1850  -35.4160   -5.6770 O.3   504  GTP504     -0.3112
     14  C5'      -34.5090  -35.5720   -4.4430 C.3   504  GTP504      0.1813
     15  C4'      -35.2980  -36.4950   -3.5350 C.3   504  GTP504      0.1799
     16  O4'      -36.6350  -36.0380   -3.5000 O.3   504  GTP504     -0.3326
     17  C3'      -35.3800  -37.9340   -4.0230 C.3   504  GTP504      0.2158
     18  O3'      -34.3240  -38.7500   -3.5790 O.3   504  GTP504     -0.2175
     19  C2'      -36.6740  -38.3940   -3.4030 C.3   504  GTP504      0.2310
     20  O2'      -36.4480  -38.7970   -2.0660 O.3   504  GTP504     -0.2158
     21  C1'      -37.5210  -37.1380   -3.4040 C.3   504  GTP504      0.2293
     22  N9       -38.3950  -37.2240   -4.5870 N.pl3 504  GTP504     -0.2354
     23  C8       -38.0720  -36.9380   -5.8940 C.3   504  GTP504      0.2246
     24  N7       -39.1700  -37.1570   -6.6680 N.2   504  GTP504     -0.2322
     25  C5       -40.1810  -37.5770   -5.8680 C.2   504  GTP504      0.2182
     26  C6       -41.5040  -37.9280   -6.1160 C.1   504  GTP504      0.2372
     27  O6       -41.9530  -37.8990   -7.2630 O.2   504  GTP504     -0.2069
     28  N1       -42.3110  -38.3160   -5.0620 N.2   504  GTP504     -0.2485
     29  C2       -41.8110  -38.3520   -3.7740 C.1   504  GTP504      0.2531
     30  N2       -42.5850  -38.7220   -2.7550 N.pl3 504  GTP504     -0.0226
     31  N3       -40.5010  -38.0030   -3.5370 N.2   504  GTP504     -0.3074
     32  C4       -39.7040  -37.6200   -4.5610 C.2   504  GTP504      0.2300
@<TRIPOS>BOND
     1     2     1    2
     2     3     1    1
     3     1     4    1
     4     1     5    1
     5     5     6    1
     6     8     6    2
     7    12    10    2
     8     6     7    1
     9     6     9    1
    10    27    26    2
    11    10    11    1
    12    10     9    1
    13    10    13    1
    14    24    23    1
    15    24    25    2
    16    26    25    1
    17    26    28    2
    18    23    22    1
    19    25    32    1
    20    13    14    1
    21    28    29    2
    22    22    32    1
    23    22    21    1
    24    32    31    2
    25    14    15    1
    26    17    18    1
    27    17    15    1
    28    17    19    1
    29    29    31    2
    30    29    30    1
    31    15    16    1
    32    16    21    1
    33    21    19    1
    34    19    20    1
