@<TRIPOS>MOLECULE
4edr_UTP_A_1.pdb
 29 30 0 0 0
SMALL
GASTEIGER

@<TRIPOS>ATOM
      1  PA        13.7670  -47.4810   -6.5090 P.3   504  UTP504      0.2189
      2  O1A       13.2600  -48.2200   -7.7230 O.2   504  UTP504     -0.5170
      3  O2A       13.3510  -46.0540   -6.2630 O.3   504  UTP504     -0.4371
      4  O3A       15.3720  -47.6200   -6.4410 O.3   504  UTP504     -0.2700
      5  O5'       13.3950  -48.3440   -5.2090 O.3   504  UTP504     -0.3112
      6  PB        16.3680  -46.8620   -7.4480 P.3   504  UTP504      0.2277
      7  O1B       17.5030  -46.2950   -6.6320 O.3   504  UTP504     -0.4368
      8  O2B       15.5750  -45.9900   -8.3870 O.2   504  UTP504     -0.5168
      9  O3B       16.9600  -48.0770   -8.3210 O.3   504  UTP504     -0.2258
     10  PG        17.6470  -47.8610   -9.7650 P.3   504  UTP504      0.5373
     11  O1G       18.2930  -46.5070   -9.7240 O.3   504  UTP504     -0.1143
     12  O2G       16.5150  -47.9830  -10.7550 O.2   504  UTP504     -0.2221
     13  O3G       18.6530  -48.9870   -9.8380 O.3   504  UTP504     -0.1143
     14  C5'       13.6380  -47.7920   -3.9190 C.3   504  UTP504      0.1813
     15  C4'       14.1150  -48.9160   -3.0110 C.3   504  UTP504      0.1799
     16  O4'       13.1150  -49.9350   -2.9630 O.3   504  UTP504     -0.3320
     17  C1'       13.7240  -51.2310   -2.9360 C.3   504  UTP504      0.2401
     18  C2'       15.2240  -51.0200   -3.0450 C.3   504  UTP504      0.2319
     19  O2'       15.8140  -51.1050   -1.7450 O.3   504  UTP504     -0.2157
     20  C3'       15.3600  -49.6040   -3.5520 C.3   504  UTP504      0.2158
     21  O3'       16.5700  -49.0210   -3.0680 O.3   504  UTP504     -0.2175
     22  N1        13.2920  -52.0370   -4.0800 N.am  504  UTP504     -0.1766
     23  C6        12.9060  -51.4510   -5.2190 C.2   504  UTP504      0.0929
     24  C2        13.3130  -53.4430   -3.9880 C.1   504  UTP504      0.2845
     25  O2        13.6790  -53.9880   -2.9220 O.2   504  UTP504     -0.1918
     26  N3        12.9310  -54.1910   -5.0310 N.2   504  UTP504     -0.2452
     27  C4        12.5360  -53.6210   -6.1770 C.1   504  UTP504      0.2182
     28  O4        12.1860  -54.3390   -7.1400 O.2   504  UTP504     -0.2085
     29  C5        12.5150  -52.2360   -6.2970 C.2   504  UTP504      0.1242
@<TRIPOS>BOND
     1    12    10    2
     2    13    10    1
     3    10    11    1
     4    10     9    1
     5     8     6    2
     6     9     6    1
     7     2     1    2
     8     6     7    1
     9     6     4    1
    10    28    27    2
    11     1     4    1
    12     1     3    1
    13     1     5    1
    14    29    27    1
    15    29    23    2
    16    27    26    2
    17    23    22    1
    18     5    14    1
    19    26    24    2
    20    22    24   am
    21    22    17    1
    22    24    25    2
    23    14    15    1
    24    20    21    1
    25    20    18    1
    26    20    15    1
    27    18    17    1
    28    18    19    1
    29    15    16    1
    30    16    17    1
