@<TRIPOS>MOLECULE
4edt_G4P_A_1.pdb
 36 38 0 0 0
SMALL
GASTEIGER

@<TRIPOS>ATOM
      1  PB        58.4190   83.7140    7.9340 P.3   502  G4P502      0.5373
      2  O1B       59.2530   83.8280    9.2100 O.3   502  G4P502     -0.1143
      3  O2B       57.4330   82.5180    7.9580 O.3   502  G4P502     -0.1143
      4  O3B       57.7010   84.9690    7.4780 O.2   502  G4P502     -0.2221
      5  O3A       59.4640   83.3480    6.7650 O.3   502  G4P502     -0.2261
      6  PA        60.4790   84.3320    5.9760 P.3   502  G4P502      0.2231
      7  O1A       60.3030   84.1850    4.4770 O.2   502  G4P502     -0.5169
      8  O2A       60.5250   85.7200    6.5360 O.3   502  G4P502     -0.4370
      9  O5'       61.8380   83.5800    6.2710 O.3   502  G4P502     -0.3111
     10  C5'       63.1030   84.2050    6.1050 C.3   502  G4P502      0.1812
     11  C4'       63.6410   84.5680    7.4680 C.3   502  G4P502      0.1771
     12  O4'       63.5680   83.3530    8.2660 O.3   502  G4P502     -0.3327
     13  C3'       65.1420   84.9290    7.5440 C.3   502  G4P502      0.1857
     14  O3'       65.6840   85.9890    8.3670 O.3   502  G4P502     -0.3109
     15  C2'       65.8490   83.5670    7.4420 C.3   502  G4P502      0.2282
     16  O2'       67.1940   83.4760    7.8440 O.3   502  G4P502     -0.2159
     17  C1'       64.8760   82.6950    8.2600 C.3   502  G4P502      0.2292
     18  N9        64.8480   81.3420    7.6520 N.pl3 502  G4P502     -0.2354
     19  C8        64.5730   80.9780    6.3260 C.3   502  G4P502      0.2246
     20  N7        64.6220   79.7030    6.1030 N.2   502  G4P502     -0.2322
     21  C5        64.9510   79.1660    7.3420 C.2   502  G4P502      0.2182
     22  C6        65.1430   77.8300    7.7130 C.1   502  G4P502      0.2372
     23  O6        65.0520   76.8270    6.9720 O.2   502  G4P502     -0.2069
     24  N1        65.4750   77.6980    9.0920 N.2   502  G4P502     -0.2485
     25  C2        65.5960   78.7660    9.9820 C.1   502  G4P502      0.2531
     26  N2        65.9200   78.4690   11.2890 N.pl3 502  G4P502     -0.0226
     27  N3        65.4100   80.0420    9.6190 N.2   502  G4P502     -0.3074
     28  C4        65.0950   80.1650    8.3060 C.2   502  G4P502      0.2300
     29  PC        67.1070   86.6850    7.9900 P.3   502  G4P502      0.2231
     30  O1C       68.0730   86.3770    9.1540 O.3   502  G4P502     -0.4370
     31  O2C       66.8440   88.1060    7.6380 O.2   502  G4P502     -0.5169
     32  O3C       67.6410   85.9160    6.7050 O.3   502  G4P502     -0.2261
     33  PD        68.8150   86.5570    5.8680 P.3   502  G4P502      0.5373
     34  O1D       68.2210   87.6880    5.0360 O.2   502  G4P502     -0.2221
     35  O2D       69.5850   85.4930    5.0850 O.3   502  G4P502     -0.1143
     36  O3D       69.7630   87.1800    7.0460 O.3   502  G4P502     -0.1143
@<TRIPOS>BOND
     1     7     6    2
     2    34    33    2
     3    35    33    1
     4    33    32    1
     5    33    36    1
     6     6     9    1
     7     6     8    1
     8     6     5    1
     9    20    19    1
    10    20    21    2
    11    10     9    1
    12    10    11    1
    13    19    18    1
    14    32    29    1
    15     5     1    1
    16    23    22    2
    17    21    22    1
    18    21    28    1
    19    15    13    1
    20    15    16    1
    21    15    17    1
    22    11    13    1
    23    11    12    1
    24     4     1    2
    25    13    14    1
    26    31    29    2
    27    18    17    1
    28    18    28    1
    29    22    24    2
    30     1     3    1
    31     1     2    1
    32    29    14    1
    33    29    30    1
    34    17    12    1
    35    28    27    2
    36    24    25    2
    37    27    25    2
    38    25    26    1
