@<TRIPOS>MOLECULE
4edv_0O2_A_1.pdb
 40 42 0 0 0
SMALL
GASTEIGER

@<TRIPOS>ATOM
      1  PD       118.4130  113.8890   -7.6070 P.3   502  0O2502      0.5373
      2  O1D      118.4520  112.3480   -7.4180 O.3   502  0O2502     -0.1143
      3  O2D      118.5800  114.5740   -6.2170 O.3   502  0O2502     -0.1143
      4  O3D      117.0470  114.3070   -8.2420 O.2   502  0O2502     -0.2221
      5  PG       125.9130  121.7600   -9.9160 P.3   502  0O2502      0.5373
      6  O1G      127.4330  122.0070  -10.1280 O.3   502  0O2502     -0.1143
      7  O2G      125.3820  120.8360  -11.0560 O.2   502  0O2502     -0.2221
      8  O3G      125.1920  123.1480  -10.0020 O.3   502  0O2502     -0.1143
      9  PB       124.4200  121.1860   -7.6290 P.3   502  0O2502      0.2277
     10  O1B      123.2000  121.1610   -8.6080 O.2   502  0O2502     -0.5168
     11  O2B      124.4520  122.5360   -6.8480 O.3   502  0O2502     -0.4368
     12  O3B      125.7340  121.0360   -8.5130 O.3   502  0O2502     -0.2258
     13  O3A      124.3470  119.9830   -6.6330 O.3   502  0O2502     -0.2700
     14  PA       123.3980  118.7780   -6.8930 P.3   502  0O2502      0.2189
     15  O1A      123.7280  117.6240   -5.8950 O.3   502  0O2502     -0.4371
     16  O2A      121.9200  119.2150   -6.6830 O.2   502  0O2502     -0.5170
     17  O5'      123.5670  118.2600   -8.3600 O.3   502  0O2502     -0.3112
     18  C5'      122.4700  118.2730   -9.2060 C.3   502  0O2502      0.1812
     19  C4'      122.4670  117.0670  -10.1450 C.3   502  0O2502      0.1771
     20  O4'      123.7840  116.6230  -10.4190 O.3   502  0O2502     -0.3327
     21  C3'      121.6470  115.9500   -9.5580 C.3   502  0O2502      0.1857
     22  O3'      120.7720  115.4020  -10.4980 O.3   502  0O2502     -0.3109
     23  C2'      122.6620  115.0010   -9.0870 C.3   502  0O2502      0.2282
     24  O2'      122.2290  113.7250   -9.1040 O.3   502  0O2502     -0.2159
     25  C1'      123.7170  115.2540  -10.1240 C.3   502  0O2502      0.2292
     26  N9       125.0050  114.7370   -9.6690 N.pl3 502  0O2502     -0.2354
     27  C8       125.6270  115.0140   -8.4190 C.3   502  0O2502      0.2246
     28  N7       126.8660  114.3000   -8.3830 N.2   502  0O2502     -0.2322
     29  C5       127.0060  113.5720   -9.6300 C.2   502  0O2502      0.2182
     30  C6       127.9960  112.7330  -10.1210 C.1   502  0O2502      0.2372
     31  O6       129.1160  112.4660   -9.3590 O.2   502  0O2502     -0.2069
     32  N1       127.8560  112.1710  -11.3620 N.2   502  0O2502     -0.2485
     33  C2       126.7400  112.4360  -12.1270 C.1   502  0O2502      0.2531
     34  N2       126.5950  111.8350  -13.4490 N.pl3 502  0O2502     -0.0226
     35  N3       125.7450  113.2760  -11.6390 N.2   502  0O2502     -0.3074
     36  C4       125.8710  113.8340  -10.4170 C.2   502  0O2502      0.2300
     37  PC       119.3620  114.9160   -9.9700 P.3   502  0O2502      0.2231
     38  O1C      118.4060  116.1480   -9.9240 O.3   502  0O2502     -0.4370
     39  O2C      118.7790  113.8240  -10.9070 O.2   502  0O2502     -0.5169
     40  O3C      119.5880  114.3470   -8.5230 O.3   502  0O2502     -0.2261
@<TRIPOS>BOND
     1    34    33    1
     2    33    35    2
     3    33    32    2
     4    35    36    2
     5    32    30    2
     6     7     5    2
     7    39    37    2
     8    22    37    1
     9    22    21    1
    10    20    19    1
    11    20    25    1
    12    36    26    1
    13    36    29    1
    14    19    21    1
    15    19    18    1
    16     6     5    1
    17    25    26    1
    18    25    23    1
    19    30    29    1
    20    30    31    2
    21     8     5    1
    22    37    38    1
    23    37    40    1
    24     5    12    1
    25    26    27    1
    26    29    28    2
    27    21    23    1
    28    18    17    1
    29    24    23    1
    30    10     9    2
    31    40     1    1
    32    12     9    1
    33    27    28    1
    34    17    14    1
    35     4     1    2
    36     9    11    1
    37     9    13    1
    38     1     2    1
    39     1     3    1
    40    14    16    2
    41    14    13    1
    42    14    15    1
