@<TRIPOS>MOLECULE
4edy_GSH_A_1.pdb
 20 19 0 0 0
SMALL
GASTEIGER

@<TRIPOS>ATOM
      1  N1        16.3900   -7.9530   16.5990 N.3   202  GSH202     -0.1208
      2  CA1       17.3800   -7.9910   17.6640 C.3   202  GSH202      0.1948
      3  C1        16.7770   -7.4120   18.9160 C.2   202  GSH202      0.3819
      4  O11       15.8720   -6.5460   18.8660 O.co2 202  GSH202     -0.2441
      5  O12       17.1650   -7.8020   20.0420 O.co2 202  GSH202     -0.2441
      6  CB1       18.6330   -7.2350   17.2180 C.3   202  GSH202      0.0402
      7  CG1       19.7330   -7.2390   18.2790 C.3   202  GSH202      0.0889
      8  CD1       20.9340   -6.4500   17.8030 C.2   202  GSH202      0.2418
      9  OE1       21.3760   -6.5660   16.4710 O.2   202  GSH202     -0.2733
     10  N2        21.5360   -5.6680   18.7010 N.am  202  GSH202     -0.1968
     11  CA2       22.7190   -4.8870   18.3760 C.3   202  GSH202      0.1843
     12  C2        23.9850   -5.6610   18.5540 C.2   202  GSH202      0.2627
     13  O2        24.1200   -6.5680   19.6200 O.2   202  GSH202     -0.2714
     14  CB2       22.8090   -3.6620   19.2730 C.3   202  GSH202      0.0997
     15  SG2       21.5000   -2.4840   18.8930 S.3   202  GSH202     -0.0797
     16  N3        24.9430   -5.4160   17.6660 N.am  202  GSH202     -0.1917
     17  CA3       26.3450   -5.3930   18.0330 C.3   202  GSH202      0.2285
     18  C3        27.1050   -6.4570   17.2830 C.2   202  GSH202      0.3865
     19  O31       26.5180   -7.1810   16.4500 O.co2 202  GSH202     -0.2437
     20  O32       28.3280   -6.6260   17.4780 O.co2 202  GSH202     -0.2437
@<TRIPOS>BOND
     1    19    18   ar
     2     9     8    2
     3     1     2    1
     4     6     2    1
     5     6     7    1
     6    18    20   ar
     7    18    17    1
     8     2     3    1
     9    16    17    1
    10    16    12   am
    11     8     7    1
    12     8    10   am
    13    11    12    1
    14    11    10    1
    15    11    14    1
    16    12    13    2
    17     4     3   ar
    18    15    14    1
    19     3     5   ar
