@<TRIPOS>MOLECULE
4edy_9PQ_A_1.pdb
 29 32 0 0 0
SMALL
GASTEIGER

@<TRIPOS>ATOM
      1  O24       24.0240    2.7380   17.2800 O.2   203  9PQ203     -0.2684
      2  C23       23.3300    1.7870   17.6050 C.2   203  9PQ203      0.2648
      3  N25       23.8550    0.6070   17.9270 N.am  203  9PQ203     -0.2002
      4  C26       25.2470    0.1910   17.9610 C.3   203  9PQ203      0.1327
      5  C27       25.9300    0.8560   19.1520 C.3   203  9PQ203      0.0959
      6  N7        27.3860    0.8440   18.9200 N.3   203  9PQ203     -0.2669
      7  C12       27.9410   -0.5070   19.1250 C.3   203  9PQ203      0.1047
      8  C11       29.4350   -0.4910   18.8250 C.3   203  9PQ203      0.1595
      9  O10       30.0780    0.4560   19.6770 O.3   203  9PQ203     -0.3508
     10  C9        29.5570    1.7790   19.5390 C.3   203  9PQ203      0.1595
     11  C8        28.0580    1.7870   19.8280 C.3   203  9PQ203      0.1047
     12  C16       21.8330    1.9190   17.6420 C.ar  203  9PQ203      0.0550
     13  C15       21.0750    0.9600   18.3050 C.ar  203  9PQ203      0.0046
     14  C14       19.6930    1.0630   18.3410 C.ar  203  9PQ203      0.0001
     15  C17       21.1910    2.9810   17.0090 C.ar  203  9PQ203      0.0046
     16  C18       19.7990    3.0840   17.0420 C.ar  203  9PQ203      0.0001
     17  C13       19.0490    2.1170   17.7010 C.ar  203  9PQ203     -0.0002
     18  C19       17.5650    2.1700   17.7910 C.ar  203  9PQ203     -0.0015
     19  C2        16.7070    1.0870   17.2300 C.ar  203  9PQ203     -0.0002
     20  C20       16.8860    3.2960   18.4860 C.ar  203  9PQ203      0.0106
     21  C28       17.7190    4.4130   19.0790 C.3   203  9PQ203      0.2086
     22  O29       17.0100    5.0880   20.1170 O.3   203  9PQ203     -0.2152
     23  C21       15.4890    3.3210   18.5790 C.ar  203  9PQ203     -0.0017
     24  C22       14.6860    2.3100   18.0510 C.ar  203  9PQ203     -0.0002
     25  C1        15.2350    1.2140   17.3930 C.ar  203  9PQ203     -0.0000
     26  C6        14.4070    0.2260   16.8770 C.ar  203  9PQ203     -0.0000
     27  C5        14.9640   -0.8630   16.2160 C.ar  203  9PQ203     -0.0000
     28  C4        16.3390   -0.9850   16.0590 C.ar  203  9PQ203     -0.0000
     29  C3        17.2160   -0.0250   16.5590 C.ar  203  9PQ203     -0.0000
@<TRIPOS>BOND
     1    28    27   ar
     2    28    29   ar
     3    27    26   ar
     4    29    19   ar
     5    26    25   ar
     6    15    16   ar
     7    15    12   ar
     8    16    17   ar
     9    19    25   ar
    10    19    18   ar
    11     1     2    2
    12    25    24   ar
    13     2    12    1
    14     2     3   am
    15    12    13   ar
    16    17    18    1
    17    17    14   ar
    18    18    20   ar
    19     3     4    1
    20     4     5    1
    21    24    23   ar
    22    13    14   ar
    23    20    23   ar
    24    20    21    1
    25     8     7    1
    26     8     9    1
    27     6     7    1
    28     6     5    1
    29     6    11    1
    30    21    22    1
    31    10     9    1
    32    10    11    1
