@<TRIPOS>MOLECULE
4edz_0O5_A_1.pdb
 28 31 0 0 0
SMALL
GASTEIGER

@<TRIPOS>ATOM
      1  O19       34.8260   14.9780  -25.9690 O.2   202  0O5202     -0.2684
      2  C18       34.3380   14.4470  -24.9870 C.2   202  0O5202      0.2648
      3  N20       34.6740   14.8060  -23.7440 N.am  202  0O5202     -0.2002
      4  C21       35.6050   15.8460  -23.3320 C.3   202  0O5202      0.1327
      5  C22       34.8330   16.6460  -22.2880 C.3   202  0O5202      0.0959
      6  N23       35.1730   18.0820  -22.2410 N.3   202  0O5202     -0.2669
      7  C28       36.6180   18.3480  -22.1360 C.3   202  0O5202      0.1047
      8  C24       36.7950   19.8390  -21.8480 C.3   202  0O5202      0.1595
      9  O26       36.1470   20.6260  -22.8590 O.3   202  0O5202     -0.3508
     10  C25       34.7630   20.3140  -23.0450 C.3   202  0O5202      0.1595
     11  C27       34.6190   18.8330  -23.3770 C.3   202  0O5202      0.1047
     12  C13       33.3310   13.3520  -25.1920 C.ar  202  0O5202      0.0550
     13  C17       33.2630   12.6700  -26.4120 C.ar  202  0O5202      0.0046
     14  C14       32.3260   11.6580  -26.6060 C.ar  202  0O5202      0.0027
     15  C16       32.4430   13.0320  -24.1710 C.ar  202  0O5202      0.0046
     16  C15       31.5010   12.0280  -24.3720 C.ar  202  0O5202      0.0027
     17  C9        31.4550   11.3210  -25.5750 C.ar  202  0O5202      0.0296
     18  C4        30.4070   10.2760  -25.7170 C.2   202  0O5202      0.1302
     19  N6        29.5420   10.3950  -26.7600 N.2   202  0O5202     -0.4102
     20  C2        28.5280    9.5330  -26.9770 C.2   202  0O5202      0.0914
     21  C1        27.6180    9.7370  -28.1600 C.3   202  0O5202      0.0618
     22  C7        30.2580    9.2200  -24.8080 C.ar  202  0O5202      0.0260
     23  C12       31.0910    9.0060  -23.7080 C.ar  202  0O5202      0.0022
     24  C11       30.8570    7.9250  -22.8660 C.ar  202  0O5202      0.0001
     25  C10       29.8040    7.0350  -23.0840 C.ar  202  0O5202     -0.0003
     26  C8        28.9410    7.2070  -24.1600 C.ar  202  0O5202     -0.0038
     27  C5        29.1410    8.2680  -25.0360 C.ar  202  0O5202     -0.0130
     28  C3        28.3120    8.4580  -26.1230 C.3   202  0O5202      0.0807
@<TRIPOS>BOND
     1    21    20    1
     2    20    19    2
     3    20    28    1
     4    19    18    2
     5    14    13   ar
     6    14    17   ar
     7    13    12   ar
     8    28    27    1
     9     1     2    2
    10    18    17    1
    11    18    22    1
    12    17    16   ar
    13    12     2    1
    14    12    15   ar
    15    27    22   ar
    16    27    26   ar
    17     2     3   am
    18    22    23   ar
    19    16    15   ar
    20    26    25   ar
    21     3     4    1
    22    23    24   ar
    23    11    10    1
    24    11     6    1
    25     4     5    1
    26    25    24   ar
    27    10     9    1
    28     9     8    1
    29     5     6    1
    30     6     7    1
    31     7     8    1
