@<TRIPOS>MOLECULE
4edz_GSH_A_1.pdb
 20 19 0 0 0
SMALL
GASTEIGER

@<TRIPOS>ATOM
      1  N1        27.2320    7.8090  -16.9040 N.3   201  GSH201     -0.1208
      2  CA1       27.1160    9.2540  -16.7570 C.3   201  GSH201      0.1948
      3  C1        26.0660    9.7750  -17.6880 C.2   201  GSH201      0.3819
      4  O11       25.7480    9.1410  -18.7210 O.co2 201  GSH201     -0.2441
      5  O12       25.4970   10.8600  -17.4330 O.co2 201  GSH201     -0.2441
      6  CB1       28.4360    9.9370  -17.0720 C.3   201  GSH201      0.0402
      7  CG1       28.4790   11.4010  -16.6320 C.3   201  GSH201      0.0889
      8  CD1       29.8080   12.0040  -17.0130 C.2   201  GSH201      0.2418
      9  OE1       30.9660   11.4520  -16.4600 O.2   201  GSH201     -0.2733
     10  N2        29.8340   13.0410  -17.8600 N.am  201  GSH201     -0.1968
     11  CA2       31.0780   13.7350  -18.1480 C.3   201  GSH201      0.1843
     12  C2        31.4740   14.6100  -17.0050 C.2   201  GSH201      0.2627
     13  O2        30.5060   15.2740  -16.2330 O.2   201  GSH201     -0.2714
     14  CB2       30.9730   14.6090  -19.3890 C.3   201  GSH201      0.0997
     15  SG2       30.7470   13.6120  -20.8730 S.3   201  GSH201     -0.0797
     16  N3        32.7660   14.7210  -16.7850 N.am  201  GSH201     -0.1917
     17  CA3       33.3610   16.0080  -16.4660 C.3   201  GSH201      0.2285
     18  C3        33.8480   16.0180  -15.0470 C.2   201  GSH201      0.3865
     19  O31       34.2200   17.0830  -14.5010 O.co2 201  GSH201     -0.2437
     20  O32       33.8870   14.9470  -14.4060 O.co2 201  GSH201     -0.2437
@<TRIPOS>BOND
     1    15    14    1
     2    14    11    1
     3     4     3   ar
     4    11    10    1
     5    11    12    1
     6    10     8   am
     7     3     5   ar
     8     3     2    1
     9     6     2    1
    10     6     7    1
    11     8     7    1
    12     8     9    2
    13    12    16   am
    14    12    13    2
    15     1     2    1
    16    16    17    1
    17    17    18    1
    18    18    19   ar
    19    18    20   ar
