@<TRIPOS>MOLECULE
4ee0_0O4_A_1.pdb
 27 30 0 0 0
SMALL
GASTEIGER

@<TRIPOS>ATOM
      1  O1        23.5820    2.6570   18.1010 O.2   202  0O4202     -0.2684
      2  C2        23.1250    1.5280   18.0970 C.2   202  0O4202      0.2648
      3  N3        23.9430    0.4690   18.1140 N.am  202  0O4202     -0.2002
      4  C4        25.4070    0.5150   18.1240 C.3   202  0O4202      0.1327
      5  C5        25.8110    0.1090   19.5400 C.3   202  0O4202      0.0959
      6  N6        27.1380    0.6050   19.9270 N.3   202  0O4202     -0.2669
      7  C11       27.4750    0.5120   21.3470 C.3   202  0O4202      0.1047
      8  C10       28.6170    1.4820   21.6290 C.3   202  0O4202      0.1595
      9  O9        29.7680    1.1560   20.8430 O.3   202  0O4202     -0.3508
     10  C8        29.4920    0.6970   19.5090 C.3   202  0O4202      0.1595
     11  C7        28.1220    1.1520   18.9950 C.3   202  0O4202      0.1047
     12  C12       21.6270    1.3570   18.1000 C.ar  202  0O4202      0.0550
     13  C13       20.7780    2.4670   18.0230 C.ar  202  0O4202      0.0046
     14  C17       21.0600    0.0900   18.1850 C.ar  202  0O4202      0.0046
     15  C16       19.6790   -0.0580   18.1970 C.ar  202  0O4202      0.0016
     16  C15       18.8300    1.0500   18.0740 C.ar  202  0O4202      0.0177
     17  C14       19.3880    2.3200   18.0300 C.ar  202  0O4202      0.0016
     18  C18       17.3670    0.8130   18.1510 C.ar  202  0O4202      0.0813
     19  N19       16.6780    1.5780   19.0420 N.ar  202  0O4202     -0.2438
     20  C20       15.3570    1.4130   19.2480 C.ar  202  0O4202      0.0988
     21  C27       16.7060   -0.1980   17.4380 C.ar  202  0O4202      0.0177
     22  C26       17.3540   -1.0120   16.5030 C.ar  202  0O4202      0.0015
     23  C25       16.6440   -1.9860   15.8190 C.ar  202  0O4202      0.0000
     24  C22       15.3390   -0.3670   17.6420 C.ar  202  0O4202      0.0030
     25  C21       14.6660    0.4330   18.5520 C.ar  202  0O4202      0.0207
     26  C23       14.6400   -1.3490   16.9550 C.ar  202  0O4202      0.0001
     27  C24       15.2940   -2.1550   16.0440 C.ar  202  0O4202      0.0000
@<TRIPOS>BOND
     1    23    27   ar
     2    23    22   ar
     3    27    26   ar
     4    22    21   ar
     5    26    24   ar
     6    21    24   ar
     7    21    18   ar
     8    24    25   ar
     9    13    17   ar
    10    13    12   ar
    11    17    16   ar
    12    16    18    1
    13    16    15   ar
    14     2    12    1
    15     2     1    2
    16     2     3   am
    17    12    14   ar
    18     3     4    1
    19     4     5    1
    20    18    19   ar
    21    14    15   ar
    22    25    20   ar
    23    11    10    1
    24    11     6    1
    25    19    20   ar
    26    10     9    1
    27     5     6    1
    28     6     7    1
    29     9     8    1
    30     7     8    1
