@<TRIPOS>MOLECULE
4ee0_GSF_A_1.pdb
 22 21 0 0 0
SMALL
GASTEIGER

@<TRIPOS>ATOM
      1  CB1       19.0240   -7.9970   17.3950 C.3   203  GSF203      0.0402
      2  CG1       20.0310   -7.7460   18.5170 C.3   203  GSF203      0.0889
      3  CD1       21.2830   -7.0800   17.9760 C.2   203  GSF203      0.2419
      4  OE1       21.6230   -7.2490   16.8100 O.2   203  GSF203     -0.2733
      5  C1        17.1990   -8.3210   19.1130 C.2   203  GSF203      0.3819
      6  O11       17.6330   -8.7830   20.1870 O.co2 203  GSF203     -0.2441
      7  O12       16.2670   -7.4860   19.0700 O.co2 203  GSF203     -0.2441
      8  N1        16.7920   -8.7190   16.7780 N.3   203  GSF203     -0.1208
      9  CA1       17.8000   -8.8090   17.8230 C.3   203  GSF203      0.1948
     10  N2        21.9800   -6.3110   18.8190 N.am  203  GSF203     -0.1959
     11  CA2       23.2100   -5.6430   18.4030 C.3   203  GSF203      0.1959
     12  CB2       23.6070   -4.6180   19.4660 C.3   203  GSF203      0.1788
     13  SG2       22.7520   -3.2020   19.3020 S.3   203  GSF203     -0.0161
     14  O1S       22.7830   -2.7590   17.7310 O.3   203  GSF203     -0.0781
     15  O2S       21.2290   -3.4990   19.8020 O.3   203  GSF203     -0.0781
     16  C2        24.3320   -6.6300   18.3490 C.2   203  GSF203      0.2635
     17  O2        24.3160   -7.5890   19.1020 O.2   203  GSF203     -0.2714
     18  N3        25.3190   -6.3970   17.4840 N.am  203  GSF203     -0.1917
     19  CA3       26.4980   -7.2260   17.2810 C.3   203  GSF203      0.2285
     20  C3        27.6250   -6.8220   18.2090 C.2   203  GSF203      0.3865
     21  O31       28.5470   -7.6490   18.3970 O.co2 203  GSF203     -0.2437
     22  O32       27.6110   -5.6870   18.7460 O.co2 203  GSF203     -0.2437
@<TRIPOS>BOND
     1     8     9    1
     2     4     3    2
     3    19    18    1
     4    19    20    1
     5     1     9    1
     6     1     2    1
     7    18    16   am
     8    14    13    1
     9     9     5    1
    10     3     2    1
    11     3    10   am
    12    20    21   ar
    13    20    22   ar
    14    16    11    1
    15    16    17    2
    16    11    10    1
    17    11    12    1
    18     7     5   ar
    19     5     6   ar
    20    13    12    1
    21    13    15    1
