@<TRIPOS>MOLECULE
4ee1_CTP_A_1.pdb
 29 30 0 0 0
SMALL
GASTEIGER

@<TRIPOS>ATOM
      1  N1        38.3810  -37.4710    4.4670 N.am  501  CTP501     -0.1778
      2  C2        39.6270  -37.9450    4.0880 C.1   501  CTP501      0.2756
      3  N3        40.6200  -38.1400    5.0290 N.2   501  CTP501     -0.3024
      4  C4        40.3670  -37.8700    6.3590 C.2   501  CTP501      0.2346
      5  C5        39.0910  -37.4760    6.7430 C.2   501  CTP501      0.0687
      6  C6        38.1540  -37.1350    5.7720 C.2   501  CTP501      0.0836
      7  O2        39.8570  -38.1990    2.9070 O.2   501  CTP501     -0.1925
      8  N4        41.3400  -37.9860    7.2600 N.pl3 501  CTP501     -0.0921
      9  C1'       37.2590  -37.4950    3.5030 C.3   501  CTP501      0.2400
     10  C2'       36.4250  -38.7400    3.7530 C.3   501  CTP501      0.2319
     11  O2'       36.3800  -39.5010    2.5670 O.3   501  CTP501     -0.2157
     12  C3'       35.0360  -38.2350    4.0700 C.3   501  CTP501      0.2158
     13  C4'       35.0490  -36.7980    3.5730 C.3   501  CTP501      0.1799
     14  O4'       36.3980  -36.3770    3.6510 O.3   501  CTP501     -0.3320
     15  O3'       34.0660  -39.0130    3.4140 O.3   501  CTP501     -0.2175
     16  C5'       34.1260  -35.9000    4.3870 C.3   501  CTP501      0.1813
     17  O5'       34.7080  -35.5730    5.6300 O.3   501  CTP501     -0.3112
     18  PA        33.9170  -35.9250    6.9870 P.3   501  CTP501      0.2189
     19  O1A       32.8890  -34.8440    7.2020 O.2   501  CTP501     -0.5170
     20  O2A       34.8400  -36.0330    8.1790 O.3   501  CTP501     -0.4371
     21  O3A       33.1930  -37.3230    6.6430 O.3   501  CTP501     -0.2700
     22  PB        32.1410  -38.0080    7.6460 P.3   501  CTP501      0.2277
     23  O1B       31.1130  -38.8080    6.8860 O.2   501  CTP501     -0.5168
     24  O2B       31.5080  -36.9910    8.5510 O.3   501  CTP501     -0.4368
     25  O3B       33.0260  -39.0040    8.5490 O.3   501  CTP501     -0.2258
     26  PG        32.4610  -39.6340    9.9240 P.3   501  CTP501      0.5373
     27  O1G       32.9160  -41.0760    9.9500 O.2   501  CTP501     -0.2221
     28  O2G       30.9580  -39.6250    9.9930 O.3   501  CTP501     -0.1143
     29  O3G       33.0240  -38.9020   11.1190 O.3   501  CTP501     -0.1143
@<TRIPOS>BOND
     1    11    10    1
     2     7     2    2
     3    15    12    1
     4     9    14    1
     5     9    10    1
     6     9     1    1
     7    13    14    1
     8    13    12    1
     9    13    16    1
    10    10    12    1
    11     2     1   am
    12     2     3    2
    13    16    17    1
    14     1     6    1
    15     3     4    2
    16    17    18    1
    17     6     5    2
    18     4     5    1
    19     4     8    1
    20    21    18    1
    21    21    22    1
    22    23    22    2
    23    18    19    2
    24    18    20    1
    25    22    25    1
    26    22    24    1
    27    25    26    1
    28    26    27    2
    29    26    28    1
    30    26    29    1
