@<TRIPOS>MOLECULE
4ee3_GAL_A_1.pdb
 11 11 0 0 0
SMALL
GASTEIGER

@<TRIPOS>ATOM
      1  C1        27.2150   58.7840  115.6830 C.3   402  GAL402      0.1777
      2  C2        26.3700   59.7000  116.5670 C.3   402  GAL402      0.2141
      3  C3        27.0540   60.0120  117.8950 C.3   402  GAL402      0.2173
      4  C4        27.3670   58.6440  118.5220 C.3   402  GAL402      0.2142
      5  C5        28.2160   57.7940  117.5610 C.3   402  GAL402      0.1810
      6  C6        28.7240   56.4600  118.1090 C.3   402  GAL402      0.2141
      7  O2        26.1370   60.9350  115.9200 O.3   402  GAL402     -0.2176
      8  O3        26.1340   60.7460  118.6930 O.3   402  GAL402     -0.2175
      9  O4        26.1460   57.9790  118.8200 O.3   402  GAL402     -0.2176
     10  O5        27.4320   57.5700  116.4000 O.3   402  GAL402     -0.3481
     11  O6        27.6020   55.7210  118.5580 O.3   402  GAL402     -0.2176
@<TRIPOS>BOND
     1     1    10    1
     2     1     2    1
     3     7     2    1
     4    10     5    1
     5     2     3    1
     6     5     6    1
     7     5     4    1
     8     3     4    1
     9     3     8    1
    10     6    11    1
    11     4     9    1
