@<TRIPOS>MOLECULE
4ee3_UDH_A_1.pdb
 32 33 0 0 0
SMALL
GASTEIGER

@<TRIPOS>ATOM
      1  N1        16.1200   46.5820  112.8640 N.am  406  UDH406     -0.1766
      2  C2        15.0410   46.0810  112.1080 C.1   406  UDH406      0.2845
      3  N3        13.9910   46.8830  111.8360 N.2   406  UDH406     -0.2452
      4  C4        13.9780   48.2020  112.1540 C.1   406  UDH406      0.2182
      5  C5        15.0680   48.8130  112.8420 C.2   406  UDH406      0.1242
      6  C6        16.1900   47.9920  113.1030 C.2   406  UDH406      0.0929
      7  O2        14.9220   44.7540  111.8340 O.2   406  UDH406     -0.1918
      8  O4        12.9110   48.7870  111.8470 O.2   406  UDH406     -0.2085
      9  C1B       17.2170   45.6380  113.1800 C.3   406  UDH406      0.2401
     10  C2B       17.9590   45.0390  112.0090 C.3   406  UDH406      0.2319
     11  O2'       18.3620   43.7280  112.4680 O.3   406  UDH406     -0.2157
     12  C3B       19.1100   46.0050  111.8980 C.3   406  UDH406      0.2158
     13  C4B       19.4820   46.2280  113.3490 C.3   406  UDH406      0.1799
     14  O4'       18.2110   46.2850  113.9720 O.3   406  UDH406     -0.3320
     15  O3'       20.2170   45.4460  111.2210 O.3   406  UDH406     -0.2175
     16  C5B       20.2300   47.5130  113.6270 C.3   406  UDH406      0.1813
     17  O5'       19.4710   48.6320  113.2040 O.3   406  UDH406     -0.3112
     18  PA        20.0040   49.3900  111.8970 P.3   406  UDH406      0.2189
     19  O1A       20.3660   48.3970  110.8060 O.2   406  UDH406     -0.5170
     20  O2A       19.0440   50.4640  111.5560 O.3   406  UDH406     -0.4371
     21  O3A       21.2770   50.1570  112.5200 O.3   406  UDH406     -0.2703
     22  PB        22.3450   50.9110  111.5890 P.3   406  UDH406      0.2188
     23  O1B       23.2080   51.7050  112.5150 O.3   406  UDH406     -0.4371
     24  O2B       21.5980   52.1000  110.8540 O.3   406  UDH406     -0.3139
     25  O3B       22.8450   49.9080  110.5640 O.2   406  UDH406     -0.5170
     26  C1'       20.9010   53.2050  111.4390 C.3   406  UDH406      0.1491
     27  C2'       20.1930   53.9340  110.2730 C.3   406  UDH406      0.0325
     28  C3'       21.2690   54.8100  109.6070 C.3   406  UDH406      0.0026
     29  C4'       21.1080   55.2720  108.1520 C.3   406  UDH406      0.0016
     30  C5'       22.2950   56.1750  107.7770 C.3   406  UDH406      0.0205
     31  C6'       22.4390   56.5250  106.2950 C.3   406  UDH406      0.1093
     32  N6'       23.8260   56.9390  106.0750 N.3   406  UDH406     -0.1314
@<TRIPOS>BOND
     1    32    31    1
     2    31    30    1
     3    30    29    1
     4    29    28    1
     5    28    27    1
     6    27    26    1
     7    25    22    2
     8    19    18    2
     9    24    26    1
    10    24    22    1
    11    15    12    1
    12    20    18    1
    13    22    23    1
    14    22    21    1
    15     7     2    2
    16     3     2    2
    17     3     4    2
    18     8     4    2
    19    18    21    1
    20    18    17    1
    21    12    10    1
    22    12    13    1
    23    10    11    1
    24    10     9    1
    25     2     1   am
    26     4     5    1
    27     5     6    2
    28     1     6    1
    29     1     9    1
    30     9    14    1
    31    17    16    1
    32    13    16    1
    33    13    14    1
