@<TRIPOS>MOLECULE
4ee3_NAG_A_1.pdb
 14 14 0 0 0
SMALL
GASTEIGER

@<TRIPOS>ATOM
      1  C1        27.7640   54.2960  118.5640 C.3   403  NAG403      0.1665
      2  C2        26.5100   53.7030  119.1990 C.3   403  NAG403      0.1576
      3  C3        26.4780   52.2030  118.9900 C.3   403  NAG403      0.2069
      4  C4        26.5390   51.9230  117.4940 C.3   403  NAG403      0.2134
      5  C5        27.8640   52.4350  117.0130 C.3   403  NAG403      0.1809
      6  C6        28.0230   52.2110  115.5100 C.3   403  NAG403      0.2141
      7  C7        25.8780   55.0390  121.2000 C.2   403  NAG403      0.2420
      8  C8        25.9870   55.0770  122.7040 C.3   403  NAG403      0.0964
      9  N2        26.4680   53.9820  120.6160 N.am  403  NAG403     -0.2019
     10  O3        25.2650   51.7680  119.5280 O.3   403  NAG403     -0.2184
     11  O4        26.3850   50.5580  117.1930 O.3   403  NAG403     -0.2176
     12  O5        27.9240   53.8280  117.2490 O.3   403  NAG403     -0.3489
     13  O6        27.2680   53.1010  114.6840 O.3   403  NAG403     -0.2176
     14  O7        25.2450   55.9280  120.5960 O.2   403  NAG403     -0.2733
@<TRIPOS>BOND
     1    13     6    1
     2     6     5    1
     3     5    12    1
     4     5     4    1
     5    11     4    1
     6    12     1    1
     7     4     3    1
     8     1     2    1
     9     3     2    1
    10     3    10    1
    11     2     9    1
    12    14     7    2
    13     9     7   am
    14     7     8    1
