@<TRIPOS>MOLECULE
4ee4_UDP_A_1.pdb
 25 26 0 0 0
SMALL
GASTEIGER

@<TRIPOS>ATOM
      1  N1        15.9380   46.4120  112.9670 N.am  405  UDP405     -0.1996
      2  C2        14.8330   45.9690  112.2410 C.1   405  UDP405      0.2802
      3  N3        13.8230   46.9020  111.9330 N.2   405  UDP405     -0.2497
      4  C4        13.8750   48.2160  112.3740 C.1   405  UDP405      0.1941
      5  C5        14.9850   48.6870  113.1140 C.3   405  UDP405      0.1579
      6  C6        16.0860   47.7880  113.2280 C.3   405  UDP405      0.1249
      7  O2        14.7780   44.7760  111.8530 O.2   405  UDP405     -0.1922
      8  O4        12.9280   48.9280  112.0770 O.2   405  UDP405     -0.2133
      9  C1'       16.9880   45.3930  113.3210 C.3   405  UDP405      0.2361
     10  C2'       17.8390   44.8470  112.1730 C.3   405  UDP405      0.2316
     11  O2'       18.2260   43.5060  112.4710 O.3   405  UDP405     -0.2157
     12  C3'       18.9730   45.8630  112.2170 C.3   405  UDP405      0.2158
     13  C4'       19.2130   46.0600  113.7180 C.3   405  UDP405      0.1799
     14  O4'       17.9080   45.9300  114.2760 O.3   405  UDP405     -0.3322
     15  O3'       20.0960   45.4430  111.4890 O.3   405  UDP405     -0.2175
     16  C5'       19.8560   47.3950  114.1330 C.3   405  UDP405      0.1813
     17  O5'       19.4380   48.5910  113.4970 O.3   405  UDP405     -0.3111
     18  PA        20.3030   49.4110  112.3440 P.3   405  UDP405      0.2231
     19  O1A       21.7720   49.3320  112.5760 O.3   405  UDP405     -0.4370
     20  O2A       20.0550   48.8330  110.9960 O.2   405  UDP405     -0.5169
     21  O3A       19.8460   50.9920  112.3400 O.3   405  UDP405     -0.2261
     22  PB        20.4400   52.1900  111.3760 P.3   405  UDP405      0.5373
     23  O1B       20.9960   53.2950  112.2150 O.3   405  UDP405     -0.1143
     24  O2B       19.3640   52.8080  110.5320 O.3   405  UDP405     -0.1143
     25  O3B       21.5510   51.6500  110.5240 O.2   405  UDP405     -0.2221
@<TRIPOS>BOND
     1    25    22    2
     2    24    22    1
     3    20    18    2
     4    22    23    1
     5    22    21    1
     6    15    12    1
     7     7     2    2
     8     3     2    2
     9     3     4    2
    10     8     4    2
    11    10    12    1
    12    10    11    1
    13    10     9    1
    14    12    13    1
    15     2     1   am
    16    21    18    1
    17    18    19    1
    18    18    17    1
    19     4     5    1
    20     1     6    1
    21     1     9    1
    22     5     6    1
    23     9    14    1
    24    17    16    1
    25    13    16    1
    26    13    14    1
