@<TRIPOS>MOLECULE
4ee4_BGC_A_1.pdb
 12 12 0 0 0
SMALL
GASTEIGER

@<TRIPOS>ATOM
      1  C2        27.0060   55.4640  112.2720 C.3   401  BGC401      0.2434
      2  C3        26.4930   56.0920  113.5610 C.3   401  BGC401      0.2199
      3  C4        26.6650   57.6140  113.5060 C.3   401  BGC401      0.2144
      4  C5        26.0610   58.2030  112.1960 C.3   401  BGC401      0.1836
      5  C6        26.4970   59.6350  111.8710 C.3   401  BGC401      0.2142
      6  C1        26.3200   56.1320  111.0760 C.3   401  BGC401      0.3024
      7  O1        26.9280   55.5990  109.9150 O.3   401  BGC401     -0.1869
      8  O2        26.6600   54.1080  112.1870 O.3   401  BGC401     -0.2148
      9  O3        27.0750   55.4730  114.7310 O.3   401  BGC401     -0.2174
     10  O4        25.9520   58.1820  114.5920 O.3   401  BGC401     -0.2176
     11  O5        26.5050   57.5240  111.0560 O.3   401  BGC401     -0.3236
     12  O6        27.8690   59.6790  112.1900 O.3   401  BGC401     -0.2176
@<TRIPOS>BOND
     1     7     6    1
     2    11     6    1
     3    11     4    1
     4     6     1    1
     5     5    12    1
     6     5     4    1
     7     8     1    1
     8     4     3    1
     9     1     2    1
    10     3     2    1
    11     3    10    1
    12     2     9    1
