@<TRIPOS>MOLECULE
4ee4_GAL_A_1.pdb
 11 11 0 0 0
SMALL
GASTEIGER

@<TRIPOS>ATOM
      1  C1        26.7630   58.6220  115.6850 C.3   402  GAL402      0.1777
      2  C2        25.9800   59.6650  116.4940 C.3   402  GAL402      0.2141
      3  C3        26.6510   60.0690  117.8140 C.3   402  GAL402      0.2173
      4  C4        26.9790   58.7740  118.5570 C.3   402  GAL402      0.2142
      5  C5        27.8330   57.8930  117.6310 C.3   402  GAL402      0.1810
      6  C6        28.3530   56.6220  118.2700 C.3   402  GAL402      0.2141
      7  O2        25.7520   60.8260  115.7300 O.3   402  GAL402     -0.2176
      8  O3        25.7050   60.8360  118.5570 O.3   402  GAL402     -0.2175
      9  O4        25.7810   58.0860  118.9400 O.3   402  GAL402     -0.2176
     10  O5        27.1110   57.5030  116.4910 O.3   402  GAL402     -0.3481
     11  O6        27.2280   55.9070  118.6960 O.3   402  GAL402     -0.2176
@<TRIPOS>BOND
     1     1    10    1
     2     1     2    1
     3     7     2    1
     4    10     5    1
     5     2     3    1
     6     5     6    1
     7     5     4    1
     8     3     4    1
     9     3     8    1
    10     6    11    1
    11     4     9    1
