@<TRIPOS>MOLECULE
4ee4_NAG_A_1.pdb
 14 14 0 0 0
SMALL
GASTEIGER

@<TRIPOS>ATOM
      1  C1        27.4730   54.5080  118.6990 C.3   403  NAG403      0.1665
      2  C2        26.3490   53.8420  119.4840 C.3   403  NAG403      0.1576
      3  C3        26.2990   52.3630  119.2430 C.3   403  NAG403      0.2069
      4  C4        26.4180   52.0510  117.7290 C.3   403  NAG403      0.2134
      5  C5        27.7420   52.6570  117.2620 C.3   403  NAG403      0.1809
      6  C6        28.0860   52.3800  115.7940 C.3   403  NAG403      0.2141
      7  C7        25.6910   55.2410  121.3870 C.2   403  NAG403      0.2420
      8  C8        25.8110   55.4620  122.8670 C.3   403  NAG403      0.0964
      9  N2        26.3380   54.1790  120.9140 N.am  403  NAG403     -0.2019
     10  O3        25.0360   51.9400  119.7630 O.3   403  NAG403     -0.2184
     11  O4        26.5220   50.6440  117.5790 O.3   403  NAG403     -0.2176
     12  O5        27.5720   54.0610  117.3590 O.3   403  NAG403     -0.3489
     13  O6        27.0050   52.7020  114.9000 O.3   403  NAG403     -0.2176
     14  O7        25.0220   55.9810  120.6620 O.2   403  NAG403     -0.2733
@<TRIPOS>BOND
     1    13     6    1
     2     6     5    1
     3     5    12    1
     4     5     4    1
     5    12     1    1
     6    11     4    1
     7     4     3    1
     8     1     2    1
     9     3     2    1
    10     3    10    1
    11     2     9    1
    12    14     7    2
    13     9     7   am
    14     7     8    1
