@<TRIPOS>MOLECULE
4ee5_UDP_A_1.pdb
 25 26 0 0 0
SMALL
GASTEIGER

@<TRIPOS>ATOM
      1  N1        15.8980   46.3140  113.0310 N.am  404  UDP404     -0.1996
      2  C2        14.7670   45.8360  112.3590 C.1   404  UDP404      0.2802
      3  N3        13.7300   46.7280  112.1010 N.2   404  UDP404     -0.2497
      4  C4        13.8210   48.0460  112.5100 C.1   404  UDP404      0.1941
      5  C5        14.9510   48.5500  113.1870 C.3   404  UDP404      0.1579
      6  C6        16.0650   47.6830  113.2470 C.3   404  UDP404      0.1249
      7  O2        14.6610   44.6280  112.0180 O.2   404  UDP404     -0.1922
      8  O4        12.8690   48.7460  112.2410 O.2   404  UDP404     -0.2133
      9  C1'       16.9740   45.3560  113.3830 C.3   404  UDP404      0.2361
     10  C2'       17.7760   44.8510  112.2010 C.3   404  UDP404      0.2316
     11  O2'       18.1620   43.5400  112.5610 O.3   404  UDP404     -0.2157
     12  C3'       18.9250   45.8470  112.2100 C.3   404  UDP404      0.2158
     13  C4'       19.2050   46.0380  113.6890 C.3   404  UDP404      0.1799
     14  O4'       17.9170   45.9500  114.2730 O.3   404  UDP404     -0.3322
     15  O3'       20.0240   45.3630  111.4630 O.3   404  UDP404     -0.2175
     16  C5'       19.9050   47.3390  114.1060 C.3   404  UDP404      0.1813
     17  O5'       19.3130   48.5020  113.5790 O.3   404  UDP404     -0.3111
     18  PA        19.9620   49.4600  112.4090 P.3   404  UDP404      0.2231
     19  O1A       19.8660   48.8320  111.0530 O.2   404  UDP404     -0.5169
     20  O2A       19.3110   50.8000  112.3560 O.3   404  UDP404     -0.4370
     21  O3A       21.4970   49.8150  112.7450 O.3   404  UDP404     -0.2261
     22  PB        22.3320   50.6900  111.6540 P.3   404  UDP404      0.5373
     23  O1B       23.1820   51.6330  112.4370 O.3   404  UDP404     -0.1143
     24  O2B       21.4630   51.5170  110.7540 O.2   404  UDP404     -0.2221
     25  O3B       23.1020   49.7080  110.8220 O.3   404  UDP404     -0.1143
@<TRIPOS>BOND
     1    24    22    2
     2    25    22    1
     3    19    18    2
     4    15    12    1
     5    22    23    1
     6    22    21    1
     7     7     2    2
     8     3     2    2
     9     3     4    2
    10    10    12    1
    11    10    11    1
    12    10     9    1
    13    12    13    1
    14     8     4    2
    15    20    18    1
    16     2     1   am
    17    18    21    1
    18    18    17    1
    19     4     5    1
    20     1     6    1
    21     1     9    1
    22     5     6    1
    23     9    14    1
    24    17    16    1
    25    13    16    1
    26    13    14    1
