@<TRIPOS>MOLECULE
4ee5_NAG_A_1.pdb
 14 14 0 0 0
SMALL
GASTEIGER

@<TRIPOS>ATOM
      1  C1        27.8900   54.3290  118.9140 C.3   403  NAG403      0.1665
      2  C2        26.5910   53.8480  119.5690 C.3   403  NAG403      0.1576
      3  C3        26.3230   52.3720  119.3360 C.3   403  NAG403      0.2069
      4  C4        26.4910   52.0770  117.8470 C.3   403  NAG403      0.2134
      5  C5        27.8420   52.5580  117.3170 C.3   403  NAG403      0.1809
      6  C6        27.8920   52.2790  115.8200 C.3   403  NAG403      0.2141
      7  C7        25.8850   55.1590  121.4770 C.2   403  NAG403      0.2420
      8  C8        25.9330   55.3950  122.9560 C.3   403  NAG403      0.0964
      9  N2        26.5880   54.1380  120.9890 N.am  403  NAG403     -0.2019
     10  O3        25.0120   52.0940  119.7640 O.3   403  NAG403     -0.2184
     11  O4        26.5020   50.6950  117.6410 O.3   403  NAG403     -0.2176
     12  O5        28.0320   53.9410  117.5500 O.3   403  NAG403     -0.3489
     13  O6        27.2490   53.3260  115.1070 O.3   403  NAG403     -0.2176
     14  O7        25.2250   55.9100  120.7660 O.2   403  NAG403     -0.2733
@<TRIPOS>BOND
     1    13     6    1
     2     6     5    1
     3     5    12    1
     4     5     4    1
     5    12     1    1
     6    11     4    1
     7     4     3    1
     8     1     2    1
     9     3     2    1
    10     3    10    1
    11     2     9    1
    12    14     7    2
    13     9     7   am
    14     7     8    1
