@<TRIPOS>MOLECULE
4eea_UDP_A_1.pdb
 25 26 0 0 0
SMALL
GASTEIGER

@<TRIPOS>ATOM
      1  N1        15.8220   46.4290  112.8350 N.am  404  UDP404     -0.1996
      2  C2        14.7140   46.0110  112.0850 C.1   404  UDP404      0.2802
      3  N3        13.7230   46.9380  111.7820 N.2   404  UDP404     -0.2497
      4  C4        13.7850   48.2440  112.2170 C.1   404  UDP404      0.1941
      5  C5        14.8800   48.7090  112.9800 C.3   404  UDP404      0.1579
      6  C6        15.9670   47.7930  113.1140 C.3   404  UDP404      0.1249
      7  O2        14.5980   44.8280  111.6640 O.2   404  UDP404     -0.1922
      8  O4        12.8350   48.9320  111.9020 O.2   404  UDP404     -0.2133
      9  C1'       16.8660   45.3970  113.1610 C.3   404  UDP404      0.2361
     10  C2'       17.7020   44.9320  111.9790 C.3   404  UDP404      0.2316
     11  O2'       18.1010   43.5940  112.2600 O.3   404  UDP404     -0.2157
     12  C3'       18.8420   45.9460  112.0230 C.3   404  UDP404      0.2158
     13  C4'       19.1130   46.1210  113.5150 C.3   404  UDP404      0.1799
     14  O4'       17.8370   45.9000  114.0830 O.3   404  UDP404     -0.3322
     15  O3'       19.9930   45.5370  111.3060 O.3   404  UDP404     -0.2175
     16  C5'       19.7160   47.4800  113.9600 C.3   404  UDP404      0.1813
     17  O5'       19.3430   48.6750  113.2800 O.3   404  UDP404     -0.3111
     18  PA        20.1360   49.5820  112.1120 P.3   404  UDP404      0.2231
     19  O1A       19.8280   49.0360  110.7650 O.2   404  UDP404     -0.5169
     20  O2A       19.7140   51.0160  112.1250 O.3   404  UDP404     -0.4370
     21  O3A       21.7580   49.5310  112.3150 O.3   404  UDP404     -0.2261
     22  PB        22.8560   49.3850  111.1020 P.3   404  UDP404      0.5373
     23  O1B       24.1750   49.9740  111.4990 O.3   404  UDP404     -0.1143
     24  O2B       22.3960   50.1820  109.9180 O.2   404  UDP404     -0.2221
     25  O3B       23.1020   47.9170  110.8340 O.3   404  UDP404     -0.1143
@<TRIPOS>BOND
     1    24    22    2
     2    19    18    2
     3    25    22    1
     4    22    23    1
     5    22    21    1
     6    15    12    1
     7     7     2    2
     8     3     2    2
     9     3     4    2
    10     8     4    2
    11    10    12    1
    12    10    11    1
    13    10     9    1
    14    12    13    1
    15     2     1   am
    16    18    20    1
    17    18    21    1
    18    18    17    1
    19     4     5    1
    20     1     6    1
    21     1     9    1
    22     5     6    1
    23     9    14    1
    24    17    16    1
    25    13    16    1
    26    13    14    1
