@<TRIPOS>MOLECULE
4eea_GAL_A_1.pdb
 11 11 0 0 0
SMALL
GASTEIGER

@<TRIPOS>ATOM
      1  C1        26.7530   58.6730  115.5600 C.3   402  GAL402      0.1777
      2  C2        26.0400   59.7700  116.3760 C.3   402  GAL402      0.2141
      3  C3        26.7580   60.0850  117.7070 C.3   402  GAL402      0.2173
      4  C4        27.0010   58.7660  118.4470 C.3   402  GAL402      0.2142
      5  C5        27.9380   57.9260  117.5550 C.3   402  GAL402      0.1810
      6  C6        28.5070   56.6570  118.2070 C.3   402  GAL402      0.2141
      7  O2        25.9200   60.9400  115.5950 O.3   402  GAL402     -0.2176
      8  O3        26.0200   60.9510  118.5500 O.3   402  GAL402     -0.2175
      9  O4        25.7290   58.1450  118.6900 O.3   402  GAL402     -0.2176
     10  O5        27.2490   57.5900  116.3620 O.3   402  GAL402     -0.3481
     11  O6        27.3540   55.9270  118.5890 O.3   402  GAL402     -0.2176
@<TRIPOS>BOND
     1     1    10    1
     2     1     2    1
     3     7     2    1
     4    10     5    1
     5     2     3    1
     6     5     6    1
     7     5     4    1
     8     3     4    1
     9     3     8    1
    10     6    11    1
    11     4     9    1
