@<TRIPOS>MOLECULE
4eea_NAG_A_1.pdb
 14 14 0 0 0
SMALL
GASTEIGER

@<TRIPOS>ATOM
      1  C1        27.5440   54.5210  118.5480 C.3   403  NAG403      0.1665
      2  C2        26.3310   53.9230  119.2480 C.3   403  NAG403      0.1576
      3  C3        26.2660   52.4180  119.0290 C.3   403  NAG403      0.2069
      4  C4        26.4460   52.1040  117.5320 C.3   403  NAG403      0.2134
      5  C5        27.7780   52.6890  117.0770 C.3   403  NAG403      0.1809
      6  C6        28.1170   52.3840  115.6220 C.3   403  NAG403      0.2141
      7  C7        25.6520   55.2560  121.1570 C.2   403  NAG403      0.2420
      8  C8        25.7870   55.4720  122.6400 C.3   403  NAG403      0.0964
      9  N2        26.3470   54.2470  120.6700 N.am  403  NAG403     -0.2019
     10  O3        25.0080   52.0350  119.5140 O.3   403  NAG403     -0.2184
     11  O4        26.4920   50.7010  117.3560 O.3   403  NAG403     -0.2176
     12  O5        27.7080   54.0930  117.2070 O.3   403  NAG403     -0.3489
     13  O6        27.0620   52.8490  114.7890 O.3   403  NAG403     -0.2176
     14  O7        24.9550   55.9890  120.4390 O.2   403  NAG403     -0.2733
@<TRIPOS>BOND
     1    13     6    1
     2     6     5    1
     3     5    12    1
     4     5     4    1
     5    12     1    1
     6    11     4    1
     7     4     3    1
     8     1     2    1
     9     3     2    1
    10     3    10    1
    11     2     9    1
    12    14     7    2
    13     9     7   am
    14     7     8    1
