@<TRIPOS>MOLECULE
4eea_BGC_A_1.pdb
 12 12 0 0 0
SMALL
GASTEIGER

@<TRIPOS>ATOM
      1  C2        26.9980   55.4210  112.1870 C.3   401  BGC401      0.2434
      2  C3        26.5490   56.1000  113.4930 C.3   401  BGC401      0.2199
      3  C4        26.5480   57.6260  113.3850 C.3   401  BGC401      0.2144
      4  C5        25.7810   57.9650  112.0950 C.3   401  BGC401      0.1836
      5  C6        25.4990   59.4520  111.9150 C.3   401  BGC401      0.2142
      6  C1        26.5680   56.1430  110.8890 C.3   401  BGC401      0.3024
      7  O1        27.4440   55.7830  109.8370 O.3   401  BGC401     -0.1869
      8  O2        26.4610   54.1140  112.0890 O.3   401  BGC401     -0.2148
      9  O3        27.2940   55.6550  114.6310 O.3   401  BGC401     -0.2174
     10  O4        25.8770   58.2110  114.4980 O.3   401  BGC401     -0.2176
     11  O5        26.5310   57.5490  110.9770 O.3   401  BGC401     -0.3236
     12  O6        26.6950   60.0840  111.5210 O.3   401  BGC401     -0.2176
@<TRIPOS>BOND
     1     7     6    1
     2     6    11    1
     3     6     1    1
     4    11     4    1
     5    12     5    1
     6     5     4    1
     7     8     1    1
     8     4     3    1
     9     1     2    1
    10     3     2    1
    11     3    10    1
    12     2     9    1
