@<TRIPOS>MOLECULE
4eec_GHP_C_1.pdb
 11 11 0 0 0
SMALL
GASTEIGER

@<TRIPOS>ATOM
      1  N        -23.6240   -2.4130   12.0970 N.3   401  GHP401     -0.1196
      2  CA       -24.2790   -1.0800   12.3130 C.3   401  GHP401      0.1783
      3  C        -23.5230   -0.2350   13.3070 C.2   401  GHP401      0.2306
      4  O        -22.2860   -0.2480   13.2730 O.2   401  GHP401     -0.2863
      5  C1       -24.4350   -0.2620   11.0680 C.ar  401  GHP401      0.0027
      6  C2       -25.5310    0.6020   11.0410 C.ar  401  GHP401      0.0008
      7  C3       -25.7610    1.4180    9.9350 C.ar  401  GHP401      0.0418
      8  C4       -24.8950    1.3690    8.8410 C.ar  401  GHP401      0.1957
      9  O4       -25.1450    2.1790    7.7720 O.3   401  GHP401     -0.2866
     10  C5       -23.7910    0.5120    8.8550 C.ar  401  GHP401      0.0418
     11  C6       -23.5520   -0.3030    9.9670 C.ar  401  GHP401      0.0008
@<TRIPOS>BOND
     1     9     8    1
     2     8    10   ar
     3     8     7   ar
     4    10    11   ar
     5     7     6   ar
     6    11     5   ar
     7     6     5   ar
     8     5     2    1
     9     1     2    1
    10     2     3    1
    11     4     3    2
