@<TRIPOS>MOLECULE
4eec_0UZ_C_1.pdb
 12 12 0 0 0
SMALL
GASTEIGER

@<TRIPOS>ATOM
      1  N        -28.3380    9.6780   14.2540 N.3   405  0UZ405     -0.1196
      2  CA       -29.5420   10.3780   14.7220 C.3   405  0UZ405      0.1784
      3  C        -29.4370   11.9150   14.8660 C.2   405  0UZ405      0.2306
      4  O        -28.4690   12.5790   14.4650 O.2   405  0UZ405     -0.2863
      5  C1       -30.7410   10.1090   13.8800 C.ar  405  0UZ405      0.0036
      6  C2       -30.8310   10.6680   12.6030 C.ar  405  0UZ405      0.0122
      7  C3       -31.9690   10.4390   11.8330 C.ar  405  0UZ405      0.0962
      8 CL3       -31.9580   11.1710   10.1920 Cl    405  0UZ405     -0.0789
      9  C4       -33.0380    9.6630   12.3270 C.ar  405  0UZ405      0.2061
     10  O4       -34.1730    9.4110   11.5890 O.3   405  0UZ405     -0.2857
     11  C5       -32.9460    9.1190   13.6240 C.ar  405  0UZ405      0.0426
     12  C6       -31.7990    9.3380   14.3990 C.ar  405  0UZ405      0.0009
@<TRIPOS>BOND
     1     8     7    1
     2    10     9    1
     3     7     9   ar
     4     7     6   ar
     5     9    11   ar
     6     6     5   ar
     7    11    12   ar
     8     5    12   ar
     9     5     2    1
    10     1     2    1
    11     4     3    2
    12     2     3    1
