@<TRIPOS>MOLECULE
4eec_A3P_A_1.pdb
 27 29 0 0 0
SMALL
GASTEIGER

@<TRIPOS>ATOM
      1  P1       -32.9280    0.1120   -1.5150 P.3   301  A3P301      0.5327
      2  O1P      -32.5670    0.9710   -2.7210 O.2   301  A3P301     -0.2224
      3  O2P      -33.8360   -1.0410   -1.9260 O.3   301  A3P301     -0.1145
      4  O3P      -33.3510    0.8580   -0.2470 O.3   301  A3P301     -0.1145
      5  P2       -26.8430   -0.5040    2.9430 P.3   301  A3P301      0.5327
      6  O4P      -25.3770   -0.3880    2.6090 O.2   301  A3P301     -0.2224
      7  O5P      -27.1640   -1.8920    3.4670 O.3   301  A3P301     -0.1145
      8  O6P      -27.4450    0.6810    3.7300 O.3   301  A3P301     -0.1145
      9  O5'      -27.6940   -0.4320    1.5630 O.3   301  A3P301     -0.2675
     10  C5'      -29.1090   -0.4720    1.6360 C.3   301  A3P301      0.1859
     11  C4'      -29.6490   -0.8590    0.2880 C.3   301  A3P301      0.1796
     12  O4'      -29.3340   -2.2350    0.0290 O.3   301  A3P301     -0.3136
     13  C3'      -31.1640   -0.7800    0.2840 C.3   301  A3P301      0.1928
     14  O3'      -31.5390   -0.5560   -1.0690 O.3   301  A3P301     -0.2673
     15  C2'      -31.5380   -2.1970    0.6260 C.3   301  A3P301      0.2543
     16  O2'      -32.8900   -2.5420    0.3430 O.3   301  A3P301     -0.2131
     17  C1'      -30.5610   -2.9390   -0.2640 C.3   301  A3P301      0.3185
     18  N9       -30.5760   -4.4010    0.0590 N.pl3 301  A3P301     -0.1439
     19  C8       -30.5590   -4.9260    1.3120 C.3   301  A3P301      0.3377
     20  N7       -30.6040   -6.2850    1.2550 N.2   301  A3P301     -0.2095
     21  C5       -30.6450   -6.6640   -0.0420 C.2   301  A3P301      0.2526
     22  C6       -30.6830   -7.9570   -0.7670 C.2   301  A3P301      0.4393
     23  N6       -30.6860   -9.1290   -0.0660 N.pl3 301  A3P301      0.2180
     24  N1       -30.7060   -7.9130   -2.1300 N.2   301  A3P301      0.0021
     25  C2       -30.7030   -6.7430   -2.8150 C.3   301  A3P301      0.5254
     26  N3       -30.6590   -5.5300   -2.2200 N.2   301  A3P301     -0.0055
     27  C4       -30.6310   -5.4200   -0.8490 C.2   301  A3P301      0.3518
@<TRIPOS>BOND
     1    25    26    1
     2    25    24    1
     3     2     1    2
     4    26    27    2
     5    24    22    2
     6     3     1    1
     7     1    14    1
     8     1     4    1
     9    14    13    1
    10    27    21    1
    11    27    18    1
    12    22    23    1
    13    22    21    1
    14    17    12    1
    15    17    18    1
    16    17    15    1
    17    21    20    2
    18    12    11    1
    19    18    19    1
    20    13    11    1
    21    13    15    1
    22    11    10    1
    23    16    15    1
    24    20    19    1
    25     9    10    1
    26     9     5    1
    27     6     5    2
    28     5     7    1
    29     5     8    1
