@<TRIPOS>MOLECULE
4eeg_NAG_A_1.pdb
 14 14 0 0 0
SMALL
GASTEIGER

@<TRIPOS>ATOM
      1  C1        27.8010   54.4620  118.6020 C.3   402  NAG402      0.1665
      2  C2        26.5730   53.8950  119.3330 C.3   402  NAG402      0.1576
      3  C3        26.3920   52.4010  119.1900 C.3   402  NAG402      0.2069
      4  C4        26.4830   52.0270  117.7180 C.3   402  NAG402      0.2134
      5  C5        27.7730   52.5510  117.1110 C.3   402  NAG402      0.1809
      6  C6        27.8090   52.1710  115.6320 C.3   402  NAG402      0.2141
      7  C7        25.8660   55.0520  121.2940 C.2   402  NAG402      0.2420
      8  C8        25.9350   55.2060  122.7870 C.3   402  NAG402      0.0964
      9  N2        26.5980   54.0850  120.7580 N.am  402  NAG402     -0.2019
     10  O3        25.1150   52.1370  119.7120 O.3   402  NAG402     -0.2184
     11  O4        26.4980   50.6320  117.6210 O.3   402  NAG402     -0.2176
     12  O5        27.9000   53.9570  117.2700 O.3   402  NAG402     -0.3489
     13  O6        27.0420   53.0500  114.8340 O.3   402  NAG402     -0.2176
     14  O7        25.1950   55.8080  120.5910 O.2   402  NAG402     -0.2733
@<TRIPOS>BOND
     1    13     6    1
     2     6     5    1
     3     5    12    1
     4     5     4    1
     5    12     1    1
     6    11     4    1
     7     4     3    1
     8     1     2    1
     9     3     2    1
    10     3    10    1
    11     2     9    1
    12    14     7    2
    13     9     7   am
    14     7     8    1
