@<TRIPOS>MOLECULE
4eeg_UDP_A_1.pdb
 25 26 0 0 0
SMALL
GASTEIGER

@<TRIPOS>ATOM
      1  N1        15.8770   46.2860  112.9360 N.am  403  UDP403     -0.1996
      2  C2        14.7790   45.8340  112.2030 C.1   403  UDP403      0.2802
      3  N3        13.7550   46.7400  111.9340 N.2   403  UDP403     -0.2497
      4  C4        13.8470   48.0540  112.4060 C.1   403  UDP403      0.1941
      5  C5        14.9430   48.5370  113.1530 C.3   403  UDP403      0.1579
      6  C6        16.0370   47.6480  113.2240 C.3   403  UDP403      0.1249
      7  O2        14.7120   44.6470  111.8100 O.2   403  UDP403     -0.1922
      8  O4        12.9220   48.7860  112.1730 O.2   403  UDP403     -0.2133
      9  C1'       16.9410   45.3190  113.2890 C.3   403  UDP403      0.2361
     10  C2'       17.7780   44.8520  112.1220 C.3   403  UDP403      0.2316
     11  O2'       18.2070   43.5320  112.4450 O.3   403  UDP403     -0.2157
     12  C3'       18.8700   45.9020  112.1560 C.3   403  UDP403      0.2158
     13  C4'       19.1290   46.1040  113.6360 C.3   403  UDP403      0.1799
     14  O4'       17.8450   45.9450  114.2050 O.3   403  UDP403     -0.3322
     15  O3'       20.0220   45.3950  111.5380 O.3   403  UDP403     -0.2175
     16  C5'       19.8100   47.4030  114.0750 C.3   403  UDP403      0.1813
     17  O5'       19.3910   48.6110  113.4570 O.3   403  UDP403     -0.3111
     18  PA        20.0840   49.4160  112.1750 P.3   403  UDP403      0.2231
     19  O1A       19.9470   48.6830  110.8850 O.2   403  UDP403     -0.5169
     20  O2A       19.4600   50.7630  112.0550 O.3   403  UDP403     -0.4370
     21  O3A       21.6660   49.6980  112.3530 O.3   403  UDP403     -0.2261
     22  PB        22.3830   50.8030  111.3960 P.3   403  UDP403      0.5373
     23  O1B       23.4150   51.5110  112.2080 O.3   403  UDP403     -0.1143
     24  O2B       21.4220   51.8500  110.9310 O.3   403  UDP403     -0.1143
     25  O3B       22.9600   50.1020  110.2060 O.2   403  UDP403     -0.2221
@<TRIPOS>BOND
     1    25    22    2
     2    19    18    2
     3    24    22    1
     4    22    23    1
     5    22    21    1
     6    15    12    1
     7     7     2    2
     8     3     2    2
     9     3     4    2
    10    20    18    1
    11    10    12    1
    12    10    11    1
    13    10     9    1
    14    12    13    1
    15     8     4    2
    16    18    21    1
    17    18    17    1
    18     2     1   am
    19     4     5    1
    20     1     6    1
    21     1     9    1
    22     5     6    1
    23     9    14    1
    24    17    16    1
    25    13    16    1
    26    13    14    1
