@<TRIPOS>MOLECULE
4eeh_HH6_A_1.pdb
 17 19 0 0 0
SMALL
GASTEIGER

@<TRIPOS>ATOM
      1  C1        64.5150   33.8730   25.2380 C.3   301  HH6301      0.1060
      2  C2        64.0260   34.5900   24.0580 C.2   301  HH6301      0.0898
      3  C3        63.3640   33.2990   25.8600 C.2   301  HH6301      0.0930
      4  C4        65.7970   33.6420   25.7950 C.2   301  HH6301     -0.0112
      5  C5        64.7630   35.4940   23.1280 C.ar  301  HH6301      0.0162
      6  N6        62.7330   34.3890   24.0060 N.2   301  HH6301     -0.1520
      7  N7        62.2640   33.6840   25.1370 N.2   301  HH6301     -0.1519
      8  C8        63.5110   32.5470   27.0340 C.2   301  HH6301      0.0592
      9  C9        65.9240   32.8590   26.9270 C.2   301  HH6301      0.0383
     10  C10       64.0920   36.0360   22.0180 C.ar  301  HH6301      0.0045
     11  C11       66.0620   35.9500   23.4330 C.ar  301  HH6301      0.0045
     12  C12       64.7710   32.3600   27.5670 C.2   301  HH6301      0.1967
     13  C13       64.7410   36.9450   21.1930 C.ar  301  HH6301      0.0421
     14  C14       66.7160   36.8310   22.5900 C.ar  301  HH6301      0.0421
     15  O15       64.8690   31.6640   28.7160 O.2   301  HH6301     -0.2865
     16  C16       66.0520   37.3410   21.4720 C.ar  301  HH6301      0.1957
     17  O17       66.6840   38.2270   20.6570 O.3   301  HH6301     -0.2866
@<TRIPOS>BOND
     1    17    16    1
     2    13    16   ar
     3    13    10   ar
     4    16    14   ar
     5    10     5   ar
     6    14    11   ar
     7     5    11   ar
     8     5     2    1
     9     6     2    2
    10     6     7    1
    11     2     1    1
    12     7     3    2
    13     1     4    1
    14     1     3    1
    15     4     9    2
    16     3     8    1
    17     9    12    1
    18     8    12    2
    19    12    15    1
