@<TRIPOS>MOLECULE
4eei_AMP_A_1.pdb
 23 25 0 0 0
SMALL
GASTEIGER

@<TRIPOS>ATOM
      1  P         13.3010   14.4920  150.8650 P.3   501  AMP501      0.5327
      2  O1P       13.2020   15.9820  151.0670 O.3   501  AMP501     -0.1145
      3  O2P       14.6210   14.0310  150.3070 O.3   501  AMP501     -0.1145
      4  O3P       12.0980   13.8870  150.1940 O.2   501  AMP501     -0.2224
      5  O5'       13.2720   13.8940  152.3560 O.3   501  AMP501     -0.2675
      6  C5'       13.2010   12.4880  152.5800 C.3   501  AMP501      0.1860
      7  C4'       12.7690   12.2350  154.0180 C.3   501  AMP501      0.1823
      8  O4'       12.6240   10.8330  154.2570 O.3   501  AMP501     -0.3135
      9  C3'       13.8110   12.7480  154.9960 C.3   501  AMP501      0.2184
     10  O3'       13.1490   13.4540  156.0460 O.3   501  AMP501     -0.2174
     11  C2'       14.4620   11.5030  155.5550 C.3   501  AMP501      0.2570
     12  O2'       14.8280   11.6860  156.9210 O.3   501  AMP501     -0.2130
     13  C1'       13.3710   10.4580  155.4170 C.3   501  AMP501      0.3186
     14  N9        13.9360    9.0960  155.2690 N.pl3 501  AMP501     -0.1439
     15  C8        15.2050    8.7280  155.5170 C.3   501  AMP501      0.3377
     16  N7        15.3810    7.4030  155.2830 N.2   501  AMP501     -0.2095
     17  C5        14.2000    6.9050  154.8770 C.2   501  AMP501      0.2526
     18  C6        13.6830    5.5810  154.4660 C.2   501  AMP501      0.4393
     19  N6        14.4890    4.4940  154.4420 N.pl3 501  AMP501      0.2180
     20  N1        12.3810    5.4950  154.1170 N.2   501  AMP501      0.0021
     21  C2        11.5700    6.5670  154.1370 C.3   501  AMP501      0.5254
     22  N3        11.9710    7.7980  154.4990 N.2   501  AMP501     -0.0055
     23  C4        13.2510    8.0260  154.8720 C.2   501  AMP501      0.3518
@<TRIPOS>BOND
     1     4     1    2
     2     3     1    1
     3     1     2    1
     4     1     5    1
     5     5     6    1
     6     6     7    1
     7     7     8    1
     8     7     9    1
     9    20    21    1
    10    20    18    2
    11    21    22    1
    12     8    13    1
    13    19    18    1
    14    18    17    1
    15    22    23    2
    16    23    17    1
    17    23    14    1
    18    17    16    2
    19     9    11    1
    20     9    10    1
    21    14    13    1
    22    14    15    1
    23    16    15    1
    24    13    11    1
    25    11    12    1
