@<TRIPOS>MOLECULE
4eej_RET_A_1.pdb
 20 20 0 0 0
SMALL
GASTEIGER

@<TRIPOS>ATOM
      1  C1        -7.9290   -0.3080   -7.6190 C.3   201  RET201      0.0183
      2  C2        -8.8400   -0.0870   -6.4560 C.3   201  RET201      0.0044
      3  C3        -8.5110    1.2640   -5.9100 C.3   201  RET201      0.0047
      4  C4        -9.0430    2.2390   -6.9140 C.3   201  RET201      0.0217
      5  C5        -8.3760    2.0710   -8.2230 C.2   201  RET201     -0.0479
      6  C6        -7.8780    0.8910   -8.5790 C.2   201  RET201     -0.0307
      7  C7        -7.2560    0.7970   -9.9160 C.2   201  RET201     -0.0052
      8  C8        -6.5050   -0.2210  -10.3120 C.2   201  RET201     -0.0046
      9  C9        -5.9740   -0.2080  -11.6610 C.2   201  RET201     -0.0219
     10  C10       -5.1350   -1.1670  -12.0330 C.2   201  RET201     -0.0043
     11  C11       -4.5460   -1.2520  -13.3660 C.2   201  RET201     -0.0007
     12  C12       -3.8720   -2.3510  -13.6930 C.2   201  RET201     -0.0046
     13  C13       -3.2330   -2.6370  -14.9700 C.2   201  RET201     -0.0261
     14  C14       -2.3010   -3.5730  -15.1410 C.2   201  RET201     -0.0300
     15  C15       -1.5950   -3.9660  -16.3350 C.3   201  RET201      0.0304
     16  C16       -6.5480   -0.4900   -6.9880 C.3   201  RET201      0.0043
     17  C17       -8.4180   -1.6030   -8.1840 C.3   201  RET201      0.0043
     18  C18       -8.3110    3.3280   -9.0330 C.3   201  RET201      0.0260
     19  C19       -6.4120    0.8790  -12.5870 C.3   201  RET201      0.0310
     20  C20       -3.7070   -1.8150  -16.0880 C.3   201  RET201      0.0307
@<TRIPOS>BOND
     1    15    14    1
     2    20    13    1
     3    14    13    2
     4    13    12    1
     5    12    11    2
     6    11    10    1
     7    19     9    1
     8    10     9    2
     9     9     8    1
    10     8     7    2
    11     7     6    1
    12    18     5    1
    13     6     5    2
    14     6     1    1
    15     5     4    1
    16    17     1    1
    17     1    16    1
    18     1     2    1
    19     4     3    1
    20     2     3    1
