@<TRIPOS>MOLECULE
4eel_CIT_A_1.pdb
 13 12 0 0 0
SMALL
GASTEIGER

@<TRIPOS>ATOM
      1  C1       -26.5130    8.0090    5.4010 C.2   301  CIT301      0.3680
      2  O1       -26.7000    6.9860    6.1030 O.co2 301  CIT301     -0.2455
      3  O2       -27.1350    8.1410    4.3030 O.co2 301  CIT301     -0.2455
      4  C2       -25.5170    9.0470    5.8800 C.3   301  CIT301      0.1560
      5  C3       -24.5410    9.2580    4.7260 C.3   301  CIT301      0.2402
      6  O7       -25.2980    9.8960    3.6690 O.3   301  CIT301     -0.2129
      7  C4       -23.9590    7.9260    4.2150 C.3   301  CIT301      0.1560
      8  C5       -22.6760    8.2100    3.4590 C.2   301  CIT301      0.3680
      9  O3       -21.7310    7.3760    3.4300 O.co2 301  CIT301     -0.2455
     10  O4       -22.5620    9.3010    2.8510 O.co2 301  CIT301     -0.2455
     11  C6       -23.3910   10.1710    5.1350 C.2   301  CIT301      0.3927
     12  O5       -22.3630    9.6660    5.6750 O.co2 301  CIT301     -0.2429
     13  O6       -23.4750   11.4130    4.9380 O.co2 301  CIT301     -0.2429
@<TRIPOS>BOND
     1    10     8   ar
     2     9     8   ar
     3     8     7    1
     4     6     5    1
     5     7     5    1
     6     3     1   ar
     7     5    11    1
     8     5     4    1
     9    13    11   ar
    10    11    12   ar
    11     1     4    1
    12     1     2   ar
