@<TRIPOS>MOLECULE
4eem_MMA_A_1.pdb
 13 13 0 0 0
SMALL
GASTEIGER

@<TRIPOS>ATOM
      1  C1        31.1270   55.7780  121.2030 C.3   401  MMA401      0.2695
      2  C2        32.1180   56.9390  121.1640 C.3   401  MMA401      0.2406
      3  C3        31.3930   58.2310  120.7750 C.3   401  MMA401      0.2198
      4  C4        30.6760   58.0600  119.4280 C.3   401  MMA401      0.2144
      5  C5        29.7420   56.8590  119.5450 C.3   401  MMA401      0.1835
      6  C6        28.8890   56.6180  118.2930 C.3   401  MMA401      0.2142
      7  C7        29.8360   54.8780  123.1360 C.3   401  MMA401      0.1769
      8  O1        30.2090   55.8380  122.2950 O.3   401  MMA401     -0.3259
      9  O2        33.1150   56.6380  120.1970 O.3   401  MMA401     -0.2149
     10  O3        32.3210   59.2980  120.7400 O.3   401  MMA401     -0.2174
     11  O4        29.9300   59.2050  119.0700 O.3   401  MMA401     -0.2176
     12  O5        30.4990   55.7120  119.9260 O.3   401  MMA401     -0.3256
     13  O6        27.6400   56.0220  118.6480 O.3   401  MMA401     -0.2176
@<TRIPOS>BOND
     1     6    13    1
     2     6     5    1
     3    11     4    1
     4     4     5    1
     5     4     3    1
     6     5    12    1
     7    12     1    1
     8     9     2    1
     9    10     3    1
    10     3     2    1
    11     2     1    1
    12     1     8    1
    13     8     7    1
