@<TRIPOS>MOLECULE
4eem_NAG_A_1.pdb
 14 14 0 0 0
SMALL
GASTEIGER

@<TRIPOS>ATOM
      1  C1        27.7550   54.5690  118.6370 C.3   402  NAG402      0.1665
      2  C2        26.5470   53.9680  119.3610 C.3   402  NAG402      0.1576
      3  C3        26.3410   52.4810  119.1450 C.3   402  NAG402      0.2069
      4  C4        26.4720   52.1490  117.6600 C.3   402  NAG402      0.2134
      5  C5        27.7900   52.6870  117.1110 C.3   402  NAG402      0.1809
      6  C6        27.9440   52.3870  115.6240 C.3   402  NAG402      0.2141
      7  C7        25.9230   55.3040  121.2670 C.2   402  NAG402      0.2420
      8  C8        25.9890   55.5770  122.7420 C.3   402  NAG402      0.0964
      9  N2        26.5870   54.2520  120.7770 N.am  402  NAG402     -0.2019
     10  O3        25.0820   52.1340  119.6890 O.3   402  NAG402     -0.2184
     11  O4        26.5480   50.7480  117.5400 O.3   402  NAG402     -0.2176
     12  O5        27.9220   54.0780  117.3110 O.3   402  NAG402     -0.3489
     13  O6        26.8610   52.9400  114.8900 O.3   402  NAG402     -0.2176
     14  O7        25.2710   56.0480  120.5320 O.2   402  NAG402     -0.2733
@<TRIPOS>BOND
     1    13     6    1
     2     6     5    1
     3     5    12    1
     4     5     4    1
     5    12     1    1
     6    11     4    1
     7     4     3    1
     8     1     2    1
     9     3     2    1
    10     3    10    1
    11     2     9    1
    12    14     7    2
    13     9     7   am
    14     7     8    1
