@<TRIPOS>MOLECULE
4eem_UDP_A_1.pdb
 25 26 0 0 0
SMALL
GASTEIGER

@<TRIPOS>ATOM
      1  N1        15.8940   46.5050  112.9810 N.am  403  UDP403     -0.1996
      2  C2        14.7700   46.0560  112.2810 C.1   403  UDP403      0.2802
      3  N3        13.7450   46.9450  112.0130 N.2   403  UDP403     -0.2497
      4  C4        13.7980   48.2540  112.4210 C.1   403  UDP403      0.1941
      5  C5        14.9240   48.7410  113.1330 C.3   403  UDP403      0.1579
      6  C6        16.0390   47.8750  113.2180 C.3   403  UDP403      0.1249
      7  O2        14.6500   44.8750  111.8910 O.2   403  UDP403     -0.1922
      8  O4        12.8000   48.9110  112.1300 O.2   403  UDP403     -0.2133
      9  C1'       16.9470   45.5090  113.3130 C.3   403  UDP403      0.2361
     10  C2'       17.7500   44.9620  112.1460 C.3   403  UDP403      0.2316
     11  O2'       18.1370   43.6230  112.5160 O.3   403  UDP403     -0.2157
     12  C3'       18.8900   45.9760  112.1380 C.3   403  UDP403      0.2158
     13  C4'       19.1760   46.1940  113.6170 C.3   403  UDP403      0.1799
     14  O4'       17.9070   46.0420  114.2110 O.3   403  UDP403     -0.3322
     15  O3'       20.0020   45.3910  111.5020 O.3   403  UDP403     -0.2175
     16  C5'       19.8800   47.5040  114.0310 C.3   403  UDP403      0.1813
     17  O5'       19.3660   48.6990  113.4720 O.3   403  UDP403     -0.3111
     18  PA        19.9990   49.6010  112.2240 P.3   403  UDP403      0.2231
     19  O1A       19.9910   48.8940  110.9110 O.2   403  UDP403     -0.5169
     20  O2A       19.2250   50.8570  112.0810 O.3   403  UDP403     -0.4370
     21  O3A       21.5240   50.0590  112.5330 O.3   403  UDP403     -0.2261
     22  PB        22.3050   51.0200  111.4850 P.3   403  UDP403      0.5373
     23  O1B       23.4580   51.6350  112.2040 O.3   403  UDP403     -0.1143
     24  O2B       21.4670   52.1760  111.0240 O.3   403  UDP403     -0.1143
     25  O3B       22.6770   50.1860  110.3080 O.2   403  UDP403     -0.2221
@<TRIPOS>BOND
     1    25    22    2
     2    19    18    2
     3    24    22    1
     4    22    23    1
     5    22    21    1
     6    15    12    1
     7     7     2    2
     8     3     2    2
     9     3     4    2
    10    20    18    1
    11     8     4    2
    12    12    10    1
    13    12    13    1
    14    10    11    1
    15    10     9    1
    16    18    21    1
    17    18    17    1
    18     2     1   am
    19     4     5    1
    20     1     6    1
    21     1     9    1
    22     5     6    1
    23     9    14    1
    24    17    16    1
    25    13    16    1
    26    13    14    1
