@<TRIPOS>MOLECULE
4eeo_UDP_A_1.pdb
 25 26 0 0 0
SMALL
GASTEIGER

@<TRIPOS>ATOM
      1  N1        16.0830   46.9020  112.9720 N.am  403  UDP403     -0.1996
      2  C2        14.9780   46.4570  112.2210 C.1   403  UDP403      0.2802
      3  N3        13.9370   47.3350  111.9420 N.2   403  UDP403     -0.2497
      4  C4        13.9650   48.6450  112.3970 C.1   403  UDP403      0.1941
      5  C5        15.0690   49.0800  113.1580 C.3   403  UDP403      0.1579
      6  C6        16.2180   48.2690  113.1980 C.3   403  UDP403      0.1249
      7  O2        14.9060   45.2790  111.7990 O.2   403  UDP403     -0.1922
      8  O4        12.9840   49.3650  112.1420 O.2   403  UDP403     -0.2133
      9  C1'       17.1540   45.9080  113.3120 C.3   403  UDP403      0.2361
     10  C2'       17.9330   45.3570  112.1410 C.3   403  UDP403      0.2316
     11  O2'       18.3930   44.0670  112.5440 O.3   403  UDP403     -0.2157
     12  C3'       19.0790   46.3380  112.0660 C.3   403  UDP403      0.2158
     13  C4'       19.3920   46.5380  113.5340 C.3   403  UDP403      0.1799
     14  O4'       18.1350   46.4300  114.1780 O.3   403  UDP403     -0.3322
     15  O3'       20.1760   45.7160  111.4350 O.3   403  UDP403     -0.2175
     16  C5'       20.1810   47.8050  113.8750 C.3   403  UDP403      0.1813
     17  O5'       19.6100   49.0220  113.4370 O.3   403  UDP403     -0.3111
     18  PA        20.2420   49.9390  112.2010 P.3   403  UDP403      0.2231
     19  O1A       20.2930   49.1740  110.9190 O.2   403  UDP403     -0.5169
     20  O2A       19.5120   51.2020  112.0170 O.3   403  UDP403     -0.4370
     21  O3A       21.7610   50.3730  112.5800 O.3   403  UDP403     -0.2261
     22  PB        22.5530   51.3760  111.5780 P.3   403  UDP403      0.5373
     23  O1B       23.7450   51.9070  112.3150 O.3   403  UDP403     -0.1143
     24  O2B       21.6940   52.5690  111.2700 O.3   403  UDP403     -0.1143
     25  O3B       22.9040   50.6350  110.3170 O.2   403  UDP403     -0.2221
@<TRIPOS>BOND
     1    25    22    2
     2    19    18    2
     3    24    22    1
     4    15    12    1
     5    22    23    1
     6    22    21    1
     7     7     2    2
     8     3     2    2
     9     3     4    2
    10    20    18    1
    11    12    10    1
    12    12    13    1
    13    10    11    1
    14    10     9    1
    15     8     4    2
    16    18    21    1
    17    18    17    1
    18     2     1   am
    19     4     5    1
    20     1     6    1
    21     1     9    1
    22     5     6    1
    23     9    14    1
    24    17    16    1
    25    13    16    1
    26    13    14    1
