@<TRIPOS>MOLECULE
4eeo_NAG_A_1.pdb
 14 14 0 0 0
SMALL
GASTEIGER

@<TRIPOS>ATOM
      1  C1        27.8100   55.0180  118.3460 C.3   402  NAG402      0.1665
      2  C2        26.6520   54.3780  119.1270 C.3   402  NAG402      0.1576
      3  C3        26.5950   52.8520  119.0130 C.3   402  NAG402      0.2069
      4  C4        26.6270   52.4360  117.5530 C.3   402  NAG402      0.2134
      5  C5        27.8440   53.0820  116.8920 C.3   402  NAG402      0.1809
      6  C6        27.8990   52.6920  115.4280 C.3   402  NAG402      0.2141
      7  C7        26.0190   55.6580  121.1280 C.2   402  NAG402      0.2420
      8  C8        26.2110   55.8070  122.6080 C.3   402  NAG402      0.0964
      9  N2        26.7050   54.6880  120.5440 N.am  402  NAG402     -0.2019
     10  O3        25.4200   52.3940  119.6400 O.3   402  NAG402     -0.2184
     11  O4        26.7400   51.0230  117.4940 O.3   402  NAG402     -0.2176
     12  O5        27.8460   54.5000  117.0070 O.3   402  NAG402     -0.3489
     13  O6        26.9640   53.4460  114.6970 O.3   402  NAG402     -0.2176
     14  O7        25.3010   56.4400  120.5120 O.2   402  NAG402     -0.2733
@<TRIPOS>BOND
     1    13     6    1
     2     6     5    1
     3     5    12    1
     4     5     4    1
     5    12     1    1
     6    11     4    1
     7     4     3    1
     8     1     2    1
     9     3     2    1
    10     3    10    1
    11     2     9    1
    12    14     7    2
    13     9     7   am
    14     7     8    1
