@<TRIPOS>MOLECULE
4eeo_BBV_A_1.pdb
 22 23 0 0 0
SMALL
GASTEIGER

@<TRIPOS>ATOM
      1  C1        31.5730   56.2480  120.0350 C.3   401  BBV401      0.2589
      2  O1        30.9920   56.4590  121.2960 O.3   401  BBV401     -0.3243
      3  C2        32.5700   57.3570  119.7030 C.3   401  BBV401      0.1842
      4  N2        33.6910   57.4120  120.6440 N.am  401  BBV401     -0.1992
      5  C3        31.8460   58.6980  119.5510 C.3   401  BBV401      0.2094
      6  O3        32.7890   59.5500  118.9430 O.3   401  BBV401     -0.2183
      7  C4        30.6800   58.5850  118.5630 C.3   401  BBV401      0.2136
      8  O4        29.9180   59.7750  118.5350 O.3   401  BBV401     -0.2176
      9  C5        29.7900   57.3660  118.8500 C.3   401  BBV401      0.1834
     10  O5        30.5710   56.1760  119.0310 O.3   401  BBV401     -0.3262
     11  C6        28.6930   57.1660  117.7860 C.3   401  BBV401      0.2142
     12  O6        27.6120   56.4660  118.3790 O.3   401  BBV401     -0.2176
     13  C7        34.9840   57.3090  120.2870 C.2   401  BBV401      0.2420
     14  O7        35.3570   57.1460  119.1320 O.2   401  BBV401     -0.2733
     15  C8        36.0150   57.3700  121.3820 C.3   401  BBV401      0.0964
     16  C1'       29.9970   55.8420  123.3280 C.ar  401  BBV401      0.0074
     17  C2'       29.5400   57.1460  123.6010 C.ar  401  BBV401     -0.0019
     18  C3'       30.1100   54.8900  124.3350 C.ar  401  BBV401     -0.0019
     19  C4'       29.2210   57.5140  124.9050 C.ar  401  BBV401     -0.0002
     20  C5'       29.7860   55.2620  125.6420 C.ar  401  BBV401     -0.0002
     21  C6'       29.3370   56.5750  125.9310 C.ar  401  BBV401     -0.0000
     22  C7'       30.3740   55.4590  121.9340 C.3   401  BBV401      0.1713
@<TRIPOS>BOND
     1    11    12    1
     2    11     9    1
     3     8     7    1
     4     7     9    1
     5     7     5    1
     6     9    10    1
     7     6     5    1
     8    10     1    1
     9    14    13    2
    10     5     3    1
    11     3     1    1
    12     3     4    1
    13     1     2    1
    14    13     4   am
    15    13    15    1
    16     2    22    1
    17    22    16    1
    18    16    17   ar
    19    16    18   ar
    20    17    19   ar
    21    18    20   ar
    22    19    21   ar
    23    20    21   ar
