@<TRIPOS>MOLECULE
4eep_FMN_A_1.pdb
 31 33 0 0 0
SMALL
GASTEIGER

@<TRIPOS>ATOM
      1  N1        -1.2060    8.8020   43.9510 N.2   1001  FMN1001    -0.2887
      2  C2        -1.3570    9.5550   45.0930 C.1   1001  FMN1001     0.3669
      3  O2        -2.3290   10.2900   45.1990 O.2   1001  FMN1001    -0.1744
      4  N3        -0.4290    9.4770   46.1140 N.2   1001  FMN1001    -0.2300
      5  C4         0.6650    8.6460   46.0070 C.1   1001  FMN1001     0.2513
      6  O4         1.4800    8.6090   46.9320 O.2   1001  FMN1001    -0.2057
      7  C4A        0.8210    7.8760   44.8500 C.2   1001  FMN1001     0.2706
      8  N5         1.9070    7.0440   44.7030 N.2   1001  FMN1001    -0.3841
      9  C5A        2.0520    6.2940   43.5570 C.2   1001  FMN1001     0.1452
     10  C6         3.1580    5.4560   43.4390 C.2   1001  FMN1001     0.0252
     11  C7         3.3390    4.6860   42.2950 C.2   1001  FMN1001    -0.0375
     12  C7M        4.5450    3.7950   42.2210 C.3   1001  FMN1001     0.0268
     13  C8         2.4080    4.7560   41.2540 C.3   1001  FMN1001     0.0417
     14  C8M        2.5500    3.9560   39.9880 C.3   1001  FMN1001     0.0091
     15  C9         1.3060    5.6020   41.3700 C.2   1001  FMN1001    -0.0049
     16  C9A        1.1160    6.3770   42.5150 C.2   1001  FMN1001     0.0795
     17  N10        0.0070    7.2070   42.6670 N.pl3 1001  FMN1001    -0.2545
     18  C10       -0.1210    7.9650   43.8180 C.2   1001  FMN1001     0.2449
     19  C1'       -1.0100    7.3830   41.5730 C.3   1001  FMN1001     0.1336
     20  C2'       -2.1840    6.4300   41.5100 C.3   1001  FMN1001     0.2048
     21  O2'       -1.7620    5.1240   41.8260 O.3   1001  FMN1001    -0.2185
     22  C3'       -2.7610    6.5020   40.0940 C.3   1001  FMN1001     0.2165
     23  O3'       -1.7570    6.1710   39.1340 O.3   1001  FMN1001    -0.2175
     24  C4'       -3.3280    7.9010   39.8020 C.3   1001  FMN1001     0.2147
     25  O4'       -4.3930    8.2090   40.6830 O.3   1001  FMN1001    -0.2176
     26  C5'       -3.8200    8.0700   38.3650 C.3   1001  FMN1001     0.1892
     27  O5'       -4.5230    6.9290   37.9330 O.3   1001  FMN1001    -0.2674
     28  P         -6.1140    6.8170   38.0700 P.3   1001  FMN1001     0.5327
     29  O1P       -6.5550    5.4880   37.5040 O.3   1001  FMN1001    -0.1145
     30  O2P       -6.5290    6.9600   39.5150 O.3   1001  FMN1001    -0.1145
     31  O3P       -6.7380    7.9280   37.2490 O.2   1001  FMN1001    -0.2224
@<TRIPOS>BOND
     1    31    28    2
     2    29    28    1
     3    27    28    1
     4    27    26    1
     5    28    30    1
     6    26    24    1
     7    23    22    1
     8    24    22    1
     9    24    25    1
    10    14    13    1
    11    22    20    1
    12    13    15    1
    13    13    11    1
    14    15    16    2
    15    20    19    1
    16    20    21    1
    17    19    17    1
    18    12    11    1
    19    11    10    2
    20    16    17    1
    21    16     9    1
    22    17    18    1
    23    10     9    1
    24     9     8    2
    25    18     1    2
    26    18     7    1
    27     1     2    2
    28     8     7    2
    29     7     5    1
    30     2     3    2
    31     2     4    2
    32     5     4    2
    33     5     6    2
