@<TRIPOS>MOLECULE
4eer_FMN_A_1.pdb
 31 33 0 0 0
SMALL
GASTEIGER

@<TRIPOS>ATOM
      1  N1        -1.3780    9.3730   42.6320 N.2   1001  FMN1001    -0.2887
      2  C2        -1.4640   10.2320   43.6820 C.1   1001  FMN1001     0.3669
      3  O2        -2.4150   10.9820   43.7960 O.2   1001  FMN1001    -0.1744
      4  N3        -0.5070   10.2660   44.6330 N.2   1001  FMN1001    -0.2300
      5  C4         0.5500    9.3980   44.5690 C.1   1001  FMN1001     0.2513
      6  O4         1.3930    9.4870   45.4400 O.2   1001  FMN1001    -0.2057
      7  C4A        0.6750    8.4970   43.5110 C.2   1001  FMN1001     0.2706
      8  N5         1.7530    7.6320   43.4600 N.2   1001  FMN1001    -0.3841
      9  C5A        1.8790    6.7900   42.3840 C.2   1001  FMN1001     0.1452
     10  C6         2.9880    5.9370   42.3350 C.2   1001  FMN1001     0.0252
     11  C7         3.0800    5.0920   41.2580 C.2   1001  FMN1001    -0.0375
     12  C7M        4.2810    4.1880   41.2570 C.3   1001  FMN1001     0.0268
     13  C8         2.1180    5.0780   40.2450 C.3   1001  FMN1001     0.0417
     14  C8M        2.2280    4.1410   39.0820 C.3   1001  FMN1001     0.0091
     15  C9         1.0070    5.9260   40.2770 C.2   1001  FMN1001    -0.0049
     16  C9A        0.8940    6.7630   41.3610 C.2   1001  FMN1001     0.0795
     17  N10       -0.2120    7.6360   41.4430 N.pl3 1001  FMN1001    -0.2545
     18  C10       -0.2890    8.5040   42.5270 C.2   1001  FMN1001     0.2449
     19  C1'       -1.2040    7.6970   40.3280 C.3   1001  FMN1001     0.1336
     20  C2'       -2.4270    6.8260   40.4060 C.3   1001  FMN1001     0.2048
     21  O2'       -1.9880    5.5260   40.7570 O.3   1001  FMN1001    -0.2185
     22  C3'       -3.0690    6.9030   39.0390 C.3   1001  FMN1001     0.2165
     23  O3'       -2.1290    6.5300   38.0320 O.3   1001  FMN1001    -0.2175
     24  C4'       -3.5510    8.3290   38.7170 C.3   1001  FMN1001     0.2147
     25  O4'       -4.6670    8.5420   39.5440 O.3   1001  FMN1001    -0.2176
     26  C5'       -3.9580    8.4540   37.2480 C.3   1001  FMN1001     0.1892
     27  O5'       -4.6110    7.2820   36.7590 O.3   1001  FMN1001    -0.2674
     28  P         -6.2020    7.0620   36.8780 P.3   1001  FMN1001     0.5327
     29  O1P       -6.5620    5.7180   36.3290 O.3   1001  FMN1001    -0.1145
     30  O2P       -6.5950    7.2890   38.3160 O.3   1001  FMN1001    -0.1145
     31  O3P       -6.9800    8.0810   36.0690 O.2   1001  FMN1001    -0.2224
@<TRIPOS>BOND
     1    31    28    2
     2    29    28    1
     3    27    28    1
     4    27    26    1
     5    28    30    1
     6    26    24    1
     7    23    22    1
     8    24    22    1
     9    24    25    1
    10    22    20    1
    11    14    13    1
    12    13    15    1
    13    13    11    1
    14    15    16    2
    15    19    20    1
    16    19    17    1
    17    20    21    1
    18    12    11    1
    19    11    10    2
    20    16    17    1
    21    16     9    1
    22    17    18    1
    23    10     9    1
    24     9     8    2
    25    18     1    2
    26    18     7    1
    27     1     2    2
    28     8     7    2
    29     7     5    1
    30     2     3    2
    31     2     4    2
    32     5     4    2
    33     5     6    2
