@<TRIPOS>MOLECULE
4ees_FMN_A_1.pdb
 31 33 0 0 0
SMALL
GASTEIGER

@<TRIPOS>ATOM
      1  N1        -8.8260    1.4120   18.6530 N.2   1001  FMN1001    -0.2887
      2  C2        -9.5950    1.5650   17.5250 C.1   1001  FMN1001     0.3669
      3  O2       -10.2790    2.5720   17.3910 O.2   1001  FMN1001    -0.1744
      4  N3        -9.5400    0.6530   16.5160 N.2   1001  FMN1001    -0.2300
      5  C4        -8.7740   -0.4650   16.6500 C.1   1001  FMN1001     0.2513
      6  O4        -8.7920   -1.2930   15.7520 O.2   1001  FMN1001    -0.2057
      7  C4A       -8.0040   -0.6490   17.7980 C.2   1001  FMN1001     0.2703
      8  N5        -7.2120   -1.7730   17.9020 N.2   1001  FMN1001    -0.3882
      9  C5A       -6.4870   -1.9530   19.0550 C.2   1001  FMN1001     0.1277
     10  C6        -5.7290   -3.1240   19.1580 C.3   1001  FMN1001     0.0820
     11  C7        -4.9770   -3.3230   20.3150 C.2   1001  FMN1001    -0.0408
     12  C7M       -4.1540   -4.5480   20.4920 C.3   1001  FMN1001     0.0265
     13  C8        -5.0150   -2.4030   21.3640 C.2   1001  FMN1001    -0.0280
     14  C8M       -4.2410   -2.6260   22.6250 C.3   1001  FMN1001     0.0304
     15  C9        -5.7990   -1.2460   21.2680 C.2   1001  FMN1001     0.0123
     16  C9A       -6.5310   -1.0000   20.0930 C.2   1001  FMN1001     0.0793
     17  N10       -7.3200    0.1460   19.9620 N.pl3 1001  FMN1001    -0.2545
     18  C10       -8.0500    0.3000   18.8100 C.2   1001  FMN1001     0.2449
     19  C1'       -7.4760    1.1630   21.0600 C.3   1001  FMN1001     0.1336
     20  C2'       -6.5310    2.3380   21.0590 C.3   1001  FMN1001     0.2048
     21  O2'       -5.2110    1.8400   20.8120 O.3   1001  FMN1001    -0.2185
     22  C3'       -6.5790    2.9220   22.4860 C.3   1001  FMN1001     0.2165
     23  O3'       -6.3250    1.8840   23.4420 O.3   1001  FMN1001    -0.2175
     24  C4'       -7.9380    3.5050   22.8290 C.3   1001  FMN1001     0.2147
     25  O4'       -8.1230    4.6300   21.9990 O.3   1001  FMN1001    -0.2176
     26  C5'       -8.0540    3.9030   24.3000 C.3   1001  FMN1001     0.1892
     27  O5'       -6.9350    4.6670   24.6810 O.3   1001  FMN1001    -0.2674
     28  P         -6.8260    6.2560   24.4810 P.3   1001  FMN1001     0.5327
     29  O1P       -5.4890    6.7160   25.0020 O.3   1001  FMN1001    -0.1145
     30  O2P       -6.8790    6.7370   23.0400 O.2   1001  FMN1001    -0.2224
     31  O3P       -7.9250    6.9730   25.2740 O.3   1001  FMN1001    -0.1145
@<TRIPOS>BOND
     1     6     5    2
     2     4     5    2
     3     4     2    2
     4     5     7    1
     5     3     2    2
     6     2     1    2
     7     7     8    2
     8     7    18    1
     9     8     9    2
    10     1    18    2
    11    18    17    1
    12     9    10    1
    13     9    16    1
    14    10    11    1
    15    17    16    1
    16    17    19    1
    17    16    15    2
    18    11    12    1
    19    11    13    2
    20    21    20    1
    21    20    19    1
    22    20    22    1
    23    15    13    1
    24    13    14    1
    25    25    24    1
    26    22    24    1
    27    22    23    1
    28    24    26    1
    29    30    28    2
    30    26    27    1
    31    28    27    1
    32    28    29    1
    33    28    31    1
