@<TRIPOS>MOLECULE
4eet_FMN_B_1.pdb
 31 33 0 0 0
SMALL
GASTEIGER

@<TRIPOS>ATOM
      1  N1        15.4860   10.4320  -16.7000 N.2   501  FMN501     -0.2890
      2  C2        14.8160   11.4530  -17.3230 C.1   501  FMN501      0.3669
      3  O2        14.7920   11.5010  -18.5520 O.2   501  FMN501     -0.1744
      4  N3        14.1730   12.4300  -16.5830 N.2   501  FMN501     -0.2300
      5  C4        14.1690   12.4250  -15.2020 C.1   501  FMN501      0.2513
      6  O4        13.6060   13.3340  -14.5720 O.2   501  FMN501     -0.2057
      7  C4A       14.8370   11.3840  -14.5580 C.2   501  FMN501      0.2700
      8  N5        14.8590   11.3130  -13.1830 N.2   501  FMN501     -0.3878
      9  C5A       15.5850   10.3110  -12.5740 C.2   501  FMN501      0.1320
     10  C6        15.6260   10.2660  -11.1930 C.2   501  FMN501      0.0250
     11  C7        16.3430    9.2650  -10.5340 C.2   501  FMN501     -0.0238
     12  C7M       16.3840    9.2600   -9.0320 C.3   501  FMN501      0.0308
     13  C8        17.0050    8.2800  -11.2870 C.2   501  FMN501     -0.0280
     14  C8M       17.7750    7.1750  -10.6230 C.3   501  FMN501      0.0304
     15  C9        16.9480    8.3110  -12.6740 C.2   501  FMN501     -0.0041
     16  C9A       16.2460    9.3340  -13.3330 C.3   501  FMN501      0.1497
     17  N10       16.1700    9.3730  -14.7190 N.pl3 501  FMN501     -0.2691
     18  C10       15.5000   10.4150  -15.3270 C.2   501  FMN501      0.2416
     19  C1'       16.9260    8.3980  -15.5850 C.3   501  FMN501      0.1294
     20  C2'       16.2840    7.0700  -15.9510 C.3   501  FMN501      0.2044
     21  O2'       15.6090    6.5510  -14.8210 O.3   501  FMN501     -0.2185
     22  C3'       17.3510    6.0700  -16.4260 C.3   501  FMN501      0.2164
     23  O3'       18.3700    6.0020  -15.4630 O.3   501  FMN501     -0.2175
     24  C4'       17.9590    6.4330  -17.7930 C.3   501  FMN501      0.2147
     25  O4'       16.9400    6.5050  -18.7720 O.3   501  FMN501     -0.2176
     26  C5'       19.0350    5.4500  -18.2840 C.3   501  FMN501      0.1892
     27  O5'       18.7010    4.0970  -18.0380 O.3   501  FMN501     -0.2674
     28  P         17.9870    3.1710  -19.1470 P.3   501  FMN501      0.5327
     29  O1P       18.8820    2.9340  -20.3460 O.2   501  FMN501     -0.2224
     30  O2P       17.6400    1.8620  -18.5020 O.3   501  FMN501     -0.1145
     31  O3P       16.7320    3.8840  -19.5990 O.3   501  FMN501     -0.1145
@<TRIPOS>BOND
     1    29    28    2
     2    31    28    1
     3    28    30    1
     4    28    27    1
     5    25    24    1
     6     3     2    2
     7    26    27    1
     8    26    24    1
     9    24    22    1
    10     2     1    2
    11     2     4    2
    12     1    18    2
    13     4     5    2
    14    22    20    1
    15    22    23    1
    16    20    19    1
    17    20    21    1
    18    19    17    1
    19    18    17    1
    20    18     7    1
    21     5     6    2
    22     5     7    1
    23    17    16    1
    24     7     8    2
    25    16    15    1
    26    16     9    1
    27     8     9    2
    28    15    13    2
    29     9    10    1
    30    13    14    1
    31    13    11    1
    32    10    11    2
    33    11    12    1
