@<TRIPOS>MOLECULE
4eeu_FMN_A_1.pdb
 31 33 0 0 0
SMALL
GASTEIGER

@<TRIPOS>ATOM
      1  N1        -1.6560    7.3040  -19.9070 N.2   501  FMN501     -0.2890
      2  C2        -1.8800    7.9480  -18.7250 C.1   501  FMN501      0.3669
      3  O2        -2.8880    8.6470  -18.5790 O.2   501  FMN501     -0.1744
      4  N3        -0.9840    7.8130  -17.6880 N.2   501  FMN501     -0.2300
      5  C4         0.1600    7.0650  -17.7740 C.1   501  FMN501      0.2513
      6  O4         0.9360    7.0070  -16.8040 O.2   501  FMN501     -0.2057
      7  C4A        0.3840    6.3880  -18.9720 C.2   501  FMN501      0.2700
      8  N5         1.5020    5.6020  -19.1220 N.2   501  FMN501     -0.3878
      9  C5A        1.6970    4.9860  -20.3450 C.2   501  FMN501      0.1320
     10  C6         2.8390    4.2060  -20.5060 C.2   501  FMN501      0.0250
     11  C7         3.1320    3.5610  -21.6890 C.2   501  FMN501     -0.0238
     12  C7M        4.3890    2.7290  -21.8040 C.3   501  FMN501      0.0308
     13  C8         2.2550    3.6960  -22.7590 C.2   501  FMN501     -0.0280
     14  C8M        2.5430    3.0020  -24.0700 C.3   501  FMN501      0.0304
     15  C9         1.1050    4.4920  -22.6250 C.2   501  FMN501     -0.0041
     16  C9A        0.8230    5.1440  -21.4210 C.3   501  FMN501      0.1497
     17  N10       -0.3260    5.9210  -21.2500 N.pl3 501  FMN501     -0.2691
     18  C10       -0.5150    6.5550  -20.0320 C.2   501  FMN501      0.2416
     19  C1'       -1.2730    6.2020  -22.3670 C.3   501  FMN501      0.1294
     20  C2'       -2.4290    5.2590  -22.5810 C.3   501  FMN501      0.2044
     21  O2'       -1.9660    3.9510  -22.3210 O.3   501  FMN501     -0.2185
     22  C3'       -2.9000    5.3610  -24.0200 C.3   501  FMN501      0.2164
     23  O3'       -1.8150    5.0600  -24.9130 O.3   501  FMN501     -0.2175
     24  C4'       -3.4730    6.7490  -24.3480 C.3   501  FMN501      0.2147
     25  O4'       -4.5930    7.0040  -23.5060 O.3   501  FMN501     -0.2176
     26  C5'       -3.8520    6.9530  -25.8230 C.3   501  FMN501      0.1892
     27  O5'       -4.5550    5.8320  -26.3020 O.3   501  FMN501     -0.2674
     28  P         -6.1540    5.7980  -26.2790 P.3   501  FMN501      0.5327
     29  O1P       -6.4680    4.5120  -27.0140 O.3   501  FMN501     -0.1145
     30  O2P       -6.6010    5.8240  -24.8320 O.3   501  FMN501     -0.1145
     31  O3P       -6.7180    6.9960  -27.0140 O.2   501  FMN501     -0.2224
@<TRIPOS>BOND
     1    31    28    2
     2    29    28    1
     3    27    28    1
     4    27    26    1
     5    28    30    1
     6    26    24    1
     7    23    22    1
     8    24    22    1
     9    24    25    1
    10    14    13    1
    11    22    20    1
    12    13    15    2
    13    13    11    1
    14    15    16    1
    15    20    19    1
    16    20    21    1
    17    19    17    1
    18    12    11    1
    19    11    10    2
    20    16    17    1
    21    16     9    1
    22    17    18    1
    23    10     9    1
    24     9     8    2
    25    18     1    2
    26    18     7    1
    27     1     2    2
    28     8     7    2
    29     7     5    1
    30     2     3    2
    31     2     4    2
    32     5     4    2
    33     5     6    2
