@<TRIPOS>MOLECULE
4eey_DCP_A_1.pdb
 28 29 0 0 0
SMALL
GASTEIGER

@<TRIPOS>ATOM
      1  N1        51.7130   -4.3240    4.4580 N.am  501  DCP501     -0.1802
      2  C2        53.0290   -4.6550    4.8780 C.1   501  DCP501      0.2756
      3  N3        53.7630   -3.7590    5.5810 N.2   501  DCP501     -0.3024
      4  C4        53.2540   -2.5370    5.8910 C.2   501  DCP501      0.2346
      5  C5        51.9650   -2.1910    5.4970 C.2   501  DCP501      0.0687
      6  C6        51.2130   -3.1130    4.7760 C.2   501  DCP501      0.0835
      7  O2        53.5190   -5.7670    4.6030 O.2   501  DCP501     -0.1925
      8  N4        53.9910   -1.6410    6.5920 N.pl3 501  DCP501     -0.0921
      9  C1'       50.8920   -5.2850    3.7010 C.3   501  DCP501      0.2090
     10  C2'       50.1250   -6.2160    4.6440 C.3   501  DCP501      0.0874
     11  C3'       48.7060   -5.6510    4.6280 C.3   501  DCP501      0.1857
     12  C4'       48.5830   -5.0220    3.2560 C.3   501  DCP501      0.1773
     13  O4'       49.9070   -4.5770    2.9360 O.3   501  DCP501     -0.3339
     14  O3'       47.6940   -6.6290    4.8610 O.3   501  DCP501     -0.2203
     15  C5'       47.6380   -3.8380    3.2510 C.3   501  DCP501      0.1812
     16  O5'       48.1150   -2.8510    4.1630 O.3   501  DCP501     -0.3112
     17  PA        47.1140   -1.9260    5.0130 P.3   501  DCP501      0.2189
     18  O1A       45.8680   -1.6700    4.1880 O.2   501  DCP501     -0.5170
     19  O2A       47.9160   -0.7650    5.5280 O.3   501  DCP501     -0.4371
     20  O3A       46.7320   -2.8080    6.3050 O.3   501  DCP501     -0.2700
     21  PB        45.6810   -4.0310    6.3730 P.3   501  DCP501      0.2277
     22  O1B       44.8710   -4.2120    5.1070 O.2   501  DCP501     -0.5168
     23  O2B       46.4620   -5.2160    6.8830 O.3   501  DCP501     -0.4368
     24  O3B       44.7030   -3.5230    7.5640 O.3   501  DCP501     -0.2258
     25  PG        43.4850   -2.4720    7.3840 P.3   501  DCP501      0.5373
     26  O1G       43.6130   -1.8800    5.9970 O.2   501  DCP501     -0.2221
     27  O2G       43.7320   -1.4770    8.5060 O.3   501  DCP501     -0.1143
     28  O3G       42.2630   -3.3290    7.5880 O.3   501  DCP501     -0.1143
@<TRIPOS>BOND
     1    13    12    1
     2    13     9    1
     3    15    12    1
     4    15    16    1
     5    12    11    1
     6     9     1    1
     7     9    10    1
     8    16    17    1
     9    18    17    2
    10     1     6    1
    11     1     2   am
    12     7     2    2
    13    11    10    1
    14    11    14    1
    15     6     5    2
    16     2     3    2
    17    17    19    1
    18    17    20    1
    19    22    21    2
    20     5     4    1
    21     3     4    2
    22     4     8    1
    23    26    25    2
    24    20    21    1
    25    21    23    1
    26    21    24    1
    27    25    24    1
    28    25    28    1
    29    25    27    1
