@<TRIPOS>MOLECULE
4ef4_C2E_A_1.pdb
 46 52 0 0 0
SMALL
GASTEIGER

@<TRIPOS>ATOM
      1  P1       -10.8060   18.9340  -15.1560 P.3   401  C2E401      0.2141
      2  O2P      -10.9240   20.0180  -14.1640 O.3   401  C2E401     -0.4373
      3  O1P       -9.3760   18.9510  -15.6810 O.2   401  C2E401     -0.5172
      4  O5'      -11.6700   19.1510  -16.4650 O.3   401  C2E401     -0.3114
      5  C5'      -13.1360   19.0850  -16.3750 C.3   401  C2E401      0.1812
      6  C4'      -13.8340   19.0840  -17.6680 C.3   401  C2E401      0.1771
      7  O4'      -13.5060   20.2500  -18.3440 O.3   401  C2E401     -0.3327
      8  C3'      -13.3460   18.0170  -18.5270 C.3   401  C2E401      0.1857
      9  O3'      -14.0030   16.7810  -18.1870 O.3   401  C2E401     -0.3112
     10  C2'      -13.7700   18.4570  -19.7690 C.3   401  C2E401      0.2282
     11  O2'      -15.1220   18.2130  -19.9480 O.3   401  C2E401     -0.2159
     12  C1'      -13.4590   19.9250  -19.7050 C.3   401  C2E401      0.2292
     13  N9       -12.1110   20.1310  -20.2530 N.pl3 401  C2E401     -0.2354
     14  C8       -10.9150   20.0190  -19.6490 C.3   401  C2E401      0.2246
     15  N7        -9.9650   20.2600  -20.5690 N.2   401  C2E401     -0.2322
     16  C5       -10.5650   20.5140  -21.7590 C.2   401  C2E401      0.2182
     17  C6       -10.0950   20.8320  -23.0440 C.1   401  C2E401      0.2372
     18  O6        -8.7050   20.9280  -23.2810 O.2   401  C2E401     -0.2069
     19  N1       -10.9730   21.0470  -24.0330 N.2   401  C2E401     -0.2485
     20  C2       -12.2860   20.9590  -23.7890 C.1   401  C2E401      0.2531
     21  N2       -13.2130   21.1880  -24.8830 N.pl3 401  C2E401     -0.0226
     22  N3       -12.7830   20.6540  -22.5700 N.2   401  C2E401     -0.3074
     23  C4       -11.9390   20.4280  -21.5500 C.2   401  C2E401      0.2300
     24  P11      -13.3040   15.3530  -18.2330 P.3   401  C2E401      0.2141
     25  O21      -14.2770   14.2460  -18.2180 O.3   401  C2E401     -0.4373
     26  O11      -12.5590   15.2610  -19.5100 O.2   401  C2E401     -0.5172
     27  O5A      -12.1680   15.1670  -17.0720 O.3   401  C2E401     -0.3114
     28  C5A      -12.5150   14.9390  -15.6910 C.3   401  C2E401      0.1812
     29  C4A      -11.4830   15.0870  -14.7840 C.3   401  C2E401      0.1771
     30  O4A      -10.5910   13.8930  -14.8760 O.3   401  C2E401     -0.3327
     31  C3A      -10.5880   16.2200  -15.0910 C.3   401  C2E401      0.1857
     32  O3A      -11.0200   17.4310  -14.5270 O.3   401  C2E401     -0.3112
     33  C2A       -9.3340   15.7970  -14.4530 C.3   401  C2E401      0.2282
     34  O2A       -9.3210   16.0870  -13.1200 O.3   401  C2E401     -0.2159
     35  C1A       -9.2900   14.3370  -14.6800 C.3   401  C2E401      0.2292
     36  N91       -8.4420   13.9860  -15.8690 N.pl3 401  C2E401     -0.2354
     37  C81       -8.8060   14.0140  -17.1680 C.3   401  C2E401      0.2246
     38  N71       -7.7510   13.6370  -17.9120 N.2   401  C2E401     -0.2322
     39  C51       -6.7040   13.3610  -17.0950 C.2   401  C2E401      0.2182
     40  C61       -5.3820   12.9370  -17.2620 C.1   401  C2E401      0.2372
     41  O61       -4.8540   12.6860  -18.5260 O.2   401  C2E401     -0.2069
     42  N11       -4.6110   12.7660  -16.1670 N.2   401  C2E401     -0.2485
     43  C21       -5.1020   13.0010  -14.9370 C.1   401  C2E401      0.2531
     44  N21       -4.2700   12.8160  -13.8070 N.pl3 401  C2E401     -0.0226
     45  N31       -6.3610   13.4130  -14.7400 N.2   401  C2E401     -0.3074
     46  C41       -7.1640   13.5950  -15.7960 C.2   401  C2E401      0.2300
@<TRIPOS>BOND
     1    21    20    1
     2    19    20    2
     3    19    17    2
     4    20    22    2
     5    18    17    2
     6    17    16    1
     7    22    23    2
     8    16    23    1
     9    16    15    2
    10    23    13    1
    11    15    14    1
    12    13    12    1
    13    13    14    1
    14    11    10    1
    15    10    12    1
    16    10     8    1
    17    12     7    1
    18    26    24    2
    19     8     9    1
    20     8     6    1
    21    41    40    2
    22     7     6    1
    23    24    25    1
    24    24     9    1
    25    24    27    1
    26    38    37    1
    27    38    39    2
    28     6     5    1
    29    40    39    1
    30    40    42    2
    31    37    36    1
    32    39    46    1
    33    27    28    1
    34     4     5    1
    35     4     1    1
    36    42    43    2
    37    36    46    1
    38    36    35    1
    39    46    45    2
    40    28    29    1
    41     3     1    2
    42     1    32    1
    43     1     2    1
    44    31    29    1
    45    31    32    1
    46    31    33    1
    47    43    45    2
    48    43    44    1
    49    30    29    1
    50    30    35    1
    51    35    33    1
    52    33    34    1
