@<TRIPOS>MOLECULE
4ef8_FMN_A_1.pdb
 31 33 0 0 0
SMALL
GASTEIGER

@<TRIPOS>ATOM
      1  N1       -54.2750   17.7700  -15.2950 N.2   401  FMN401     -0.2887
      2  C2       -55.3630   17.7840  -16.0890 C.1   401  FMN401      0.3669
      3  O2       -56.4170   17.2730  -15.6370 O.2   401  FMN401     -0.1744
      4  N3       -55.3440   18.3040  -17.3280 N.2   401  FMN401     -0.2300
      5  C4       -54.2410   18.8530  -17.8650 C.1   401  FMN401      0.2513
      6  O4       -54.2220   19.3220  -19.0190 O.2   401  FMN401     -0.2057
      7  C4A      -52.9970   18.8630  -17.0770 C.2   401  FMN401      0.2703
      8  N5       -51.8450   19.3920  -17.5580 N.2   401  FMN401     -0.3882
      9  C5A      -50.7200   19.3320  -16.8080 C.2   401  FMN401      0.1277
     10  C6       -49.5260   19.8390  -17.3070 C.3   401  FMN401      0.0820
     11  C7       -48.3830   19.7890  -16.5160 C.2   401  FMN401     -0.0408
     12  C7M      -47.0750   20.3300  -17.0340 C.3   401  FMN401      0.0265
     13  C8       -48.4300   19.1840  -15.1580 C.2   401  FMN401     -0.0280
     14  C8M      -47.1990   19.1310  -14.2960 C.3   401  FMN401      0.0304
     15  C9       -49.6190   18.6730  -14.6570 C.2   401  FMN401      0.0123
     16  C9A      -50.7570   18.7450  -15.4410 C.2   401  FMN401      0.0793
     17  N10      -51.9610   18.2320  -14.9260 N.pl3 401  FMN401     -0.2545
     18  C10      -53.0990   18.2640  -15.7310 C.2   401  FMN401      0.2449
     19  C1'      -52.0390   17.6310  -13.5970 C.3   401  FMN401      0.1336
     20  C2'      -51.6150   16.1790  -13.6920 C.3   401  FMN401      0.2048
     21  O2'      -52.5540   15.4880  -14.5260 O.3   401  FMN401     -0.2185
     22  C3'      -51.6090   15.5520  -12.3060 C.3   401  FMN401      0.2165
     23  O3'      -52.9430   15.6590  -11.7840 O.3   401  FMN401     -0.2175
     24  C4'      -50.6400   16.2190  -11.3320 C.3   401  FMN401      0.2147
     25  O4'      -49.4500   16.6250  -12.0160 O.3   401  FMN401     -0.2176
     26  C5'      -50.2650   15.3210  -10.1460 C.3   401  FMN401      0.1892
     27  O5'      -49.5200   14.1660  -10.5510 O.3   401  FMN401     -0.2674
     28  P        -47.9180   13.9990  -10.3690 P.3   401  FMN401      0.5327
     29  O1P      -47.7280   14.1890   -8.9030 O.3   401  FMN401     -0.1145
     30  O2P      -47.3100   15.1300  -11.1950 O.2   401  FMN401     -0.2224
     31  O3P      -47.8240   12.6420  -10.9920 O.3   401  FMN401     -0.1145
@<TRIPOS>BOND
     1     6     5    2
     2     5     4    2
     3     5     7    1
     4     8     7    2
     5     8     9    2
     6     4     2    2
     7    10     9    1
     8    10    11    1
     9     7    18    1
    10    12    11    1
    11     9    16    1
    12    11    13    2
    13     2     3    2
    14     2     1    2
    15    18     1    2
    16    18    17    1
    17    16    17    1
    18    16    15    2
    19    13    15    1
    20    13    14    1
    21    17    19    1
    22    21    20    1
    23    20    19    1
    24    20    22    1
    25    22    23    1
    26    22    24    1
    27    25    24    1
    28    24    26    1
    29    30    28    2
    30    31    28    1
    31    27    28    1
    32    27    26    1
    33    28    29    1
