@<TRIPOS>MOLECULE
4ef9_4NF_A_1.pdb
 12 12 0 0 0
SMALL
GASTEIGER

@<TRIPOS>ATOM
      1  N2       -54.7140  -47.4310  -17.3470 N.2   401  4NF401     -0.2363
      2  S2       -53.3150  -49.6430  -17.6570 S.3   401  4NF401     -0.0280
      3  C4       -53.9500  -48.4460  -16.6770 C.2   401  4NF401      0.1408
      4  O4       -57.0080  -42.3910  -14.2090 O.2   401  4NF401     -0.1261
      5  C5       -55.1560  -46.1740  -16.8080 C.ar  401  4NF401      0.0821
      6  C6       -56.2440  -46.1230  -15.9390 C.ar  401  4NF401      0.0208
      7  C7       -56.7010  -44.9060  -15.4440 C.ar  401  4NF401      0.0256
      8  C8       -56.0680  -43.7330  -15.8340 C.ar  401  4NF401      0.1430
      9  C9       -54.9950  -43.7600  -16.7080 C.ar  401  4NF401      0.0256
     10  C10      -54.5530  -44.9790  -17.1940 C.ar  401  4NF401      0.0208
     11  N3       -56.5090  -42.4690  -15.3240 N.pl3 401  4NF401      0.0577
     12  O3       -56.3690  -41.3930  -16.0370 O.2   401  4NF401     -0.1261
@<TRIPOS>BOND
     1     2     3    1
     2     1     5    1
     3     1     3    2
     4    10     5   ar
     5    10     9   ar
     6     5     6   ar
     7     9     8   ar
     8    12    11    2
     9     6     7   ar
    10     8     7   ar
    11     8    11    1
    12    11     4    2
