@<TRIPOS>MOLECULE
4ef9_FMN_A_1.pdb
 31 33 0 0 0
SMALL
GASTEIGER

@<TRIPOS>ATOM
      1  N1       -42.4180  -38.1780  -15.3660 N.2   402  FMN402     -0.2887
      2  C2       -42.9630  -39.1100  -16.1760 C.1   402  FMN402      0.3669
      3  O2       -43.0580  -40.2800  -15.7400 O.2   402  FMN402     -0.1744
      4  N3       -43.3730  -38.8370  -17.4260 N.2   402  FMN402     -0.2300
      5  C4       -43.3010  -37.6120  -17.9640 C.1   402  FMN402      0.2513
      6  O4       -43.6460  -37.3680  -19.1440 O.2   402  FMN402     -0.2057
      7  C4A      -42.6830  -36.5440  -17.1580 C.2   402  FMN402      0.2706
      8  N5       -42.5550  -35.2840  -17.6230 N.2   402  FMN402     -0.3841
      9  C5A      -41.9010  -34.3540  -16.8960 C.2   402  FMN402      0.1452
     10  C6       -41.7140  -33.0880  -17.4340 C.2   402  FMN402      0.0252
     11  C7       -41.0820  -32.1170  -16.6710 C.2   402  FMN402     -0.0375
     12  C7M      -40.8760  -30.7360  -17.2370 C.3   402  FMN402      0.0268
     13  C8       -40.5980  -32.4370  -15.3010 C.3   402  FMN402      0.0417
     14  C8M      -39.9280  -31.3820  -14.4700 C.3   402  FMN402      0.0091
     15  C9       -40.7880  -33.6990  -14.7570 C.2   402  FMN402     -0.0049
     16  C9A      -41.4250  -34.6650  -15.5210 C.2   402  FMN402      0.0795
     17  N10      -41.6460  -35.9450  -14.9890 N.pl3 402  FMN402     -0.2545
     18  C10      -42.2500  -36.9150  -15.7940 C.2   402  FMN402      0.2449
     19  C1'      -41.1720  -36.3160  -13.6610 C.3   402  FMN402      0.1336
     20  C2'      -39.7010  -36.6670  -13.7860 C.3   402  FMN402      0.2048
     21  O2'      -39.5740  -37.8240  -14.6260 O.3   402  FMN402     -0.2185
     22  C3'      -39.1420  -36.9890  -12.4070 C.3   402  FMN402      0.2165
     23  O3'      -39.8660  -38.1080  -11.8840 O.3   402  FMN402     -0.2175
     24  C4'      -39.2590  -35.8290  -11.4240 C.3   402  FMN402      0.2147
     25  O4'      -38.9970  -34.5810  -12.0840 O.3   402  FMN402     -0.2176
     26  C5'      -38.2920  -35.9950  -10.2450 C.3   402  FMN402      0.1892
     27  O5'      -36.9250  -35.9560  -10.6710 O.3   402  FMN402     -0.2674
     28  P        -35.9820  -34.6430  -10.5020 P.3   402  FMN402      0.5327
     29  O1P      -36.0240  -34.3140   -9.0400 O.3   402  FMN402     -0.1145
     30  O2P      -36.6290  -33.5360  -11.3140 O.2   402  FMN402     -0.2224
     31  O3P      -34.7000  -35.1330  -11.1110 O.3   402  FMN402     -0.1145
@<TRIPOS>BOND
     1     6     5    2
     2     5     4    2
     3     5     7    1
     4     8     7    2
     5     8     9    2
     6    10     9    1
     7    10    11    2
     8     4     2    2
     9    12    11    1
    10     7    18    1
    11     9    16    1
    12    11    13    1
    13     2     3    2
    14     2     1    2
    15    18     1    2
    16    18    17    1
    17    16    17    1
    18    16    15    2
    19    13    15    1
    20    13    14    1
    21    17    19    1
    22    21    20    1
    23    20    19    1
    24    20    22    1
    25    22    23    1
    26    22    24    1
    27    25    24    1
    28    24    26    1
    29    30    28    2
    30    31    28    1
    31    27    28    1
    32    27    26    1
    33    28    29    1
