@<TRIPOS>MOLECULE
4efg_RET_A_1.pdb
 20 20 0 0 0
SMALL
GASTEIGER

@<TRIPOS>ATOM
      1  C1        -7.5700    1.7800   -8.2210 C.3   201  RET201      0.0183
      2  C2        -8.3630    1.9770   -6.9400 C.3   201  RET201      0.0044
      3  C3        -8.0700    3.3500   -6.3410 C.3   201  RET201      0.0047
      4  C4        -8.3810    4.5000   -7.2970 C.3   201  RET201      0.0217
      5  C5        -7.8610    4.2600   -8.7110 C.2   201  RET201     -0.0479
      6  C6        -7.5660    3.0110   -9.1390 C.2   201  RET201     -0.0307
      7  C7        -7.2070    2.8840  -10.5730 C.2   201  RET201     -0.0052
      8  C8        -6.0350    2.3350  -10.9350 C.2   201  RET201     -0.0046
      9  C9        -5.6330    2.2000  -12.3540 C.2   201  RET201     -0.0219
     10  C10       -4.7060    1.2680  -12.6580 C.2   201  RET201     -0.0043
     11  C11       -4.2400    1.0340  -14.0300 C.2   201  RET201     -0.0007
     12  C12       -3.1830    0.2370  -14.1640 C.2   201  RET201     -0.0046
     13  C13       -2.7290   -0.0390  -15.5230 C.2   201  RET201     -0.0261
     14  C14       -1.9370   -1.0640  -15.7340 C.2   201  RET201     -0.0300
     15  C15       -1.5470   -1.2830  -17.1630 C.3   201  RET201      0.0304
     16  C16       -8.0980    0.5230   -8.9170 C.3   201  RET201      0.0043
     17  C17       -6.1540    1.4450   -7.7700 C.3   201  RET201      0.0043
     18  C18       -7.6860    5.4770   -9.6070 C.3   201  RET201      0.0260
     19  C19       -6.2210    3.0940  -13.4200 C.3   201  RET201      0.0310
     20  C20       -3.1820    0.7970  -16.6840 C.3   201  RET201      0.0307
@<TRIPOS>BOND
     1    15    14    1
     2    20    13    1
     3    14    13    2
     4    13    12    1
     5    12    11    2
     6    11    10    1
     7    19     9    1
     8    10     9    2
     9     9     8    1
    10     8     7    2
    11     7     6    1
    12    18     5    1
    13     6     5    2
    14     6     1    1
    15    16     1    1
    16     5     4    1
    17     1    17    1
    18     1     2    1
    19     4     3    1
    20     2     3    1
