@<TRIPOS>MOLECULE
4efh_ADP_A_1.pdb
 27 29 0 0 0
SMALL
GASTEIGER

@<TRIPOS>ATOM
      1  PB        -0.8890   15.1550  -22.5140 P.3   403  ADP403      0.5373
      2  O1B       -0.7090   14.7190  -23.9040 O.2   403  ADP403     -0.2221
      3  O2B        0.4510   15.6900  -21.9850 O.3   403  ADP403     -0.1143
      4  O3B       -2.0000   16.2260  -22.4210 O.3   403  ADP403     -0.1143
      5  PA        -1.3350   12.3340  -21.5600 P.3   403  ADP403      0.2231
      6  O1A       -2.2150   11.8090  -22.6330 O.2   403  ADP403     -0.5169
      7  O2A        0.1050   11.8490  -21.7390 O.3   403  ADP403     -0.4370
      8  O3A       -1.3450   13.9340  -21.5870 O.3   403  ADP403     -0.2261
      9  O5'       -1.8620   11.8820  -20.1520 O.3   403  ADP403     -0.3111
     10  C5'       -1.2840   12.4680  -18.9690 C.3   403  ADP403      0.1813
     11  C4'       -2.3510   12.4810  -17.9110 C.3   403  ADP403      0.1821
     12  O4'       -2.9020   11.1520  -17.7920 O.3   403  ADP403     -0.3135
     13  C3'       -1.8870   12.8860  -16.5130 C.3   403  ADP403      0.2184
     14  O3'       -2.8220   13.7880  -15.9310 O.3   403  ADP403     -0.2174
     15  C2'       -1.7700   11.5420  -15.7880 C.3   403  ADP403      0.2570
     16  O2'       -1.9060   11.6070  -14.3750 O.3   403  ADP403     -0.2130
     17  C1'       -2.9010   10.7520  -16.4410 C.3   403  ADP403      0.3186
     18  N9        -2.7230    9.3040  -16.4080 N.pl3 403  ADP403     -0.1439
     19  C8        -1.6110    8.6010  -16.7990 C.3   403  ADP403      0.3377
     20  N7        -1.7100    7.3060  -16.6300 N.2   403  ADP403     -0.2095
     21  C5        -2.9790    7.1410  -16.0920 C.2   403  ADP403      0.2526
     22  C6        -3.6880    6.0000  -15.6680 C.2   403  ADP403      0.4393
     23  N6        -3.1990    4.7610  -15.7420 N.pl3 403  ADP403      0.2180
     24  N1        -4.9400    6.1820  -15.1790 N.2   403  ADP403      0.0021
     25  C2        -5.4390    7.4260  -15.1240 C.3   403  ADP403      0.5254
     26  N3        -4.8600    8.5770  -15.4860 N.2   403  ADP403     -0.0055
     27  C4        -3.6190    8.3650  -15.9610 C.2   403  ADP403      0.3518
@<TRIPOS>BOND
     1     2     1    2
     2     6     5    2
     3     1     4    1
     4     1     3    1
     5     1     8    1
     6     7     5    1
     7     8     5    1
     8     5     9    1
     9     9    10    1
    10    10    11    1
    11    11    12    1
    12    11    13    1
    13    12    17    1
    14    19    20    1
    15    19    18    1
    16    20    21    2
    17    13    14    1
    18    13    15    1
    19    17    18    1
    20    17    15    1
    21    18    27    1
    22    21    27    1
    23    21    22    1
    24    27    26    2
    25    15    16    1
    26    23    22    1
    27    22    24    2
    28    26    25    1
    29    24    25    1
