@<TRIPOS>MOLECULE
4efl_GNP_A_1.pdb
 32 34 0 0 0
SMALL
GASTEIGER

@<TRIPOS>ATOM
      1  PG        12.8130    9.8650   38.7630 P.3   201  GNP201      0.4884
      2  O1G       12.2220   10.7370   37.6690 O.2   201  GNP201     -0.2331
      3  O2G       13.6600    8.7320   38.2170 O.3   201  GNP201     -0.1240
      4  O3G       13.7110   10.5960   39.7130 O.3   201  GNP201     -0.1240
      5  N3B       11.6080    9.2120   39.5930 N.3   201  GNP201     -0.0163
      6  PB        10.3310    9.9770   40.1900 P.3   201  GNP201      0.4669
      7  O1B        9.8380   10.9610   39.1990 O.2   201  GNP201     -0.2351
      8  O2B       10.6750   10.5700   41.5130 O.3   201  GNP201     -0.1253
      9  O3A        9.2320    8.9180   40.4580 O.3   201  GNP201     -0.2360
     10  PA         8.1320    8.3460   39.5160 P.3   201  GNP201      0.2220
     11  O1A        8.8380    7.9780   38.2700 O.2   201  GNP201     -0.5170
     12  O2A        6.9200    9.1840   39.3940 O.3   201  GNP201     -0.4370
     13  O5'        7.6400    7.0440   40.2400 O.3   201  GNP201     -0.3111
     14  C5'        8.5420    6.0310   40.6870 C.3   201  GNP201      0.1813
     15  C4'        7.7910    4.7180   40.8820 C.3   201  GNP201      0.1799
     16  O4'        6.9940    4.7680   42.0890 O.3   201  GNP201     -0.3326
     17  C3'        6.8050    4.3380   39.7770 C.3   201  GNP201      0.2158
     18  O3'        6.7910    2.9180   39.6540 O.3   201  GNP201     -0.2175
     19  C2'        5.4820    4.9240   40.2860 C.3   201  GNP201      0.2310
     20  O2'        4.3030    4.3160   39.7830 O.3   201  GNP201     -0.2158
     21  C1'        5.6170    4.6640   41.7850 C.3   201  GNP201      0.2293
     22  N9         4.9000    5.6210   42.6180 N.pl3 201  GNP201     -0.2354
     23  C8         4.9310    6.9980   42.5470 C.3   201  GNP201      0.2246
     24  N7         4.1800    7.5690   43.4490 N.2   201  GNP201     -0.2322
     25  C5         3.6310    6.5120   44.1640 C.2   201  GNP201      0.2182
     26  C6         2.7260    6.5050   45.2510 C.1   201  GNP201      0.2372
     27  O6         2.2420    7.4990   45.8160 O.2   201  GNP201     -0.2069
     28  N1         2.4070    5.1950   45.6790 N.2   201  GNP201     -0.2485
     29  C2         2.9110    4.0420   45.1090 C.1   201  GNP201      0.2531
     30  N2         2.5180    2.8660   45.6230 N.pl3 201  GNP201     -0.0226
     31  N3         3.7420    4.0410   44.0770 N.2   201  GNP201     -0.3074
     32  C4         4.0580    5.3020   43.6570 C.2   201  GNP201      0.2300
@<TRIPOS>BOND
     1     2     1    2
     2     3     1    1
     3    11    10    2
     4     1     5    1
     5     1     4    1
     6     7     6    2
     7    12    10    1
     8    10    13    1
     9    10     9    1
    10     5     6    1
    11    18    17    1
    12    17    19    1
    13    17    15    1
    14    20    19    1
    15     6     9    1
    16     6     8    1
    17    13    14    1
    18    19    21    1
    19    14    15    1
    20    15    16    1
    21    21    16    1
    22    21    22    1
    23    23    22    1
    24    23    24    1
    25    22    32    1
    26    24    25    2
    27    32    31    2
    28    32    25    1
    29    31    29    2
    30    25    26    1
    31    29    30    1
    32    29    28    2
    33    26    28    2
    34    26    27    2
