@<TRIPOS>MOLECULE
4efm_GNP_A_1.pdb
 32 34 0 0 0
SMALL
GASTEIGER

@<TRIPOS>ATOM
      1  PG        12.7050    9.7520   38.8600 P.3   201  GNP201      0.4884
      2  O1G       12.1990   10.7550   37.8320 O.2   201  GNP201     -0.2331
      3  O2G       13.4820    8.5980   38.2690 O.3   201  GNP201     -0.1240
      4  O3G       13.6550   10.3330   39.8660 O.3   201  GNP201     -0.1240
      5  N3B       11.4670    9.1490   39.6460 N.3   201  GNP201     -0.0163
      6  PB        10.2490    9.9650   40.2720 P.3   201  GNP201      0.4669
      7  O1B        9.7810   10.9140   39.2330 O.2   201  GNP201     -0.2351
      8  O2B       10.6060   10.5610   41.5910 O.3   201  GNP201     -0.1253
      9  O3A        9.1490    8.9280   40.5500 O.3   201  GNP201     -0.2360
     10  PA         8.0780    8.2870   39.6070 P.3   201  GNP201      0.2220
     11  O1A        8.8030    7.8590   38.3890 O.2   201  GNP201     -0.5170
     12  O2A        6.8600    9.1160   39.4410 O.3   201  GNP201     -0.4370
     13  O5'        7.6000    7.0530   40.4400 O.3   201  GNP201     -0.3111
     14  C5'        8.5130    6.0120   40.7940 C.3   201  GNP201      0.1813
     15  C4'        7.7380    4.7280   41.0020 C.3   201  GNP201      0.1799
     16  O4'        6.9360    4.8360   42.2110 O.3   201  GNP201     -0.3326
     17  C3'        6.7580    4.3580   39.8910 C.3   201  GNP201      0.2158
     18  O3'        6.7020    2.9450   39.8020 O.3   201  GNP201     -0.2175
     19  C2'        5.4380    4.9370   40.4080 C.3   201  GNP201      0.2310
     20  O2'        4.2820    4.2840   39.9310 O.3   201  GNP201     -0.2158
     21  C1'        5.5710    4.6830   41.9110 C.3   201  GNP201      0.2293
     22  N9         4.8180    5.6230   42.7350 N.pl3 201  GNP201     -0.2354
     23  C8         4.8110    6.9960   42.6450 C.3   201  GNP201      0.2246
     24  N7         4.0470    7.5640   43.5300 N.2   201  GNP201     -0.2322
     25  C5         3.5160    6.5020   44.2560 C.2   201  GNP201      0.2182
     26  C6         2.6010    6.4950   45.3390 C.1   201  GNP201      0.2372
     27  O6         2.0740    7.4740   45.9010 O.2   201  GNP201     -0.2069
     28  N1         2.3230    5.1890   45.7800 N.2   201  GNP201     -0.2485
     29  C2         2.8600    4.0390   45.2280 C.1   201  GNP201      0.2531
     30  N2         2.4820    2.8740   45.7720 N.pl3 201  GNP201     -0.0226
     31  N3         3.7030    4.0340   44.2060 N.2   201  GNP201     -0.3074
     32  C4         3.9830    5.2960   43.7720 C.2   201  GNP201      0.2300
@<TRIPOS>BOND
     1     2     1    2
     2     3     1    1
     3    11    10    2
     4     1     5    1
     5     1     4    1
     6     7     6    2
     7    12    10    1
     8    10    13    1
     9    10     9    1
    10     5     6    1
    11    18    17    1
    12    17    19    1
    13    17    15    1
    14    20    19    1
    15     6     9    1
    16     6     8    1
    17    19    21    1
    18    13    14    1
    19    14    15    1
    20    15    16    1
    21    21    16    1
    22    21    22    1
    23    23    22    1
    24    23    24    1
    25    22    32    1
    26    24    25    2
    27    32    31    2
    28    32    25    1
    29    31    29    2
    30    25    26    1
    31    29    30    1
    32    29    28    2
    33    26    28    2
    34    26    27    2
