@<TRIPOS>MOLECULE
4efn_GNP_A_1.pdb
 32 34 0 0 0
SMALL
GASTEIGER

@<TRIPOS>ATOM
      1  PG        12.7620    9.7620   38.6260 P.3   201  GNP201      0.4884
      2  O1G       12.2580   10.7390   37.5810 O.2   201  GNP201     -0.2331
      3  O2G       13.6000    8.6480   38.0670 O.3   201  GNP201     -0.1240
      4  O3G       13.6770   10.3470   39.6560 O.3   201  GNP201     -0.1240
      5  N3B       11.4690    9.1530   39.3620 N.3   201  GNP201     -0.0163
      6  PB        10.2610    9.9900   40.0030 P.3   201  GNP201      0.4669
      7  O1B        9.7770   10.9850   38.9990 O.2   201  GNP201     -0.2351
      8  O2B       10.6520   10.6190   41.2970 O.3   201  GNP201     -0.1253
      9  O3A        9.1270    9.0020   40.3540 O.3   201  GNP201     -0.2360
     10  PA         8.0400    8.3690   39.4440 P.3   201  GNP201      0.2220
     11  O1A        8.6420    7.8870   38.1900 O.2   201  GNP201     -0.5170
     12  O2A        6.8440    9.2450   39.3350 O.3   201  GNP201     -0.4370
     13  O5'        7.5590    7.0500   40.1640 O.3   201  GNP201     -0.3111
     14  C5'        8.4730    6.0230   40.5170 C.3   201  GNP201      0.1813
     15  C4'        7.7040    4.7350   40.7120 C.3   201  GNP201      0.1799
     16  O4'        6.8980    4.8340   41.9170 O.3   201  GNP201     -0.3326
     17  C3'        6.7290    4.3570   39.5970 C.3   201  GNP201      0.2158
     18  O3'        6.6430    2.9540   39.5150 O.3   201  GNP201     -0.2175
     19  C2'        5.4070    4.9580   40.0840 C.3   201  GNP201      0.2310
     20  O2'        4.2350    4.3490   39.5490 O.3   201  GNP201     -0.2158
     21  C1'        5.5300    4.7180   41.5950 C.3   201  GNP201      0.2293
     22  N9         4.7990    5.6740   42.4200 N.pl3 201  GNP201     -0.2354
     23  C8         4.8000    7.0480   42.3400 C.3   201  GNP201      0.2246
     24  N7         4.0530    7.6260   43.2450 N.2   201  GNP201     -0.2322
     25  C5         3.5250    6.5600   43.9740 C.2   201  GNP201      0.2182
     26  C6         2.6320    6.5510   45.0830 C.1   201  GNP201      0.2372
     27  O6         2.1160    7.5300   45.6580 O.2   201  GNP201     -0.2069
     28  N1         2.3590    5.2450   45.5210 N.2   201  GNP201     -0.2485
     29  C2         2.8840    4.1010   44.9500 C.1   201  GNP201      0.2531
     30  N2         2.5190    2.9340   45.4870 N.pl3 201  GNP201     -0.0226
     31  N3         3.7130    4.0920   43.9160 N.2   201  GNP201     -0.3074
     32  C4         3.9830    5.3510   43.4780 C.2   201  GNP201      0.2300
@<TRIPOS>BOND
     1     2     1    2
     2     3     1    1
     3    11    10    2
     4     1     5    1
     5     1     4    1
     6     7     6    2
     7    12    10    1
     8     5     6    1
     9    10    13    1
    10    10     9    1
    11    18    17    1
    12    20    19    1
    13    17    19    1
    14    17    15    1
    15     6     9    1
    16     6     8    1
    17    19    21    1
    18    13    14    1
    19    14    15    1
    20    15    16    1
    21    21    16    1
    22    21    22    1
    23    23    22    1
    24    23    24    1
    25    22    32    1
    26    24    25    2
    27    32    31    2
    28    32    25    1
    29    31    29    2
    30    25    26    1
    31    29    30    1
    32    29    28    2
    33    26    28    2
    34    26    27    2
