@<TRIPOS>MOLECULE
4efs_E37_A_1.pdb
 29 31 0 0 0
SMALL
GASTEIGER

@<TRIPOS>ATOM
      1  O1       -10.8930  -29.3390    1.7520 O.2   306  E37306     -0.2698
      2  C6       -10.2010  -28.5480    2.3380 C.2   306  E37306      0.2806
      3  N1        -9.3960  -29.0360    3.4060 N.am  306  E37306     -0.0863
      4  C7       -10.1860  -27.0720    1.9680 C.3   306  E37306      0.1752
      5  C8       -10.2370  -26.8430    0.4900 C.3   306  E37306      0.0430
      6  C9       -10.3330  -25.3640    0.2220 C.3   306  E37306      0.1163
      7  C10       -8.9860  -24.6910    0.1580 C.2   306  E37306      0.3649
      8  O4E       -9.0960  -23.4750    0.3600 O.co2 306  E37306     -0.2457
      9  O4        -8.1030  -25.5080   -0.0700 O.co2 306  E37306     -0.2457
     10  N2        -8.9920  -26.4170    2.4530 N.am  306  E37306     -0.1939
     11  C11       -9.0820  -25.6230    3.6290 C.2   306  E37306      0.2652
     12  O2       -10.1410  -25.5560    4.1930 O.2   306  E37306     -0.2684
     13  C27       -7.8600  -24.9570    4.2050 C.ar  306  E37306      0.0551
     14  C28       -6.5880  -25.3740    3.8490 C.ar  306  E37306      0.0046
     15  C15       -5.4760  -24.7720    4.4290 C.ar  306  E37306      0.0006
     16  C16       -5.6330  -23.7420    5.3350 C.ar  306  E37306      0.0060
     17  C17       -6.9000  -23.3640    5.7280 C.ar  306  E37306      0.0006
     18  C14       -8.0050  -23.9600    5.1470 C.ar  306  E37306      0.0046
     19  C18       -4.5370  -23.2040    5.9760 C.ar  306  E37306      0.0295
     20  C19       -3.2180  -23.6510    5.7820 C.ar  306  E37306      0.0070
     21  C20       -2.2160  -22.8650    6.8080 C.ar  306  E37306      0.0070
     22  C29       -2.9610  -22.0110    7.6330 C.ar  306  E37306      0.0354
     23  S7        -4.5670  -22.1230    7.2220 S.2   306  E37306     -0.0864
     24  C21       -0.7210  -23.0830    6.8700 C.ar  306  E37306      0.0005
     25  C22        0.0350  -22.2320    7.5940 C.ar  306  E37306      0.0000
     26  C23        1.4210  -22.4890    7.6450 C.ar  306  E37306      0.0000
     27  C24        1.9430  -23.6260    6.9480 C.ar  306  E37306      0.0000
     28  C25        1.0580  -24.4700    6.2400 C.ar  306  E37306      0.0000
     29  C26       -0.2490  -24.1330    6.2550 C.ar  306  E37306      0.0000
@<TRIPOS>BOND
     1     9     7   ar
     2     7     6    1
     3     7     8   ar
     4     6     5    1
     5     5     4    1
     6     1     2    2
     7     4     2    1
     8     4    10    1
     9     2     3   am
    10    10    11   am
    11    11    12    2
    12    11    13    1
    13    14    13   ar
    14    14    15   ar
    15    13    18   ar
    16    15    16   ar
    17    18    17   ar
    18    16    17   ar
    19    16    19    1
    20    20    19   ar
    21    20    21   ar
    22    19    23   ar
    23    28    29   ar
    24    28    27   ar
    25    29    24   ar
    26    21    24    1
    27    21    22   ar
    28    24    25   ar
    29    27    26   ar
    30    23    22   ar
    31    25    26   ar
