@<TRIPOS>MOLECULE
4eft_EFT_A_1.pdb
 20 22 0 0 0
SMALL
GASTEIGER

@<TRIPOS>ATOM
      1  C1        65.1870   34.2210   24.1670 C.2   301  EFT301      0.0382
      2  C2        64.0520   33.9760   24.9560 C.2   301  EFT301      0.1967
      3  C3        64.1210   33.4060   26.2170 C.2   301  EFT301      0.0592
      4  C4        66.4230   33.9000   24.6560 C.2   301  EFT301     -0.0115
      5  N5        65.7990   32.4950   27.9210 N.2   301  EFT301     -0.1522
      6  N6        67.1820   32.4090   27.8850 N.2   301  EFT301     -0.1553
      7  C7        67.6560   32.8360   26.7330 C.2   301  EFT301      0.0814
      8  C8        66.5350   33.3090   25.9350 C.3   301  EFT301      0.1028
      9  C9        65.3780   33.0590   26.7340 C.2   301  EFT301      0.0927
     10  C10       69.1110   32.9060   26.3380 C.3   301  EFT301      0.1296
     11  C11       69.4230   32.2210   25.0000 C.3   301  EFT301      0.0209
     12  C12       69.5200   34.3190   26.2950 C.1   301  EFT301      0.0779
     13  N13       69.8330   35.4100   26.2960 N.1   301  EFT301     -0.1955
     14  O14       62.8460   34.2490   24.4420 O.2   301  EFT301     -0.2865
     15  C15       70.6710   31.3330   25.0240 C.3   301  EFT301      0.0014
     16  C16       70.7330   30.6670   23.6440 C.3   301  EFT301      0.0000
     17  C17       71.9400   29.7400   23.5150 C.3   301  EFT301      0.0000
     18  C18       73.2480   30.5010   23.7840 C.3   301  EFT301      0.0000
     19  C19       73.1960   31.1890   25.1620 C.3   301  EFT301      0.0000
     20  C20       71.9740   32.1270   25.2580 C.3   301  EFT301      0.0000
@<TRIPOS>BOND
     1    17    16    1
     2    17    18    1
     3    16    15    1
     4    18    19    1
     5     1     4    2
     6     1     2    1
     7    14     2    1
     8     4     8    1
     9     2     3    2
    10    11    15    1
    11    11    10    1
    12    15    20    1
    13    19    20    1
    14     8     7    1
    15     8     9    1
    16     3     9    1
    17    12    13    3
    18    12    10    1
    19    10     7    1
    20     7     6    2
    21     9     5    2
    22     6     5    1
