@<TRIPOS>MOLECULE
4efu_EFU_A_1.pdb
 29 32 0 0 0
SMALL
GASTEIGER

@<TRIPOS>ATOM
      1  C1        -0.8670   11.0920   25.7270 C.2   301  EFU301      0.0889
      2  C2        -2.0350   11.4780   25.0190 C.2   301  EFU301      0.2010
      3  C3        -1.9520   12.1840   23.8320 C.2   301  EFU301      0.0593
      4  C4         0.4070   11.3700   25.1900 C.2   301  EFU301     -0.0070
      5  O5        -3.2590   11.2620   25.5550 O.2   301  EFU301     -0.2864
      6  C6        -0.9670   10.3650   27.0270 C.2   301  EFU301      0.2521
      7  N7        -0.6750    9.0290   27.1470 N.am  301  EFU301     -0.2701
      8  O8        -1.2970   11.0130   28.0170 O.2   301  EFU301     -0.2698
      9  C9         0.4920   12.0110   23.9430 C.3   301  EFU301      0.1023
     10  C10       -0.6930   12.4380   23.2730 C.2   301  EFU301      0.0927
     11  N11       -0.3000   13.0240   22.1060 N.2   301  EFU301     -0.1522
     12  N12        1.0920   12.9610   22.0130 N.2   301  EFU301     -0.1560
     13  C13        1.6040   12.4290   23.0900 C.2   301  EFU301      0.0720
     14  C14        3.0700   12.1190   23.2900 C.3   301  EFU301      0.0701
     15  C15        3.7460   12.7600   24.4760 C.ar  301  EFU301     -0.0168
     16  C16        4.1470   11.9790   25.5600 C.ar  301  EFU301     -0.0039
     17  C17        5.1760   13.9040   26.6000 C.ar  301  EFU301     -0.0043
     18  C18        4.7870   14.6690   25.5020 C.ar  301  EFU301     -0.0222
     19  C19        4.8740   12.5480   26.6140 C.ar  301  EFU301     -0.0006
     20  C20        4.0760   14.1130   24.4390 C.ar  301  EFU301     -0.0082
     21  C21       -0.7630    8.3780   28.4660 C.3   301  EFU301      0.1155
     22  C22       -0.3610    8.1380   26.0060 C.3   301  EFU301      0.1205
     23  C23        1.0610    8.1090   25.5040 C.ar  301  EFU301     -0.0023
     24  C24        1.2560    7.8480   24.1460 C.ar  301  EFU301     -0.0026
     25  C25        3.6370    8.0370   24.4320 C.ar  301  EFU301     -0.0000
     26  C26        3.4430    8.3040   25.7870 C.ar  301  EFU301     -0.0003
     27  C27        2.5390    7.8170   23.6040 C.ar  301  EFU301     -0.0003
     28  C28        2.1600    8.3360   26.3330 C.ar  301  EFU301     -0.0026
     29  C29        5.1260   16.1190   25.4630 C.3   301  EFU301      0.0310
@<TRIPOS>BOND
     1    12    11    1
     2    12    13    2
     3    11    10    2
     4    13    14    1
     5    13     9    1
     6    10     3    1
     7    10     9    1
     8    14    15    1
     9    27    24   ar
    10    27    25   ar
    11     3     2    2
    12     9     4    1
    13    24    23   ar
    14    25    26   ar
    15    20    15   ar
    16    20    18   ar
    17    15    16   ar
    18     2     5    1
    19     2     1    1
    20     4     1    2
    21    29    18    1
    22    18    17   ar
    23    23    22    1
    24    23    28   ar
    25    16    19   ar
    26     1     6    1
    27    26    28   ar
    28    22     7    1
    29    17    19   ar
    30     6     7   am
    31     6     8    2
    32     7    21    1
