@<TRIPOS>MOLECULE
4eg2_URI_A_1.pdb
 17 18 0 0 0
SMALL
GASTEIGER

@<TRIPOS>ATOM
      1  N1        -7.1570   45.7390   10.1130 N.am  302  URI302     -0.1766
      2  C2        -6.5110   45.2080    9.0030 C.1   302  URI302      0.2845
      3  N3        -5.1990   45.6070    8.8520 N.2   302  URI302     -0.2452
      4  C4        -4.4870   46.4550    9.6810 C.1   302  URI302      0.2182
      5  C5        -5.2240   46.9690   10.8180 C.2   302  URI302      0.1242
      6  C6        -6.4980   46.5910   10.9880 C.2   302  URI302      0.0929
      7  O2        -7.0280   44.4550    8.2060 O.2   302  URI302     -0.1918
      8  O4        -3.3120   46.7070    9.4300 O.2   302  URI302     -0.2085
      9  C1'       -8.5450   45.3920   10.4050 C.3   302  URI302      0.2401
     10  C2'       -8.6180   44.3510   11.5090 C.3   302  URI302      0.2319
     11  C3'      -10.0140   44.6040   12.0610 C.3   302  URI302      0.2159
     12  C4'      -10.1430   46.1230   11.9490 C.3   302  URI302      0.1829
     13  O2'       -8.3890   43.0690   10.9890 O.3   302  URI302     -0.2157
     14  O3'      -11.0140   43.9510   11.3120 O.3   302  URI302     -0.2175
     15  O4'       -9.1860   46.5230   10.9390 O.3   302  URI302     -0.3318
     16  C5'       -9.8740   46.8890   13.2200 C.3   302  URI302      0.2142
     17  O5'       -8.5270   46.7130   13.6200 O.3   302  URI302     -0.2176
@<TRIPOS>BOND
     1     7     2    2
     2     3     2    2
     3     3     4    2
     4     2     1   am
     5     8     4    2
     6     4     5    1
     7     1     9    1
     8     1     6    1
     9     9    15    1
    10     9    10    1
    11     5     6    2
    12    15    12    1
    13    13    10    1
    14    14    11    1
    15    10    11    1
    16    12    11    1
    17    12    16    1
    18    16    17    1
