@<TRIPOS>MOLECULE
4eg3_ME8_A_1.pdb
 31 33 0 0 0
SMALL
GASTEIGER

@<TRIPOS>ATOM
      1  O         -8.8600  -17.8390  -51.9640 O.2   808  ME8808     -0.2482
      2  N1       -17.3680  -16.6220  -45.0980 N.2   808  ME8808      0.0021
      3  O1       -10.1800  -17.5260  -53.8580 O.3   808  ME8808     -0.4091
      4  P1       -11.6200  -17.8150  -53.1690 P.3   808  ME8808      0.2723
      5  C2       -16.5450  -15.5640  -45.0510 C.3   808  ME8808      0.5254
      6  N2        -8.0010  -16.4230  -55.1000 N.3   808  ME8808     -0.1209
      7  N3       -15.6670  -15.3380  -46.0390 N.2   808  ME8808     -0.0055
      8  C4       -15.5890  -16.1700  -47.1020 C.2   808  ME8808      0.3518
      9  C5       -16.4250  -17.2640  -47.1630 C.2   808  ME8808      0.2526
     10  C6       -17.3260  -17.4850  -46.1360 C.2   808  ME8808      0.4393
     11  N6       -18.1550  -18.5550  -46.1790 N.pl3 808  ME8808      0.2180
     12  N7       -16.1500  -17.9180  -48.3000 N.2   808  ME8808     -0.2095
     13  C8       -15.1670  -17.2460  -48.9250 C.3   808  ME8808      0.3377
     14  C9        -8.9230  -17.4480  -53.1130 C.2   808  ME8808      0.3386
     15  N9       -14.8250  -16.1840  -48.1870 N.pl3 808  ME8808     -0.1439
     16  CA        -7.6800  -16.9130  -53.7670 C.3   808  ME8808      0.1911
     17  CB        -7.0620  -15.8160  -52.8940 C.3   808  ME8808      0.0421
     18  SD        -5.5370  -13.5530  -52.7810 S.3   808  ME8808     -0.1393
     19  CE        -3.7920  -13.3040  -52.7560 C.3   808  ME8808      0.0692
     20  CG        -5.8450  -15.1320  -53.5240 C.3   808  ME8808      0.0597
     21  C1'      -13.7940  -15.1790  -48.5150 C.3   808  ME8808      0.3186
     22  O1S      -12.7590  -17.2160  -53.9030 O.2   808  ME8808     -0.5082
     23  C2'      -12.5360  -15.3060  -47.6840 C.3   808  ME8808      0.2570
     24  O2'      -11.8980  -14.0260  -47.6790 O.3   808  ME8808     -0.2130
     25  O2S      -11.9590  -19.3590  -52.8540 O.3   808  ME8808     -0.4273
     26  C3'      -11.6620  -16.2950  -48.4160 C.3   808  ME8808      0.2184
     27  O3'      -10.2520  -16.0440  -48.2930 O.3   808  ME8808     -0.2174
     28  C4'      -12.0980  -16.0650  -49.8470 C.3   808  ME8808      0.1822
     29  O4'      -13.3600  -15.4060  -49.8400 O.3   808  ME8808     -0.3135
     30  C5'      -12.1880  -17.3350  -50.6750 C.3   808  ME8808      0.1823
     31  O5'      -11.3860  -17.0500  -51.8010 O.3   808  ME8808     -0.3024
@<TRIPOS>BOND
     1     6    16    1
     2    22     4    2
     3     3     4    1
     4     3    14    1
     5    16    14    1
     6    16    17    1
     7    20    17    1
     8    20    18    1
     9     4    25    1
    10     4    31    1
    11    14     1    2
    12    18    19    1
    13    31    30    1
    14    30    28    1
    15    28    29    1
    16    28    26    1
    17    29    21    1
    18    13    12    1
    19    13    15    1
    20    21    15    1
    21    21    23    1
    22    26    27    1
    23    26    23    1
    24    12     9    2
    25    15     8    1
    26    23    24    1
    27     9     8    1
    28     9    10    1
    29     8     7    2
    30    11    10    1
    31    10     2    2
    32     7     5    1
    33     2     5    1
