@<TRIPOS>MOLECULE
4eg4_0OT_B_1.pdb
 28 30 0 0 0
SMALL
GASTEIGER

@<TRIPOS>ATOM
      1  CAA       45.3670   14.5840   -7.2000 C.3   812  0OT812      0.0512
      2  CAL       43.9460   15.1390   -7.2500 C.3   812  0OT812      0.2055
      3  OAT       42.9880   14.0710   -7.0770 O.3   812  0OT812     -0.4752
      4  CAY       41.6410   14.3090   -7.0130 C.ar  812  0OT812      0.1420
      5  CAV       41.0090   15.5750   -7.0380 C.ar  812  0OT812      0.0687
      6 BR2        41.8360   17.3030   -7.1670 Br    812  0OT812     -0.0458
      7  CAI       39.6280   15.6410   -6.9670 C.ar  812  0OT812      0.0164
      8  CAU       38.8620   14.5070   -6.8690 C.ar  812  0OT812      0.0350
      9 BR1        36.9870   14.7010   -6.7600 Br    812  0OT812     -0.0490
     10  CAJ       39.4790   13.2720   -6.8450 C.ar  812  0OT812      0.0069
     11  CAX       40.8620   13.1590   -6.9260 C.ar  812  0OT812      0.0302
     12  CAP       41.3880   11.7110   -6.8650 C.3   812  0OT812      0.1180
     13  NAQ       42.3730   11.2670   -7.8630 N.3   812  0OT812     -0.2131
     14  CAN       42.1860   11.9010   -9.1980 C.3   812  0OT812      0.0909
     15  CAM       43.0940   11.1550  -10.2080 C.3   812  0OT812      0.0422
     16  CAO       44.0640   12.0520  -11.0140 C.3   812  0OT812      0.1160
     17  NAR       43.3070   12.7290  -12.0830 N.pl3 812  0OT812     -0.2131
     18  CAW       43.8230   13.6370  -12.9140 C.2   812  0OT812      0.1829
     19  CAK       45.1760   13.6770  -13.2680 C.3   812  0OT812      0.1413
     20  CAZ       45.6530   14.6550  -14.1540 C.2   812  0OT812      0.1695
     21  OAB       46.8570   14.6900  -14.4520 O.2   812  0OT812     -0.2948
     22  CBB       44.7520   15.5930  -14.6890 C.3   812  0OT812      0.1321
     23  CAH       45.1780   16.5880  -15.5690 C.2   812  0OT812     -0.0121
     24  CAF       44.2660   17.5070  -16.0820 C.2   812  0OT812     -0.0037
     25  CAE       42.9250   17.4480  -15.7310 C.2   812  0OT812      0.0020
     26  CAG       42.4950   16.4620  -14.8610 C.2   812  0OT812      0.0283
     27  CBA       43.4040   15.5470  -14.3380 C.2   812  0OT812      0.1209
     28  NAS       42.9500   14.5720  -13.4520 N.2   812  0OT812     -0.3932
@<TRIPOS>BOND
     1    24    25    1
     2    24    23    2
     3    25    26    2
     4    23    22    1
     5    26    27    1
     6    22    27    1
     7    22    20    1
     8    21    20    2
     9    27    28    2
    10    20    19    1
    11    28    18    2
    12    19    18    1
    13    18    17    1
    14    17    16    1
    15    16    15    1
    16    15    14    1
    17    14    13    1
    18    13    12    1
    19     2     1    1
    20     2     3    1
    21     6     5    1
    22     3     4    1
    23     5     4   ar
    24     5     7   ar
    25     4    11   ar
    26     7     8   ar
    27    11    12    1
    28    11    10   ar
    29     8    10   ar
    30     8     9    1
