@<TRIPOS>MOLECULE
4eg5_0OU_B_1.pdb
 25 27 0 0 0
SMALL
GASTEIGER

@<TRIPOS>ATOM
      1  CAI       41.3830  -14.6040    7.1480 C.ar  810  0OU810      0.0086
      2  CAS       40.6960  -15.8050    7.1610 C.ar  810  0OU810      0.0582
      3 CL1        41.5480  -17.2920    7.1470 Cl    810  0OU810     -0.0822
      4  CAH       39.3200  -15.8350    7.1700 C.ar  810  0OU810      0.0228
      5  CAT       38.6130  -14.6460    7.1680 C.ar  810  0OU810      0.0582
      6 CL2        36.8890  -14.7690    7.1780 Cl    810  0OU810     -0.0822
      7  CAJ       39.2820  -13.4210    7.1630 C.ar  810  0OU810      0.0086
      8  CAU       40.6780  -13.4130    7.1360 C.ar  810  0OU810     -0.0031
      9  CAO       41.4680  -12.1040    7.1380 C.3   810  0OU810      0.1150
     10  NAP       41.4720  -11.6790    8.5330 N.3   810  0OU810     -0.2132
     11  CAM       42.8640  -11.8240    9.0170 C.3   810  0OU810      0.0909
     12  CAL       42.9360  -11.1970   10.4210 C.3   810  0OU810      0.0422
     13  CAN       43.8160  -12.0140   11.3740 C.3   810  0OU810      0.1160
     14  NAQ       43.0080  -13.0020   12.1080 N.pl3 810  0OU810     -0.2131
     15  CAV       43.5380  -13.8750   12.9820 C.2   810  0OU810      0.1829
     16  CAK       44.9050  -13.9050   13.3040 C.3   810  0OU810      0.1413
     17  CAW       45.4030  -14.8400   14.2240 C.2   810  0OU810      0.1695
     18  OAA       46.6050  -14.8790   14.5010 O.2   810  0OU810     -0.2948
     19  CAY       44.5300  -15.7530   14.8240 C.3   810  0OU810      0.1321
     20  CAG       45.0010  -16.7000   15.7360 C.2   810  0OU810     -0.0121
     21  CAE       44.1120  -17.6070   16.3280 C.2   810  0OU810     -0.0037
     22  CAD       42.7510  -17.5910   16.0250 C.2   810  0OU810      0.0020
     23  CAF       42.2900  -16.6430   15.1150 C.2   810  0OU810      0.0283
     24  CAX       43.1670  -15.7330   14.5140 C.2   810  0OU810      0.1209
     25  NAR       42.6750  -14.7980   13.5960 N.2   810  0OU810     -0.3932
@<TRIPOS>BOND
     1     8     9    1
     2     8     1   ar
     3     8     7   ar
     4     9    10    1
     5     3     2    1
     6     1     2   ar
     7     2     4   ar
     8     7     5   ar
     9     5     4   ar
    10     5     6    1
    11    10    11    1
    12    11    12    1
    13    12    13    1
    14    13    14    1
    15    14    15    1
    16    15    16    1
    17    15    25    2
    18    16    17    1
    19    25    24    2
    20    17    18    2
    21    17    19    1
    22    24    19    1
    23    24    23    1
    24    19    20    1
    25    23    22    2
    26    20    21    2
    27    22    21    1
