@<TRIPOS>MOLECULE
4eg6_0P5_B_1.pdb
 34 38 0 0 0
SMALL
GASTEIGER

@<TRIPOS>ATOM
      1 CL1       -41.1970  -16.4830   -6.9680 Cl    906  0P5906     -0.0790
      2  CAY      -40.1100  -15.1480   -7.0030 C.ar  906  0P5906      0.0952
      3  CAJ      -38.7440  -15.3350   -7.1320 C.ar  906  0P5906      0.0514
      4  CAZ      -37.9010  -14.2240   -7.1680 C.ar  906  0P5906      0.1398
      5  OAV      -36.5590  -14.3670   -7.2930 O.3   906  0P5906     -0.4714
      6  CAA      -36.1660  -15.6620   -6.8640 C.3   906  0P5906      0.2525
      7  CAF      -38.4370  -12.9450   -7.0890 C.ar  906  0P5906      0.0401
      8  CAG      -39.8090  -12.7690   -6.9550 C.ar  906  0P5906      0.0416
      9  CBD      -40.6420  -13.8810   -6.9220 C.ar  906  0P5906      0.1585
     10  OAW      -41.9870  -13.7720   -6.7770 O.3   906  0P5906     -0.4287
     11  C4       -42.7500  -13.5470   -7.8700 C.2   906  0P5906      0.2779
     12  C5       -42.2420  -13.1530   -9.1130 C.3   906  0P5906      0.1773
     13  N3       -44.0670  -13.6970   -7.7210 N.2   906  0P5906     -0.2942
     14  C2       -44.8970  -13.4770   -8.7490 C.1   906  0P5906      0.2072
     15  N        -46.2600  -13.6590   -8.5810 N.pl3 906  0P5906     -0.2160
     16  CA       -46.8070  -13.8120   -7.2070 C.3   906  0P5906      0.2247
     17  CAM      -47.1130  -13.7490   -9.8000 C.3   906  0P5906      0.1315
     18  CAL      -48.5220  -13.3020   -9.4580 C.3   906  0P5906      0.1598
     19  NAS      -48.9970  -14.2030   -8.3850 N.2   906  0P5906     -0.2030
     20  C        -48.1730  -14.4650   -7.2850 C.1   906  0P5906      0.1477
     21  O        -48.5580  -15.2060   -6.3870 O.2   906  0P5906     -0.2253
     22  N1       -44.4400  -13.1070   -9.9490 N.2   906  0P5906     -0.3152
     23  C6       -43.1360  -12.9400  -10.1570 C.2   906  0P5906      0.2012
     24  NAT      -42.7170  -12.5710  -11.3560 N.pl3 906  0P5906     -0.1935
     25  CAN      -43.6600  -12.4520  -12.4800 C.3   906  0P5906      0.2381
     26  CBC      -43.6800  -13.7170  -13.3230 C.1   906  0P5906      0.1359
     27  NAU      -44.7540  -14.1810  -13.9490 N.2   906  0P5906     -0.3393
     28  CBG      -44.4220  -15.3010  -14.5820 C.ar  906  0P5906      0.1738
     29  CAI      -45.1520  -16.1840  -15.3730 C.ar  906  0P5906      0.0357
     30  CAE      -44.5170  -17.2940  -15.9180 C.ar  906  0P5906      0.0028
     31  CAD      -43.1630  -17.5150  -15.6640 C.ar  906  0P5906      0.0028
     32  CAH      -42.4340  -16.6300  -14.8780 C.ar  906  0P5906      0.0357
     33  CBF      -43.0750  -15.5270  -14.3330 C.ar  906  0P5906      0.1738
     34  NAR      -42.6540  -14.5360  -13.5590 N.2   906  0P5906     -0.3393
@<TRIPOS>BOND
     1    30    31   ar
     2    30    29   ar
     3    31    32   ar
     4    29    28   ar
     5    32    33   ar
     6    28    33   ar
     7    28    27    2
     8    33    34    2
     9    27    26    2
    10    34    26    2
    11    26    25    1
    12    25    24    1
    13    24    23    1
    14    23    22    2
    15    23    12    1
    16    22    14    2
    17    17    18    1
    18    17    15    1
    19    18    19    1
    20    12    11    1
    21    14    15    1
    22    14    13    2
    23    15    16    1
    24    19    20    2
    25    11    13    2
    26    11    10    1
    27     5     4    1
    28     5     6    1
    29    20    16    1
    30    20    21    2
    31     4     3   ar
    32     4     7   ar
    33     3     2   ar
    34     7     8   ar
    35     2     1    1
    36     2     9   ar
    37     8     9   ar
    38     9    10    1
