@<TRIPOS>MOLECULE
4eg7_0P4_B_1.pdb
 23 25 0 0 0
SMALL
GASTEIGER

@<TRIPOS>ATOM
      1  CAH      -40.0420   13.4980    6.9690 C.ar  814  0P4814      0.0086
      2  CAR      -39.3970   14.7350    6.9210 C.ar  814  0P4814      0.0582
      3 CL1       -37.6480   14.8490    6.9340 Cl    814  0P4814     -0.0822
      4  CAG      -40.1700   15.8940    6.8690 C.ar  814  0P4814      0.0228
      5  CAS      -41.5600   15.8210    6.8620 C.ar  814  0P4814      0.0582
      6 CL2       -42.5270   17.2640    6.7900 Cl    814  0P4814     -0.0822
      7  CAI      -42.1870   14.5880    6.9090 C.ar  814  0P4814      0.0086
      8  CAT      -41.4350   13.4280    6.9530 C.ar  814  0P4814     -0.0031
      9  CAM      -42.1610   12.0740    6.9970 C.3   814  0P4814      0.1150
     10  NAO      -42.2140   11.6410    8.3880 N.3   814  0P4814     -0.2132
     11  CAK      -43.5640   12.0190    8.8330 C.3   814  0P4814      0.0909
     12  CAJ      -43.8390   11.4400   10.2210 C.3   814  0P4814      0.0431
     13  CAL      -44.6170   12.4100   11.1050 C.3   814  0P4814      0.1277
     14  NAP      -43.6830   13.1680   11.9380 N.pl3 814  0P4814     -0.1517
     15  CAU      -44.1120   14.0690   12.7910 C.1   814  0P4814      0.2203
     16  NAQ      -45.3780   14.2220   13.1500 N.2   814  0P4814     -0.3244
     17  CAW      -45.4140   15.2350   14.0120 C.ar  814  0P4814      0.1754
     18  CAF      -46.4550   15.8490   14.7130 C.ar  814  0P4814      0.0357
     19  CAD      -46.1910   16.9150   15.5680 C.ar  814  0P4814      0.0028
     20  CAC      -44.8850   17.3730   15.7170 C.ar  814  0P4814      0.0028
     21  CAE      -43.8420   16.7590   15.0240 C.ar  814  0P4814      0.0357
     22  CAV      -44.1100   15.6910   14.1690 C.ar  814  0P4814      0.1754
     23  NAN      -43.3320   14.9440   13.3920 N.2   814  0P4814     -0.3244
@<TRIPOS>BOND
     1     6     5    1
     2     5     4   ar
     3     5     7   ar
     4     4     2   ar
     5     7     8   ar
     6     2     3    1
     7     2     1   ar
     8     8     1   ar
     9     8     9    1
    10     9    10    1
    11    10    11    1
    12    11    12    1
    13    12    13    1
    14    13    14    1
    15    14    15    1
    16    15    16    2
    17    15    23    2
    18    16    17    2
    19    23    22    2
    20    17    22   ar
    21    17    18   ar
    22    22    21   ar
    23    18    19   ar
    24    21    20   ar
    25    19    20   ar
