@<TRIPOS>MOLECULE
4eg8_0P6_B_1.pdb
 12 13 0 0 0
SMALL
GASTEIGER

@<TRIPOS>ATOM
      1  CAE       45.1600   13.6500  -12.9440 C.2   812  0P6812      0.0470
      2  CAG       45.8930   14.4920  -13.7720 C.2   812  0P6812     -0.0108
      3  CAK       45.2400   15.5450  -14.4230 C.3   812  0P6812      0.0996
      4  CAF       45.9600   16.4090  -15.2580 C.2   812  0P6812     -0.0148
      5  CAC       45.3170   17.4560  -15.9090 C.2   812  0P6812     -0.0005
      6  CAD       43.9530   17.6420  -15.7150 C.2   812  0P6812      0.0441
      7  CAJ       43.2380   16.7740  -14.8910 C.2   812  0P6812      0.2215
      8  OAB       41.8970   16.9270  -14.6910 O.2   812  0P6812     -0.2842
      9  CAL       43.8640   15.7180  -14.2370 C.2   812  0P6812      0.1570
     10  NAH       43.1730   14.8890  -13.4280 N.2   812  0P6812     -0.3843
     11  CAI       43.7890   13.8720  -12.7840 C.2   812  0P6812      0.2187
     12  NAA       43.1000   13.0590  -11.9870 N.pl3 812  0P6812     -0.0932
@<TRIPOS>BOND
     1     5     6    1
     2     5     4    2
     3     6     7    2
     4     4     3    1
     5     7     8    1
     6     7     9    1
     7     3     9    1
     8     3     2    1
     9     9    10    2
    10     2     1    2
    11    10    11    2
    12     1    11    1
    13    11    12    1
