@<TRIPOS>MOLECULE
4ega_0P8_B_1.pdb
 27 29 0 0 0
SMALL
GASTEIGER

@<TRIPOS>ATOM
      1  CAA      -43.5870   13.6280    6.8060 C.3   813  0P8813      0.2525
      2  OAS      -42.8120   14.7020    7.2670 O.3   813  0P8813     -0.4712
      3  CAX      -41.4420   14.5470    7.1990 C.ar  813  0P8813      0.1422
      4  CAU      -40.7170   15.7140    7.1110 C.ar  813  0P8813      0.0687
      5 BR1       -41.6530   17.3470    7.0540 Br    813  0P8813     -0.0458
      6  CAI      -39.3440   15.7320    7.0410 C.ar  813  0P8813      0.0164
      7  CAT      -38.6320   14.5610    7.0680 C.ar  813  0P8813      0.0350
      8 BR2       -36.7240   14.6920    6.9640 Br    813  0P8813     -0.0490
      9  CAJ      -39.3440   13.3660    7.1650 C.ar  813  0P8813      0.0069
     10  CAW      -40.7450   13.3340    7.2160 C.ar  813  0P8813      0.0302
     11  CAO      -41.4120   11.9540    7.3390 C.3   813  0P8813      0.1180
     12  NAP      -41.5450   11.7420    8.7750 N.3   813  0P8813     -0.2131
     13  CAM      -42.8220   11.0950    9.0950 C.3   813  0P8813      0.0909
     14  CAL      -42.9160   11.0080   10.6220 C.3   813  0P8813      0.0422
     15  CAN      -43.7680   12.1270   11.2120 C.3   813  0P8813      0.1160
     16  NAQ      -43.0110   12.8370   12.2610 N.pl3 813  0P8813     -0.2131
     17  CAV      -43.5570   13.7190   13.0880 C.2   813  0P8813      0.1832
     18  CAK      -44.9220   13.7100   13.3690 C.3   813  0P8813      0.1452
     19  CAY      -45.4730   14.6530   14.2400 C.2   813  0P8813      0.1837
     20  OAB      -46.6870   14.6250   14.4730 O.2   813  0P8813     -0.2908
     21  CBA      -44.6300   15.6050   14.8360 C.2   813  0P8813      0.0609
     22  CAH      -45.1310   16.5640   15.7110 C.2   813  0P8813      0.0048
     23  CAF      -44.2780   17.5080   16.2830 C.2   813  0P8813     -0.0040
     24  CAE      -42.9160   17.5060   15.9970 C.2   813  0P8813     -0.0187
     25  CAG      -42.4080   16.5480   15.1320 C.3   813  0P8813      0.0851
     26  CAZ      -43.2570   15.6060   14.5570 C.2   813  0P8813      0.1173
     27  NAR      -42.7240   14.6590   13.6820 N.2   813  0P8813     -0.3935
@<TRIPOS>BOND
     1     1     2    1
     2     8     7    1
     3     6     7   ar
     4     6     4   ar
     5     5     4    1
     6     7     9   ar
     7     4     3   ar
     8     9    10   ar
     9     3    10   ar
    10     3     2    1
    11    10    11    1
    12    11    12    1
    13    12    13    1
    14    13    14    1
    15    14    15    1
    16    15    16    1
    17    16    17    1
    18    17    18    1
    19    17    27    2
    20    18    19    1
    21    27    26    2
    22    19    20    2
    23    19    21    1
    24    26    21    1
    25    26    25    1
    26    21    22    2
    27    25    24    1
    28    22    23    1
    29    24    23    2
