@<TRIPOS>MOLECULE
4egb_NAD_A_1.pdb
 44 48 0 0 0
SMALL
GASTEIGER

@<TRIPOS>ATOM
      1  PA       -64.5330  -50.1580   -8.7820 P.3   404  NAD404      0.2189
      2  O1A      -65.6260  -50.1950   -9.8340 O.2   404  NAD404     -0.5170
      3  O2A      -63.7270  -48.8970   -8.5880 O.3   404  NAD404     -0.4371
      4  O5B      -65.1410  -50.5040   -7.3380 O.3   404  NAD404     -0.3112
      5  C5B      -64.4940  -50.0570   -6.1470 C.3   404  NAD404      0.1813
      6  C4B      -65.5390  -49.9640   -5.0560 C.3   404  NAD404      0.1821
      7  O4B      -64.8650  -49.8620   -3.8180 O.3   404  NAD404     -0.3135
      8  C3B      -66.4040  -48.7210   -5.2120 C.3   404  NAD404      0.2184
      9  O3B      -67.7730  -49.0320   -4.9600 O.3   404  NAD404     -0.2174
     10  C2B      -65.8910  -47.7480   -4.1790 C.3   404  NAD404      0.2570
     11  O2B      -66.9270  -46.8900   -3.6880 O.3   404  NAD404     -0.2130
     12  C1B      -65.3760  -48.7200   -3.1350 C.3   404  NAD404      0.3186
     13  N9A      -64.2940  -48.2210   -2.2810 N.pl3 404  NAD404     -0.1439
     14  C8A      -63.2280  -47.4750   -2.5990 C.3   404  NAD404      0.3377
     15  N7A      -62.4920  -47.2920   -1.4750 N.2   404  NAD404     -0.2095
     16  C5A      -63.1180  -47.9480   -0.4720 C.2   404  NAD404      0.2526
     17  C6A      -62.8700  -48.1230    0.8750 C.2   404  NAD404      0.4393
     18  N6A      -61.7860  -47.5820    1.4690 N.pl3 404  NAD404      0.2180
     19  N1A      -63.7410  -48.8380    1.6060 N.2   404  NAD404      0.0021
     20  C2A      -64.8240  -49.3930    1.0590 C.3   404  NAD404      0.5254
     21  N3A      -65.0900  -49.2440   -0.2350 N.2   404  NAD404     -0.0055
     22  C4A      -64.2490  -48.5260   -1.0000 C.2   404  NAD404      0.3518
     23  O3       -63.4970  -51.3760   -8.9730 O.3   404  NAD404     -0.2703
     24  PN       -63.8440  -52.8570   -9.4700 P.3   404  NAD404      0.2189
     25  O1N      -65.1660  -53.3120   -8.8460 O.3   404  NAD404     -0.4371
     26  O2N      -63.6230  -52.8780  -10.9670 O.2   404  NAD404     -0.5170
     27  O5D      -62.6130  -53.6460   -8.7820 O.3   404  NAD404     -0.3112
     28  C5D      -62.7890  -54.5600   -7.6960 C.3   404  NAD404      0.1813
     29  C4D      -61.4870  -55.2700   -7.3030 C.3   404  NAD404      0.1799
     30  O4D      -61.1170  -56.2620   -8.2680 O.3   404  NAD404     -0.3327
     31  C3D      -60.2890  -54.3380   -7.1610 C.3   404  NAD404      0.2158
     32  O3D      -59.6930  -54.5710   -5.8740 O.3   404  NAD404     -0.2175
     33  C2D      -59.3620  -54.6810   -8.3190 C.3   404  NAD404      0.2309
     34  O2D      -58.0030  -54.6700   -7.8930 O.3   404  NAD404     -0.2158
     35  C1D      -59.7820  -56.0730   -8.7690 C.3   404  NAD404      0.2263
     36  N1N      -59.8060  -56.3130  -10.2340 N.pl3 404  NAD404     -0.2787
     37  C2N      -60.5160  -55.5050  -11.1610 C.3   404  NAD404      0.1244
     38  C3N      -60.2790  -55.6090  -12.5400 C.2   404  NAD404      0.0544
     39  C7N      -61.0900  -54.8280  -13.5530 C.2   404  NAD404      0.2818
     40  O7N      -62.0210  -54.1090  -13.1990 O.2   404  NAD404     -0.2670
     41  N7N      -60.7880  -54.9390  -14.8470 N.am  404  NAD404     -0.0839
     42  C4N      -59.2490  -56.4280  -12.9900 C.2   404  NAD404      0.0033
     43  C5N      -58.4950  -57.1630  -12.0940 C.2   404  NAD404      0.0157
     44  C6N      -58.7330  -57.0710  -10.7330 C.2   404  NAD404      0.0633
@<TRIPOS>BOND
     1    41    39   am
     2    39    40    2
     3    39    38    1
     4    42    38    2
     5    42    43    1
     6    38    37    1
     7    43    44    2
     8    37    36    1
     9    26    24    2
    10    44    36    1
    11    36    35    1
    12     2     1    2
    13    24    23    1
    14    24    25    1
    15    24    27    1
    16    23     1    1
    17     1     3    1
    18     1     4    1
    19    27    28    1
    20    35    33    1
    21    35    30    1
    22    33    34    1
    23    33    31    1
    24    30    29    1
    25    28    29    1
    26     4     5    1
    27    29    31    1
    28    31    32    1
    29     5     6    1
    30     8     6    1
    31     8     9    1
    32     8    10    1
    33     6     7    1
    34    10    11    1
    35    10    12    1
    36     7    12    1
    37    12    13    1
    38    14    13    1
    39    14    15    1
    40    13    22    1
    41    15    16    2
    42    22    16    1
    43    22    21    2
    44    16    17    1
    45    21    20    1
    46    17    18    1
    47    17    19    2
    48    20    19    1
