@<TRIPOS>MOLECULE
4egc_MAL_A_1.pdb
 23 24 0 0 0
SMALL
GASTEIGER

@<TRIPOS>ATOM
      1  C1        22.6680   68.1110   51.6700 C.3   601  MAL601      0.2695
      2  C2        21.1670   68.4020   51.7430 C.3   601  MAL601      0.2406
      3  C3        20.9330   69.8650   51.4000 C.3   601  MAL601      0.2198
      4  C4        21.7150   70.7130   52.3900 C.3   601  MAL601      0.2144
      5  C5        23.1980   70.3230   52.3670 C.3   601  MAL601      0.1835
      6  C6        23.9550   71.0220   53.4860 C.3   601  MAL601      0.2142
      7  O1        23.1450   68.3340   50.3660 O.3   601  MAL601     -0.3257
      8  O2        20.4950   67.5830   50.8170 O.3   601  MAL601     -0.2149
      9  O3        19.5610   70.2130   51.4230 O.3   601  MAL601     -0.2174
     10  O4        21.5230   72.0900   52.1060 O.3   601  MAL601     -0.2176
     11  O5        23.3600   68.9310   52.5710 O.3   601  MAL601     -0.3256
     12  O6        25.3410   71.0020   53.2170 O.3   601  MAL601     -0.2176
     13  C1'       25.3310   65.9810   47.6540 C.3   601  MAL601      0.3023
     14  C2'       24.0220   65.3960   48.2080 C.3   601  MAL601      0.2433
     15  C3'       23.1530   66.4350   48.8970 C.3   601  MAL601      0.2168
     16  C4'       23.9770   67.3250   49.8250 C.3   601  MAL601      0.1804
     17  C5'       25.0960   67.9760   49.0280 C.3   601  MAL601      0.1804
     18  C6'       25.9610   68.8430   49.9340 C.3   601  MAL601      0.2141
     19  O1'       25.0840   66.5250   46.4010 O.3   601  MAL601     -0.1869
     20  O2'       23.2640   64.8610   47.1380 O.3   601  MAL601     -0.2148
     21  O3'       22.1340   65.7550   49.6070 O.3   601  MAL601     -0.2175
     22  O5'       25.9300   66.9960   48.4350 O.3   601  MAL601     -0.3237
     23  O6'       26.7910   69.6580   49.1230 O.3   601  MAL601     -0.2176
@<TRIPOS>BOND
     1    19    13    1
     2    20    14    1
     3    13    14    1
     4    13    22    1
     5    14    15    1
     6    22    17    1
     7    15    21    1
     8    15    16    1
     9    17    16    1
    10    17    18    1
    11    23    18    1
    12    16     7    1
    13     7     1    1
    14     8     2    1
    15     3     9    1
    16     3     2    1
    17     3     4    1
    18     1     2    1
    19     1    11    1
    20    10     4    1
    21     5     4    1
    22     5    11    1
    23     5     6    1
    24    12     6    1
