@<TRIPOS>MOLECULE
4egh_0OY_A_1.pdb
 15 16 0 0 0
SMALL
GASTEIGER

@<TRIPOS>ATOM
      1  O1         2.4340   10.3740  -27.0160 O.2   302  0OY302     -0.2699
      2  C1         1.6450    9.8560  -26.1860 C.2   302  0OY302      0.2492
      3  N          0.9840    8.7040  -26.3730 N.am  302  0OY302     -0.2709
      4  C11        0.0820    8.0620  -25.3980 C.3   302  0OY302      0.1258
      5  C10        0.4610    6.5910  -25.3700 C.3   302  0OY302      0.1637
      6  O3         0.2990    6.0090  -26.6660 O.3   302  0OY302     -0.3501
      7  C9         1.3040    6.4990  -27.4980 C.3   302  0OY302      0.1637
      8  C8         0.9830    7.9890  -27.6430 C.3   302  0OY302      0.1258
      9  C2         1.4330   10.6070  -24.9210 C.ar  302  0OY302      0.0538
     10  C7         0.1960   11.0460  -24.4830 C.ar  302  0OY302      0.0078
     11  C6         0.0640   11.7650  -23.2700 C.ar  302  0OY302      0.0422
     12  C5         1.2060   12.0480  -22.4790 C.ar  302  0OY302      0.1957
     13  O2         1.1800   12.6790  -21.2830 O.3   302  0OY302     -0.2866
     14  C4         2.4610   11.6090  -22.9480 C.ar  302  0OY302      0.0422
     15  C3         2.5420   10.9210  -24.1600 C.ar  302  0OY302      0.0078
@<TRIPOS>BOND
     1     8     7    1
     2     8     3    1
     3     7     6    1
     4     1     2    2
     5     6     5    1
     6     3     2   am
     7     3     4    1
     8     2     9    1
     9     4     5    1
    10     9    10   ar
    11     9    15   ar
    12    10    11   ar
    13    15    14   ar
    14    11    12   ar
    15    14    12   ar
    16    12    13    1
