@<TRIPOS>MOLECULE
4egk_RDC_A_1.pdb
 25 27 0 0 0
SMALL
GASTEIGER

@<TRIPOS>ATOM
      1  C1        10.8980   -4.6510   12.3330 C.2   301  RDC301      0.3440
      2  C2         9.6170   -5.2340   12.7290 C.ar  301  RDC301      0.1119
      3  C3         8.4740   -4.3470   12.8230 C.ar  301  RDC301      0.2048
      4  C4         7.2530   -4.8470   13.2190 C.ar  301  RDC301      0.0851
      5  C5         7.0540   -6.1740   13.4710 C.ar  301  RDC301      0.2090
      6  C6         8.1480   -7.0920   13.3400 C.ar  301  RDC301      0.0933
      7  C7         9.4660   -6.6580   13.0120 C.ar  301  RDC301      0.0086
      8  C8        10.5340   -7.6940   12.9460 C.3   301  RDC301      0.0966
      9  C9        10.7640   -8.6000   14.1420 C.2   301  RDC301      0.1775
     10  C10       11.0650   -8.0570   15.4750 C.2   301  RDC301      0.0378
     11  C11       11.0670   -6.7990   15.8270 C.2   301  RDC301      0.0027
     12  C12       11.4570   -6.3830   17.1620 C.2   301  RDC301     -0.0020
     13  C13       11.8860   -5.1510   17.4050 C.2   301  RDC301      0.0053
     14  C14       11.9620   -4.1170   16.3160 C.3   301  RDC301      0.1643
     15  C15       13.3060   -4.1320   15.6500 C.3   301  RDC301      0.1504
     16  C16       13.4970   -3.5130   14.2810 C.3   301  RDC301      0.0760
     17  C17       13.1610   -4.4550   13.1340 C.3   301  RDC301      0.1718
     18  C18       14.0650   -5.6600   13.1240 C.3   301  RDC301      0.0474
     19  O1        11.8430   -4.9020   13.3370 O.3   301  RDC301     -0.4491
     20  O2        11.0890   -4.1030   11.3170 O.2   301  RDC301     -0.2448
     21  O3         8.6860   -3.0770   12.5250 O.3   301  RDC301     -0.2862
     22  O4         5.8860   -6.6580   13.8170 O.3   301  RDC301     -0.2856
     23 CL1         7.8160   -8.7690   13.6470 Cl    301  RDC301     -0.0792
     24  O5        10.8400   -9.7440   13.9710 O.2   301  RDC301     -0.2910
     25  O6        12.9390   -3.1480   16.5840 O.3   301  RDC301     -0.3489
@<TRIPOS>BOND
     1    20     1    2
     2     1     2    1
     3     1    19    1
     4    21     3    1
     5     2     3   ar
     6     2     7   ar
     7     3     4   ar
     8     8     7    1
     9     8     9    1
    10     7     6   ar
    11    18    17    1
    12    17    19    1
    13    17    16    1
    14     4     5   ar
    15     6     5   ar
    16     6    23    1
    17     5    22    1
    18    24     9    2
    19     9    10    1
    20    16    15    1
    21    10    11    2
    22    15    14    1
    23    15    25    1
    24    11    12    1
    25    14    25    1
    26    14    13    1
    27    12    13    2
