@<TRIPOS>MOLECULE
4egm_HEM_A_1.pdb
 43 50 0 0 0
SMALL
GASTEIGER

@<TRIPOS>ATOM
      1  CHA       -9.7000  -13.2330   23.4010 C.2   501  HEM501      0.0000
      2  CHB      -11.9620  -15.0120   19.5580 C.2   501  HEM501      0.0000
      3  CHC      -11.3780  -10.7950   17.2910 C.2   501  HEM501      0.0000
      4  CHD       -7.9210   -9.7910   20.4700 C.2   501  HEM501      0.0000
      5  C1A      -10.4550  -14.0740   22.6360 C.ar  501  HEM501      0.0000
      6  C2A      -11.0980  -15.3060   23.0580 C.ar  501  HEM501      0.0000
      7  C3A      -11.7280  -15.8070   21.9790 C.ar  501  HEM501      0.0000
      8  C4A      -11.5020  -14.8910   20.8590 C.ar  501  HEM501      0.0000
      9  CMA      -12.5440  -17.1190   21.8900 C.3   501  HEM501      0.0000
     10  CAA      -11.0370  -15.9070   24.4940 C.3   501  HEM501      0.0000
     11  CBA       -9.6530  -16.4650   24.8220 C.3   501  HEM501      0.0000
     12  CGA       -9.5990  -17.3420   26.0410 C.2   501  HEM501      0.0000
     13  O1A       -8.4670  -17.8000   26.3870 O.co2 501  HEM501      0.0000
     14  O2A      -10.6640  -17.5850   26.6830 O.co2 501  HEM501      0.0000
     15  C1B      -12.0800  -13.9980   18.6220 C.2   501  HEM501      0.0000
     16  C2B      -12.9130  -13.9860   17.4160 C.2   501  HEM501      0.0000
     17  C3B      -12.7110  -12.7900   16.8080 C.2   501  HEM501      0.0000
     18  C4B      -11.7830  -12.0460   17.5930 C.2   501  HEM501      0.0000
     19  CMB      -13.8400  -15.1560   16.9910 C.3   501  HEM501      0.0000
     20  CAB      -13.3190  -12.1780   15.5360 C.2   501  HEM501      0.0000
     21  CBB      -13.5980  -12.9200   14.4720 C.2   501  HEM501      0.0000
     22  C1C      -10.3700  -10.1400   17.9220 C.ar  501  HEM501      0.0000
     23  C2C       -9.7780   -8.8800   17.5080 C.ar  501  HEM501      0.0000
     24  C3C       -8.8100   -8.5850   18.3990 C.ar  501  HEM501      0.0000
     25  C4C       -8.7670   -9.6600   19.3930 C.ar  501  HEM501      0.0000
     26  CMC      -10.2300   -8.0630   16.2630 C.3   501  HEM501      0.0000
     27  CAC       -7.8920   -7.3380   18.3620 C.2   501  HEM501      0.0000
     28  CBC       -8.3270   -6.1240   18.0040 C.2   501  HEM501      0.0000
     29  C1D       -8.0380  -10.6420   21.5380 C.2   501  HEM501      0.0000
     30  C2D       -7.1410  -10.6720   22.6650 C.2   501  HEM501      0.0000
     31  C3D       -7.7100  -11.7510   23.5970 C.2   501  HEM501      0.0000
     32  C4D       -8.8650  -12.2600   22.9200 C.2   501  HEM501      0.0000
     33  CMD       -5.8720   -9.8080   22.8870 C.3   501  HEM501      0.0000
     34  CAD       -7.1810  -12.2180   24.9680 C.3   501  HEM501      0.0000
     35  CBD       -7.9950  -11.4490   25.9970 C.3   501  HEM501      0.0000
     36  CGD       -7.9040  -11.9530   27.4310 C.2   501  HEM501      0.0000
     37  O1D       -8.3540  -11.1700   28.3310 O.co2 501  HEM501      0.0000
     38  O2D       -7.3960  -13.0920   27.6770 O.co2 501  HEM501      0.0000
     39  NA       -10.7440  -13.8390   21.3110 N.ar  501  HEM501      0.0000
     40  NB       -11.4160  -12.7850   18.6940 N.2   501  HEM501      0.0000
     41  NC        -9.7510  -10.5770   19.0670 N.ar  501  HEM501      0.0000
     42  ND        -9.0370  -11.5770   21.7370 N.2   501  HEM501      0.0000
     43 FE        -10.3190  -12.1800   20.2300 Fe    501  HEM501      0.0000
@<TRIPOS>BOND
     1    21    20    2
     2    20    17    1
     3    26    23    1
     4    17    16    2
     5    17    18    1
     6    19    16    1
     7     3    18    2
     8     3    22    1
     9    16    15    1
    10    23    22   ar
    11    23    24   ar
    12    18    40    1
    13    22    41   ar
    14    28    27    2
    15    27    24    1
    16    24    25   ar
    17    15    40    2
    18    15     2    1
    19    40    43    1
    20    41    25   ar
    21    41    43    1
    22    25     4    1
    23     2     8    2
    24    43    39    1
    25    43    42    1
    26     4    29    2
    27     8    39   ar
    28     8     7   ar
    29    39     5   ar
    30    29    42    1
    31    29    30    1
    32    42    32    2
    33     9     7    1
    34     7     6   ar
    35     5     6   ar
    36     5     1    2
    37    30    33    1
    38    30    31    2
    39    32     1    1
    40    32    31    1
    41     6    10    1
    42    31    34    1
    43    10    11    1
    44    11    12    1
    45    34    35    1
    46    35    36    1
    47    12    13   ar
    48    12    14   ar
    49    36    38   ar
    50    36    37   ar
