@<TRIPOS>MOLECULE
4egm_EGM_A_1.pdb
 11 11 0 0 0
SMALL
GASTEIGER

@<TRIPOS>ATOM
      1  O2        -0.9170  -13.0010   21.8540 O.co2 502  EGM502     -0.2406
      2  C7        -2.0420  -12.8760   22.4190 C.2   502  EGM502      0.3878
      3  O1        -2.0810  -12.1310   23.4300 O.co2 502  EGM502     -0.2406
      4  C5        -3.3230  -13.5770   21.9160 C.ar  502  EGM502      0.0798
      5  C6        -4.6120  -13.2240   22.3840 C.ar  502  EGM502      0.0063
      6  C1        -5.7800  -13.8440   21.9480 C.ar  502  EGM502     -0.0041
      7  C2        -5.6720  -14.8450   20.9920 C.ar  502  EGM502     -0.0222
      8  C8        -6.8780  -15.5830   20.4620 C.3   502  EGM502      0.0264
      9  C9        -7.9120  -14.6550   19.8560 C.3   502  EGM502      0.0050
     10  C3        -4.4260  -15.1980   20.5100 C.ar  502  EGM502     -0.0041
     11  C4        -3.2660  -14.5680   20.9500 C.ar  502  EGM502      0.0063
@<TRIPOS>BOND
     1     9     8    1
     2     8     7    1
     3    10    11   ar
     4    10     7   ar
     5    11     4   ar
     6     7     6   ar
     7     1     2   ar
     8     4     5   ar
     9     4     2    1
    10     6     5   ar
    11     2     3   ar
