@<TRIPOS>MOLECULE
4egn_TWO_A_1.pdb
 13 13 0 0 0
SMALL
GASTEIGER

@<TRIPOS>ATOM
      1  O1        -1.0380   13.2610  -24.2230 O.co2 504  TWO504     -0.2406
      2  C7        -1.0080   13.8670  -23.1020 C.2   504  TWO504      0.3879
      3  O2         0.0670   14.0290  -22.4580 O.co2 504  TWO504     -0.2406
      4  C5        -2.2500   14.4210  -22.4830 C.ar  504  TWO504      0.0830
      5  C4        -2.1550   15.3570  -21.4140 C.ar  504  TWO504      0.0466
      6  C3        -3.2950   15.9040  -20.8210 C.ar  504  TWO504      0.1726
      7  O4        -3.1910   16.8140  -19.7970 O.3   504  TWO504     -0.4684
      8  C9        -2.5910   16.5240  -18.5600 C.3   504  TWO504      0.2526
      9  C2        -4.5370   15.5670  -21.3340 C.ar  504  TWO504      0.1724
     10  O3        -5.6150   16.0890  -20.7400 O.3   504  TWO504     -0.4684
     11  C8        -6.9040   15.6540  -21.1320 C.3   504  TWO504      0.2526
     12  C1        -4.6370   14.6300  -22.3880 C.ar  504  TWO504      0.0403
     13  C6        -3.5010   14.0920  -22.9860 C.ar  504  TWO504      0.0099
@<TRIPOS>BOND
     1     1     2   ar
     2     2     4    1
     3     2     3   ar
     4    13     4   ar
     5    13    12   ar
     6     4     5   ar
     7    12     9   ar
     8     5     6   ar
     9     9     6   ar
    10     9    10    1
    11    11    10    1
    12     6     7    1
    13     7     8    1
