@<TRIPOS>MOLECULE
4egn_HEM_A_1.pdb
 43 50 0 0 0
SMALL
GASTEIGER

@<TRIPOS>ATOM
      1  CHA       -8.4050   13.7450  -24.0570 C.2   501  HEM501      0.0000
      2  CHB      -11.0780   15.1720  -20.2630 C.2   501  HEM501      0.0000
      3  CHC       -9.9690   10.8590  -18.0220 C.2   501  HEM501      0.0000
      4  CHD       -6.4890   10.2210  -21.3730 C.2   501  HEM501      0.0000
      5  C1A       -9.2650   14.4720  -23.2870 C.2   501  HEM501      0.0000
      6  C2A       -9.9170   15.7130  -23.6750 C.2   501  HEM501      0.0000
      7  C3A      -10.6460   16.1090  -22.6110 C.2   501  HEM501      0.0000
      8  C4A      -10.4840   15.1400  -21.5170 C.2   501  HEM501      0.0000
      9  CMA      -11.4960   17.3620  -22.4870 C.3   501  HEM501      0.0000
     10  CAA       -9.8520   16.3190  -25.0950 C.3   501  HEM501      0.0000
     11  CBA       -8.5710   17.0960  -25.3400 C.3   501  HEM501      0.0000
     12  CGA       -8.6570   17.9720  -26.5700 C.2   501  HEM501      0.0000
     13  O1A       -7.6260   18.6930  -26.8370 O.co2 501  HEM501      0.0000
     14  O2A       -9.7470   18.0130  -27.2220 O.co2 501  HEM501      0.0000
     15  C1B      -11.0070   14.0780  -19.3410 C.ar  501  HEM501      0.0000
     16  C2B      -11.8030   13.9640  -18.1200 C.ar  501  HEM501      0.0000
     17  C3B      -11.4940   12.7920  -17.5040 C.ar  501  HEM501      0.0000
     18  C4B      -10.5060   12.1160  -18.2930 C.ar  501  HEM501      0.0000
     19  CMB      -12.7870   15.0460  -17.6300 C.3   501  HEM501      0.0000
     20  CAB      -12.0160   12.2250  -16.1510 C.2   501  HEM501      0.0000
     21  CBB      -13.2230   12.5160  -15.6970 C.2   501  HEM501      0.0000
     22  C1C       -8.9140   10.2750  -18.7040 C.2   501  HEM501      0.0000
     23  C2C       -8.2850    9.0250  -18.4110 C.2   501  HEM501      0.0000
     24  C3C       -7.2750    8.8730  -19.3340 C.2   501  HEM501      0.0000
     25  C4C       -7.3010   10.0030  -20.2530 C.2   501  HEM501      0.0000
     26  CMC       -8.7370    8.1850  -17.1760 C.3   501  HEM501      0.0000
     27  CAC       -6.2940    7.7230  -19.5260 C.2   501  HEM501      0.0000
     28  CBC       -6.3630    6.5530  -18.8280 C.2   501  HEM501      0.0000
     29  C1D       -6.6480   11.1510  -22.3730 C.ar  501  HEM501      0.0000
     30  C2D       -5.7830   11.2520  -23.5260 C.ar  501  HEM501      0.0000
     31  C3D       -6.3680   12.2970  -24.3720 C.ar  501  HEM501      0.0000
     32  C4D       -7.5280   12.7600  -23.6350 C.ar  501  HEM501      0.0000
     33  CMD       -4.4620   10.4590  -23.7980 C.3   501  HEM501      0.0000
     34  CAD       -5.7950   12.7960  -25.7340 C.3   501  HEM501      0.0000
     35  CBD       -6.7450   12.0810  -26.7310 C.3   501  HEM501      0.0000
     36  CGD       -6.5100   12.6110  -28.1530 C.2   501  HEM501      0.0000
     37  O1D       -6.9540   11.9330  -29.1180 O.co2 501  HEM501      0.0000
     38  O2D       -5.8670   13.6660  -28.3540 O.co2 501  HEM501      0.0000
     39  NA        -9.6630   14.1120  -21.9920 N.2   501  HEM501      0.0000
     40  NB       -10.2690   12.8980  -19.4150 N.ar  501  HEM501      0.0000
     41  NC        -8.3330   10.7810  -19.8580 N.2   501  HEM501      0.0000
     42  ND        -7.7170   12.0290  -22.4760 N.ar  501  HEM501      0.0000
     43 FE         -9.0740   12.3850  -21.0040 Fe    501  HEM501      0.0000
@<TRIPOS>BOND
     1    37    36   ar
     2    38    36   ar
     3    36    35    1
     4    14    12   ar
     5    13    12   ar
     6    35    34    1
     7    12    11    1
     8    34    31    1
     9    11    10    1
    10    10     6    1
    11    31    32   ar
    12    31    30   ar
    13     1    32    2
    14     1     5    1
    15    33    30    1
    16     6     5    1
    17     6     7    2
    18    32    42   ar
    19    30    29   ar
    20     5    39    2
    21     7     9    1
    22     7     8    1
    23    42    29   ar
    24    42    43    1
    25    29     4    2
    26    39     8    1
    27    39    43    1
    28     8     2    2
    29     4    25    1
    30    43    41    1
    31    43    40    1
    32     2    15    1
    33    25    41    2
    34    25    24    1
    35    41    22    1
    36    27    24    1
    37    27    28    2
    38    40    15   ar
    39    40    18   ar
    40    15    16   ar
    41    24    23    2
    42    22    23    1
    43    22     3    2
    44    23    26    1
    45    18     3    1
    46    18    17   ar
    47    16    19    1
    48    16    17   ar
    49    17    20    1
    50    20    21    2
