@<TRIPOS>MOLECULE
4ego_HEM_A_1.pdb
 43 50 0 0 0
SMALL
GASTEIGER

@<TRIPOS>ATOM
      1  CHA       -8.4390  -13.5540   24.1110 C.2   501  HEM501      0.0000
      2  CHB      -11.0610  -15.0150   20.3010 C.2   501  HEM501      0.0000
      3  CHC       -9.9920  -10.8370   18.0470 C.2   501  HEM501      0.0000
      4  CHD       -6.4620  -10.1420   21.3190 C.2   501  HEM501      0.0000
      5  C1A       -9.2680  -14.3040   23.3500 C.ar  501  HEM501      0.0000
      6  C2A       -9.8820  -15.5760   23.6990 C.ar  501  HEM501      0.0000
      7  C3A      -10.6260  -15.9340   22.6240 C.ar  501  HEM501      0.0000
      8  C4A      -10.4210  -14.9420   21.5010 C.ar  501  HEM501      0.0000
      9  CMA      -11.5070  -17.1860   22.4680 C.3   501  HEM501      0.0000
     10  CAA       -9.8370  -16.2230   25.1150 C.3   501  HEM501      0.0000
     11  CBA       -8.5400  -16.9580   25.4110 C.3   501  HEM501      0.0000
     12  CGA       -8.6160  -17.8820   26.6180 C.2   501  HEM501      0.0000
     13  O1A       -7.5970  -18.5150   26.9500 O.co2 501  HEM501      0.0000
     14  O2A       -9.7100  -17.9380   27.1930 O.co2 501  HEM501      0.0000
     15  C1B      -10.9960  -13.9350   19.3540 C.2   501  HEM501      0.0000
     16  C2B      -11.8290  -13.8910   18.2000 C.2   501  HEM501      0.0000
     17  C3B      -11.5160  -12.7690   17.5460 C.2   501  HEM501      0.0000
     18  C4B      -10.5590  -12.1030   18.3670 C.2   501  HEM501      0.0000
     19  CMB      -12.7870  -15.0040   17.7540 C.3   501  HEM501      0.0000
     20  CAB      -12.1430  -12.2110   16.2130 C.2   501  HEM501      0.0000
     21  CBB      -13.3280  -12.5940   15.6950 C.2   501  HEM501      0.0000
     22  C1C       -8.9890  -10.2600   18.7910 C.ar  501  HEM501      0.0000
     23  C2C       -8.2720   -9.0200   18.4810 C.ar  501  HEM501      0.0000
     24  C3C       -7.2900   -8.8520   19.3760 C.ar  501  HEM501      0.0000
     25  C4C       -7.3340   -9.9700   20.3020 C.ar  501  HEM501      0.0000
     26  CMC       -8.7330   -8.1310   17.2330 C.3   501  HEM501      0.0000
     27  CAC       -6.3370   -7.6800   19.5570 C.2   501  HEM501      0.0000
     28  CBC       -6.3230   -6.5870   18.7530 C.2   501  HEM501      0.0000
     29  C1D       -6.6510  -11.0710   22.3630 C.2   501  HEM501      0.0000
     30  C2D       -5.7590  -11.1370   23.4870 C.2   501  HEM501      0.0000
     31  C3D       -6.3820  -12.1230   24.3900 C.2   501  HEM501      0.0000
     32  C4D       -7.6040  -12.5570   23.6620 C.2   501  HEM501      0.0000
     33  CMD       -4.4220  -10.3580   23.7150 C.3   501  HEM501      0.0000
     34  CAD       -5.9060  -12.6070   25.7670 C.3   501  HEM501      0.0000
     35  CBD       -6.8940  -11.9180   26.7890 C.3   501  HEM501      0.0000
     36  CGD       -6.5660  -12.4950   28.1750 C.2   501  HEM501      0.0000
     37  O1D       -6.9530  -11.8060   29.1800 O.co2 501  HEM501      0.0000
     38  O2D       -5.8650  -13.5270   28.3400 O.co2 501  HEM501      0.0000
     39  NA        -9.5550  -13.9920   22.0340 N.ar  501  HEM501      0.0000
     40  NB       -10.2470  -12.7680   19.5410 N.2   501  HEM501      0.0000
     41  NC        -8.3460  -10.7880   19.8790 N.ar  501  HEM501      0.0000
     42  ND        -7.7320  -11.9610   22.4150 N.2   501  HEM501      0.0000
     43 FE         -9.0270  -12.3240   21.0080 Fe    501  HEM501      0.0000
@<TRIPOS>BOND
     1    21    20    2
     2    20    17    1
     3    26    23    1
     4    17    16    2
     5    17    18    1
     6    19    16    1
     7     3    18    2
     8     3    22    1
     9    16    15    1
    10    18    40    1
    11    23    22   ar
    12    23    24   ar
    13    28    27    2
    14    22    41   ar
    15    15    40    2
    16    15     2    1
    17    24    27    1
    18    24    25   ar
    19    40    43    1
    20    41    25   ar
    21    41    43    1
    22     2     8    2
    23    25     4    1
    24    43    39    1
    25    43    42    1
    26     4    29    2
    27     8    39   ar
    28     8     7   ar
    29    39     5   ar
    30    29    42    1
    31    29    30    1
    32    42    32    2
    33     9     7    1
    34     7     6   ar
    35     5     6   ar
    36     5     1    2
    37    30    33    1
    38    30    31    2
    39    32     1    1
    40    32    31    1
    41     6    10    1
    42    31    34    1
    43    10    11    1
    44    11    12    1
    45    34    35    1
    46    12    13   ar
    47    12    14   ar
    48    35    36    1
    49    36    38   ar
    50    36    37   ar
