@<TRIPOS>MOLECULE
4ego_1F1_A_1.pdb
 12 13 0 0 0
SMALL
GASTEIGER

@<TRIPOS>ATOM
      1  O1         0.2230  -13.9130   22.4780 O.co2 502  1F1502     -0.2409
      2  C2        -0.9170  -13.8160   23.0120 C.2   502  1F1502      0.3842
      3  O3        -0.9710  -13.1870   24.1250 O.co2 502  1F1502     -0.2409
      4  C4        -2.1150  -14.4900   22.3650 C.2   502  1F1502      0.0634
      5  C5        -1.9270  -15.4920   21.2920 C.3   502  1F1502      0.0591
      6  C6        -3.0770  -16.0930   20.7670 C.2   502  1F1502     -0.0196
      7  C7        -4.2530  -15.7620   21.3560 C.2   502  1F1502      0.0153
      8  C8        -5.5580  -16.2750   20.8720 C.2   502  1F1502      0.0218
      9  C9        -6.5510  -15.5950   21.7880 C.2   502  1F1502      0.0989
     10  N10       -5.7480  -14.7780   22.6160 N.2   502  1F1502     -0.2439
     11  C11       -4.4440  -14.8850   22.3350 C.2   502  1F1502      0.0810
     12  C12       -3.4260  -14.2000   22.8720 C.2   502  1F1502      0.0217
@<TRIPOS>BOND
     1     6     5    1
     2     6     7    2
     3     8     7    1
     4     8     9    2
     5     5     4    1
     6     7    11    1
     7     9    10    1
     8    11    10    2
     9    11    12    1
    10     4    12    2
    11     4     2    1
    12     1     2   ar
    13     2     3   ar
