@<TRIPOS>MOLECULE
4egp_HEM_A_1.pdb
 43 50 0 0 0
SMALL
GASTEIGER

@<TRIPOS>ATOM
      1  CHA      -48.6370   24.0550   -8.8530 C.2   501  HEM501      0.0000
      2  CHB      -50.1100   20.3180  -11.4600 C.2   501  HEM501      0.0000
      3  CHC      -46.0910   17.8590  -10.4870 C.2   501  HEM501      0.0000
      4  CHD      -45.2300   21.1280   -7.0230 C.2   501  HEM501      0.0000
      5  C1A      -49.3890   23.2900   -9.6930 C.ar  501  HEM501      0.0000
      6  C2A      -50.6180   23.6780  -10.3510 C.ar  501  HEM501      0.0000
      7  C3A      -51.0150   22.6300  -11.0820 C.ar  501  HEM501      0.0000
      8  C4A      -50.0490   21.5600  -10.8860 C.ar  501  HEM501      0.0000
      9  CMA      -52.2790   22.5400  -11.9640 C.3   501  HEM501      0.0000
     10  CAA      -51.2990   25.0600  -10.2350 C.3   501  HEM501      0.0000
     11  CBA      -52.0240   25.2930   -8.9140 C.3   501  HEM501      0.0000
     12  CGA      -52.8750   26.5530   -9.0220 C.2   501  HEM501      0.0000
     13  O1A      -53.5460   26.9480   -8.0200 O.co2 501  HEM501      0.0000
     14  O2A      -52.8980   27.1810  -10.1260 O.co2 501  HEM501      0.0000
     15  C1B      -49.1470   19.3390  -11.4480 C.2   501  HEM501      0.0000
     16  C2B      -49.2160   18.0810  -12.1750 C.2   501  HEM501      0.0000
     17  C3B      -48.1040   17.3890  -11.9030 C.2   501  HEM501      0.0000
     18  C4B      -47.3130   18.1960  -11.0020 C.2   501  HEM501      0.0000
     19  CMB      -50.3680   17.6330  -13.1060 C.3   501  HEM501      0.0000
     20  CAB      -47.7360   15.9770  -12.4420 C.2   501  HEM501      0.0000
     21  CBB      -47.1680   15.7780  -13.6390 C.2   501  HEM501      0.0000
     22  C1C      -45.4770   18.5650   -9.4690 C.ar  501  HEM501      0.0000
     23  C2C      -44.1890   18.2410   -8.9070 C.ar  501  HEM501      0.0000
     24  C3C      -43.9440   19.1460   -7.9530 C.ar  501  HEM501      0.0000
     25  C4C      -45.0670   20.0650   -7.8840 C.ar  501  HEM501      0.0000
     26  CMC      -43.3110   17.0630   -9.3880 C.3   501  HEM501      0.0000
     27  CAC      -42.7050   19.2360   -7.0310 C.2   501  HEM501      0.0000
     28  CBC      -41.4650   19.3740   -7.5080 C.2   501  HEM501      0.0000
     29  C1D      -46.0820   22.2020   -7.1640 C.2   501  HEM501      0.0000
     30  C2D      -46.1610   23.3230   -6.2550 C.2   501  HEM501      0.0000
     31  C3D      -47.2300   24.2250   -6.8300 C.2   501  HEM501      0.0000
     32  C4D      -47.6680   23.5620   -8.0240 C.2   501  HEM501      0.0000
     33  CMD      -45.3350   23.5490   -4.9930 C.3   501  HEM501      0.0000
     34  CAD      -47.7240   25.5860   -6.3330 C.3   501  HEM501      0.0000
     35  CBD      -47.0570   26.5740   -7.2960 C.3   501  HEM501      0.0000
     36  CGD      -47.2900   28.0220   -6.9610 C.2   501  HEM501      0.0000
     37  O1D      -46.5030   28.8500   -7.4780 O.co2 501  HEM501      0.0000
     38  O2D      -48.2230   28.3660   -6.1860 O.co2 501  HEM501      0.0000
     39  NA       -49.0710   21.9970  -10.0230 N.ar  501  HEM501      0.0000
     40  NB       -47.9760   19.3770  -10.7450 N.2   501  HEM501      0.0000
     41  NC       -45.9910   19.6830   -8.8050 N.ar  501  HEM501      0.0000
     42  ND       -47.0020   22.3630   -8.1810 N.2   501  HEM501      0.0000
     43 FE        -47.4960   20.9080   -9.4090 Fe    501  HEM501      0.0000
@<TRIPOS>BOND
     1    21    20    2
     2    19    16    1
     3    20    17    1
     4    16    17    2
     5    16    15    1
     6     9     7    1
     7    17    18    1
     8     2    15    1
     9     2     8    2
    10    15    40    2
    11     7     8   ar
    12     7     6   ar
    13    18    40    1
    14    18     3    2
    15     8    39   ar
    16    40    43    1
    17     3    22    1
    18     6    10    1
    19     6     5   ar
    20    10    11    1
    21    14    12   ar
    22    39     5   ar
    23    39    43    1
    24     5     1    2
    25    22    23   ar
    26    22    41   ar
    27    43    41    1
    28    43    42    1
    29    26    23    1
    30    12    11    1
    31    12    13   ar
    32    23    24   ar
    33     1    32    1
    34    41    25   ar
    35    42    32    2
    36    42    29    1
    37    32    31    1
    38    24    25   ar
    39    24    27    1
    40    25     4    1
    41    28    27    2
    42    37    36   ar
    43    35    36    1
    44    35    34    1
    45    29     4    2
    46    29    30    1
    47    36    38   ar
    48    31    34    1
    49    31    30    2
    50    30    33    1
