@<TRIPOS>MOLECULE
4egp_FIV_A_1.pdb
 13 14 0 0 0
SMALL
GASTEIGER

@<TRIPOS>ATOM
      1  O2       -47.5510   23.9150    0.3150 O.co2 502  FIV502     -0.2406
      2  C11      -48.3170   22.9190    0.3710 C.2   502  FIV502      0.3878
      3  O1       -48.5000   22.3030    1.4510 O.co2 502  FIV502     -0.2406
      4  C7       -49.0340   22.3930   -0.8500 C.ar  502  FIV502      0.0798
      5  C8       -50.0430   21.4550   -0.6220 C.ar  502  FIV502      0.0066
      6  C3       -50.7480   20.8780   -1.6830 C.ar  502  FIV502      0.0002
      7  C5       -48.7370   22.7640   -2.1740 C.ar  502  FIV502      0.0066
      8  C2       -49.4650   22.1810   -3.2360 C.ar  502  FIV502      0.0002
      9  C6       -49.2090   22.5270   -4.5570 C.ar  502  FIV502      0.0000
     10  C10      -49.9510   21.9290   -5.5890 C.ar  502  FIV502      0.0000
     11  C9       -50.9530   20.9900   -5.3240 C.ar  502  FIV502      0.0000
     12  C4       -51.2120   20.6530   -4.0020 C.ar  502  FIV502      0.0000
     13  C1       -50.4710   21.2370   -2.9870 C.ar  502  FIV502      0.0000
@<TRIPOS>BOND
     1    10    11   ar
     2    10     9   ar
     3    11    12   ar
     4     9     8   ar
     5    12    13   ar
     6     8    13   ar
     7     8     7   ar
     8    13     6   ar
     9     7     4   ar
    10     6     5   ar
    11     4     5   ar
    12     4     2    1
    13     1     2   ar
    14     2     3   ar
