@<TRIPOS>MOLECULE
4egr_PEP_A_1.pdb
 10 9 0 0 0
SMALL
GASTEIGER

@<TRIPOS>ATOM
      1  C1        11.4180   33.7970  -49.3750 C.2   501  PEP501      0.4216
      2  O1        10.4690   33.0490  -49.6960 O.co2 501  PEP501     -0.2371
      3  O2'       11.4190   34.4430  -48.3050 O.co2 501  PEP501     -0.2371
      4  C2        12.5600   33.9180  -50.2760 C.2   501  PEP501      0.2283
      5  C3        12.7320   35.0230  -50.9770 C.2   501  PEP501      0.0477
      6  O2        13.5070   32.8230  -50.4020 O.2   501  PEP501     -0.3930
      7  P         14.9080   33.0520  -51.1610 P.3   501  PEP501      0.5889
      8  O1P       15.6050   34.1030  -50.3300 O.3   501  PEP501     -0.1039
      9  O2P       15.5660   31.6940  -51.1290 O.3   501  PEP501     -0.1039
     10  O3P       14.5020   33.5160  -52.5400 O.2   501  PEP501     -0.2114
@<TRIPOS>BOND
     1    10     7    2
     2     7     9    1
     3     7     6    1
     4     7     8    1
     5     5     4    2
     6     6     4    1
     7     4     1    1
     8     2     1   ar
     9     1     3   ar
