@<TRIPOS>MOLECULE
4egu_5GP_A_1.pdb
 36 38 0 0 0
SMALL
GASTEIGER

@<TRIPOS>ATOM
      1  P         -8.8590    3.3110    7.4270 P.3   201  5GP201      0.5320
      2  O1P       -9.8660    4.4380    7.4960 O.3   201  5GP201     -0.1145
      3  O2P       -8.9420    2.4310    6.2110 O.2   201  5GP201     -0.2224
      4  O3P       -8.9120    2.5010    8.6520 O.3   201  5GP201     -0.1145
      5  O5'       -7.4240    3.9360    7.5460 O.3   201  5GP201     -0.2809
      6  C5'       -6.6230    4.1090    6.4010 C.3   201  5GP201      0.0880
      7  C4'       -5.6210    5.1760    6.6500 C.3   201  5GP201      0.1132
      8  O4'       -4.6530    5.1490    5.5980 O.3   201  5GP201     -0.3474
      9  C3'       -6.1980    6.5930    6.6770 C.3   201  5GP201      0.1133
     10  O3'       -6.0640    7.1500    7.9870 O.3   201  5GP201     -0.3864
     11  C2'       -5.3270    7.3680    5.6590 C.3   201  5GP201      0.1266
     12  O2'       -4.9430    8.6700    6.0560 O.3   201  5GP201     -0.3849
     13  C1'       -4.1260    6.4330    5.4570 C.3   201  5GP201      0.1617
     14  N9        -3.5110    6.5080    4.1400 N.pl3 201  5GP201     -0.2241
     15  C8        -4.1740    6.3800    2.9750 C.2   201  5GP201      0.1451
     16  N7        -3.3100    6.4490    1.9440 N.2   201  5GP201     -0.3865
     17  C5        -2.0800    6.6060    2.4760 C.2   201  5GP201      0.2296
     18  C6        -0.8250    6.7390    1.9020 C.2   201  5GP201      0.2859
     19  O6        -0.6200    6.7390    0.6500 O.2   201  5GP201     -0.2668
     20  N1         0.1880    6.8660    2.7740 N.am  201  5GP201     -0.2418
     21  C2         0.0290    6.8760    4.1230 C.2   201  5GP201      0.2395
     22  N2         1.1310    7.0180    4.8760 N.pl3 201  5GP201     -0.3206
     23  N3        -1.1670    6.7640    4.7210 N.2   201  5GP201     -0.3551
     24  C4        -2.2110    6.6260    3.8730 C.2   201  5GP201      0.2272
     25 H5'1       -6.1130    3.1740    6.1620 H     201  5GP201      0.0592
     26 H5'2       -7.2500    4.3830    5.5500 H     201  5GP201      0.0592
     27  H4'       -5.1290    4.9790    7.6130 H     201  5GP201      0.0647
     28  H3'       -7.2460    6.5820    6.3490 H     201  5GP201      0.0647
     29 HO3'       -6.3580    8.0710    7.9780 H     201  5GP201      0.2100
     30  H2'       -5.8790    7.4260    4.7100 H     201  5GP201      0.0663
     31 HO2'       -4.3420    9.0440    5.3980 H     201  5GP201      0.2101
     32  H1'       -3.3810    6.6270    6.2410 H     201  5GP201      0.0841
     33  H8        -5.2630    6.2600    2.8780 H     201  5GP201      0.1149
     34  HN1        1.1140    6.9650    2.4090 H     201  5GP201      0.1589
     35 HN21        1.0570    7.0330    5.8730 H     201  5GP201      0.1459
     36 HN22        2.0260    7.1110    4.4390 H     201  5GP201      0.1459
@<TRIPOS>BOND
     1    19    18    2
     2    18    17    1
     3    18    20   am
     4    16    17    2
     5    16    15    2
     6    34    20    1
     7    17    24    1
     8    20    21    1
     9    33    15    1
    10    15    14    1
    11    24    14    1
    12    24    23    2
    13    21    23    2
    14    21    22    1
    15    14    13    1
    16    36    22    1
    17    30    11    1
    18    22    35    1
    19    31    12    1
    20    13     8    1
    21    13    11    1
    22    13    32    1
    23    26     6    1
    24     8     7    1
    25    11    12    1
    26    11     9    1
    27    25     6    1
    28     3     1    2
    29    28     9    1
    30     6     7    1
    31     6     5    1
    32     7     9    1
    33     7    27    1
    34     9    10    1
    35     1     2    1
    36     1     5    1
    37     1     4    1
    38    29    10    1
