@<TRIPOS>MOLECULE
4eh2_0OK_A_1.pdb
 17 19 0 0 0
SMALL
GASTEIGER

@<TRIPOS>ATOM
      1  CAG        3.0150   -1.5750   18.0250 C.ar  402  0OK402      0.0150
      2  CAC        3.3240   -2.0310   16.7430 C.ar  402  0OK402      0.0013
      3  CAB        4.6350   -1.9640   16.2660 C.ar  402  0OK402      0.0001
      4  CAD        5.6460   -1.4390   17.0700 C.ar  402  0OK402      0.0013
      5  CAH        5.3420   -0.9830   18.3530 C.ar  402  0OK402      0.0150
      6  CAM        4.0270   -1.0460   18.8320 C.ar  402  0OK402      0.0559
      7  NAQ        3.7710   -0.5900   20.1470 N.am  402  0OK402     -0.2336
      8  CAK        3.5660    0.7790   20.4400 C.3   402  0OK402      0.2259
      9  NAL        3.3480    1.1720   21.6950 N.2   402  0OK402     -0.2515
     10  CAO        3.3130    0.3020   22.7320 C.2   402  0OK402      0.0644
     11  CAI        3.0750    0.7690   24.0290 C.3   402  0OK402      0.0715
     12  CAE        3.0290   -0.1210   25.1050 C.2   402  0OK402     -0.0198
     13  CAF        3.2250   -1.4850   24.8970 C.2   402  0OK402     -0.0040
     14  CAJ        3.4550   -1.9590   23.6040 C.2   402  0OK402      0.0054
     15  CAP        3.5030   -1.0700   22.5180 C.2   402  0OK402      0.0674
     16  CAN        3.7360   -1.5260   21.2110 C.2   402  0OK402      0.2553
     17  OAA        3.9020   -2.7270   20.9760 O.2   402  0OK402     -0.2695
@<TRIPOS>BOND
     1     3     2   ar
     2     3     4   ar
     3     2     1   ar
     4     4     5   ar
     5     1     6   ar
     6     5     6   ar
     7     6     7    1
     8     7     8    1
     9     7    16   am
    10     8     9    1
    11    17    16    2
    12    16    15    1
    13     9    10    2
    14    15    10    1
    15    15    14    2
    16    10    11    1
    17    14    13    1
    18    11    12    1
    19    13    12    2
