@<TRIPOS>MOLECULE
4eh2_IRG_A_1.pdb
 21 24 0 0 0
SMALL
GASTEIGER

@<TRIPOS>ATOM
      1  N1       -23.4410  -16.7640   10.4180 N.2   401  IRG401     -0.3231
      2  C2       -23.1440  -17.4610    9.2980 C.1   401  IRG401      0.1389
      3  N3       -23.4010  -16.9360    8.0980 N.2   401  IRG401     -0.3438
      4  C4       -23.9840  -15.7270    7.9750 C.2   401  IRG401      0.1305
      5  C5       -24.2960  -14.9900    9.1220 C.2   401  IRG401      0.0691
      6  C6       -24.0110  -15.5530   10.3650 C.2   401  IRG401      0.2134
      7  NAA      -25.0720  -13.4460    5.3710 N.2   401  IRG401     -0.1566
      8  CAB      -21.2250  -21.1640    9.6940 C.ar  401  IRG401      0.0000
      9  CAC      -21.5240  -20.3890   10.8170 C.ar  401  IRG401      0.0007
     10  CAD      -21.5760  -20.7130    8.4150 C.ar  401  IRG401      0.0007
     11  CAE      -22.1690  -19.1660   10.6800 C.ar  401  IRG401      0.0120
     12  CAF      -22.2300  -19.4840    8.2740 C.ar  401  IRG401      0.0120
     13  CAG      -25.1320  -13.1840    7.7280 C.3   401  IRG401      0.0697
     14  CAH      -24.8550  -13.7120    8.9900 C.2   401  IRG401     -0.0139
     15  CAI      -24.2580  -15.1920    6.7050 C.3   401  IRG401      0.1034
     16  CAJ      -25.3540  -15.3870   13.7480 C.3   401  IRG401      0.0234
     17  CAK      -24.0130  -14.7390   14.0460 C.3   401  IRG401      0.0234
     18  NAN      -24.2790  -14.9090   11.5180 N.pl3 401  IRG401     -0.2107
     19  CAO      -24.8210  -13.9310    6.5810 C.2   401  IRG401      0.0697
     20  CAP      -22.5320  -18.7090    9.4110 C.ar  401  IRG401      0.0856
     21  CAU      -24.1640  -15.6230   12.7980 C.3   401  IRG401      0.0952
@<TRIPOS>BOND
     1     7    19    2
     2    19    15    1
     3    19    13    1
     4    15     4    1
     5    13    14    1
     6     4     3    2
     7     4     5    1
     8     3     2    2
     9    12    10   ar
    10    12    20   ar
    11    10     8   ar
    12    14     5    2
    13     5     6    1
    14     2    20    1
    15     2     1    2
    16    20    11   ar
    17     8     9   ar
    18     6     1    2
    19     6    18    1
    20    11     9   ar
    21    18    21    1
    22    21    16    1
    23    21    17    1
    24    16    17    1
