@<TRIPOS>MOLECULE
4eh3_IRG_A_1.pdb
 21 24 0 0 0
SMALL
GASTEIGER

@<TRIPOS>ATOM
      1  N1        23.6520  -16.5200  -10.4700 N.2   402  IRG402     -0.3231
      2  C2        23.4540  -17.2070   -9.3150 C.1   402  IRG402      0.1389
      3  N3        23.7630  -16.6220   -8.1290 N.2   402  IRG402     -0.3437
      4  C4        24.2700  -15.3630   -8.0740 C.2   402  IRG402      0.1309
      5  C5        24.4690  -14.6390   -9.2610 C.2   402  IRG402      0.0730
      6  C6        24.1460  -15.2650  -10.4760 C.2   402  IRG402      0.2137
      7  NAA       25.4030  -12.9020   -5.6770 N.pl3 402  IRG402     -0.1323
      8  CAB       21.7780  -21.0730   -9.4920 C.ar  402  IRG402      0.0000
      9  CAC       21.7000  -20.2210  -10.6050 C.ar  402  IRG402      0.0007
     10  CAD       22.4280  -20.6500   -8.3190 C.ar  402  IRG402      0.0007
     11  CAE       22.2610  -18.9400  -10.5330 C.ar  402  IRG402      0.0120
     12  CAF       22.9920  -19.3700   -8.2530 C.ar  402  IRG402      0.0120
     13  CAG       25.2970  -12.7360   -8.0010 C.2   402  IRG402      0.0143
     14  CAH       24.9820  -13.3300   -9.2190 C.2   402  IRG402      0.0073
     15  CAI       24.5980  -14.7580   -6.8560 C.3   402  IRG402      0.1047
     16  CAJ       25.7900  -15.0140  -13.6210 C.3   402  IRG402      0.0234
     17  CAK       24.3850  -14.7200  -14.1540 C.3   402  IRG402      0.0234
     18  NAN       24.3210  -14.6320  -11.6370 N.pl3 402  IRG402     -0.2107
     19  CAO       25.1050  -13.4570   -6.8350 C.2   402  IRG402      0.0738
     20  CAP       22.9160  -18.5060   -9.3630 C.ar  402  IRG402      0.0856
     21  CAU       24.5610  -15.4410  -12.8260 C.3   402  IRG402      0.0952
@<TRIPOS>BOND
     1    17    16    1
     2    17    21    1
     3    16    21    1
     4    21    18    1
     5    18     6    1
     6     9    11   ar
     7     9     8   ar
     8    11    20   ar
     9     6     1    2
    10     6     5    1
    11     1     2    2
    12     8    10   ar
    13    20     2    1
    14    20    12   ar
    15     2     3    2
    16     5    14    2
    17     5     4    1
    18    14    13    1
    19    10    12   ar
    20     3     4    2
    21     4    15    1
    22    13    19    2
    23    15    19    1
    24    19     7    1
