@<TRIPOS>MOLECULE
4eh3_NAR_A_1.pdb
 20 22 0 0 0
SMALL
GASTEIGER

@<TRIPOS>ATOM
      1  C1        -1.4160   -0.8740  -23.9600 C.ar  401  NAR401      0.0792
      2  C2        -0.5410   -0.3050  -24.8910 C.ar  401  NAR401      0.2020
      3  C3        -0.3640    1.0710  -24.9420 C.ar  401  NAR401      0.0843
      4  C4        -1.0660    1.8870  -24.0640 C.ar  401  NAR401      0.2046
      5  C5        -1.9490    1.3290  -23.1390 C.ar  401  NAR401      0.1078
      6  C6        -2.1220   -0.0570  -23.0780 C.ar  401  NAR401      0.1479
      7  C7        -2.6500    2.1050  -22.2170 C.2   401  NAR401      0.1831
      8  C8        -3.0240    1.5270  -20.8530 C.3   401  NAR401      0.1174
      9  C9        -2.6680    0.0070  -20.8360 C.3   401  NAR401      0.1958
     10  O1        -2.9790   -0.5870  -22.1450 O.3   401  NAR401     -0.4740
     11  O2        -2.9350    3.2740  -22.4660 O.2   401  NAR401     -0.2910
     12  C10       -3.3160   -0.6500  -19.6110 C.ar  401  NAR401      0.0178
     13  C11       -4.6820   -0.4950  -19.3770 C.ar  401  NAR401      0.0025
     14  C12       -5.2710   -1.0750  -18.2600 C.ar  401  NAR401      0.0418
     15  C13       -4.4850   -1.8090  -17.3790 C.ar  401  NAR401      0.1957
     16  C14       -3.1150   -1.9670  -17.6030 C.ar  401  NAR401      0.0418
     17  C15       -2.5290   -1.3850  -18.7250 C.ar  401  NAR401      0.0025
     18  O3        -5.0680   -2.3730  -16.2930 O.3   401  NAR401     -0.2866
     19  O4         0.1530   -1.0840  -25.7620 O.3   401  NAR401     -0.2864
     20  O5        -0.8830    3.2260  -24.1220 O.3   401  NAR401     -0.2863
@<TRIPOS>BOND
     1    19     2    1
     2     3     2   ar
     3     3     4   ar
     4     2     1   ar
     5    20     4    1
     6     4     5   ar
     7     1     6   ar
     8     5     6   ar
     9     5     7    1
    10     6    10    1
    11    11     7    2
    12     7     8    1
    13    10     9    1
    14     8     9    1
    15     9    12    1
    16    12    13   ar
    17    12    17   ar
    18    13    14   ar
    19    17    16   ar
    20    14    15   ar
    21    16    15   ar
    22    15    18    1
