@<TRIPOS>MOLECULE
4eh4_0OL_A_1.pdb
 14 15 0 0 0
SMALL
GASTEIGER

@<TRIPOS>ATOM
      1  CAJ        2.0420   -0.4240   21.9530 C.3   402  0OL402      0.0937
      2  CAH        1.3370    0.7370   22.7150 C.3   402  0OL402      0.0216
      3  CAG        2.1730    2.0310   22.7960 C.3   402  0OL402      0.0035
      4  CAI        2.5070    2.5040   21.3730 C.3   402  0OL402      0.0216
      5  CAK        3.2540    1.4290   20.5250 C.3   402  0OL402      0.0937
      6  NAN        2.8790   -0.0170   20.7460 N.am  402  0OL402     -0.2761
      7  CAL        3.3360   -1.0150   19.8870 C.2   402  0OL402      0.2490
      8  OAA        2.9850   -2.1820   20.0790 O.2   402  0OL402     -0.2699
      9  CAM        4.2060   -0.7650   18.6270 C.ar  402  0OL402      0.0536
     10  CAE        3.6610   -0.9630   17.3530 C.ar  402  0OL402      0.0045
     11  CAC        4.4320   -0.7120   16.2050 C.ar  402  0OL402      0.0001
     12  CAB        5.7540   -0.2840   16.3010 C.ar  402  0OL402      0.0000
     13  CAD        6.2990   -0.1050   17.5710 C.ar  402  0OL402      0.0001
     14  CAF        5.5440   -0.3560   18.7280 C.ar  402  0OL402      0.0045
@<TRIPOS>BOND
     1    11    12   ar
     2    11    10   ar
     3    12    13   ar
     4    10     9   ar
     5    13    14   ar
     6     9    14   ar
     7     9     7    1
     8     7     8    2
     9     7     6   am
    10     5     6    1
    11     5     4    1
    12     6     1    1
    13     4     3    1
    14     1     2    1
    15     2     3    1
