@<TRIPOS>MOLECULE
4eh4_IRG_A_1.pdb
 21 24 0 0 0
SMALL
GASTEIGER

@<TRIPOS>ATOM
      1  N1       -23.5830  -16.2600   10.7730 N.2   401  IRG401     -0.3270
      2  C2       -23.4190  -16.8630    9.5860 C.1   401  IRG401      0.1382
      3  N3       -23.6830  -16.2140    8.4530 N.2   401  IRG401     -0.3475
      4  C4       -24.1170  -14.9410    8.4960 C.2   401  IRG401      0.1169
      5  C5       -24.2870  -14.2830    9.7200 C.3   401  IRG401      0.1404
      6  C6       -24.0130  -14.9940   10.8930 C.2   401  IRG401      0.1984
      7  NAA      -25.1010  -12.2690    6.2030 N.2   401  IRG401     -0.1523
      8  CAB      -21.8890  -20.7690    9.5760 C.ar  401  IRG401      0.0000
      9  CAC      -22.0570  -20.0780   10.7790 C.ar  401  IRG401      0.0007
     10  CAD      -22.2460  -20.1620    8.3600 C.ar  401  IRG401      0.0007
     11  CAE      -22.5690  -18.7730   10.7660 C.ar  401  IRG401      0.0120
     12  CAF      -22.7660  -18.8520    8.3620 C.ar  401  IRG401      0.0120
     13  CAG      -25.0050  -12.2470    8.5560 C.2   401  IRG401      0.0132
     14  CAH      -24.7240  -12.9340    9.7410 C.2   401  IRG401     -0.0100
     15  CAI      -24.4030  -14.2400    7.3150 C.3   401  IRG401      0.1037
     16  CAJ      -25.3130  -14.5490   14.3610 C.3   401  IRG401      0.0234
     17  CAK      -25.8180  -15.7360   13.5400 C.3   401  IRG401      0.0234
     18  NAN      -24.1410  -14.4460   12.1200 N.pl3 401  IRG401     -0.2139
     19  CAO      -24.8430  -12.9070    7.3430 C.2   401  IRG401      0.0870
     20  CAP      -22.9420  -18.1610    9.5670 C.ar  401  IRG401      0.0856
     21  CAU      -25.4220  -14.4320   12.8450 C.3   401  IRG401      0.0949
@<TRIPOS>BOND
     1     7    19    2
     2    15    19    1
     3    15     4    1
     4    19    13    1
     5    10    12   ar
     6    10     8   ar
     7    12    20   ar
     8     3     4    2
     9     3     2    2
    10     4     5    1
    11    13    14    2
    12    20     2    1
    13    20    11   ar
    14     8     9   ar
    15     2     1    2
    16     5    14    1
    17     5     6    1
    18    11     9   ar
    19     1     6    2
    20     6    18    1
    21    18    21    1
    22    21    17    1
    23    21    16    1
    24    17    16    1
