@<TRIPOS>MOLECULE
4eh5_0OM_A_1.pdb
 16 17 0 0 0
SMALL
GASTEIGER

@<TRIPOS>ATOM
      1  CAG       -4.0120   -1.3510  -17.5390 C.ar  402  0OM402     -0.0007
      2  CAC       -4.4750   -1.1260  -16.2460 C.ar  402  0OM402     -0.0002
      3  CAB       -5.7260   -0.5470  -16.0400 C.ar  402  0OM402     -0.0000
      4  CAD       -6.5260   -0.1930  -17.1280 C.ar  402  0OM402     -0.0002
      5  CAH       -6.0650   -0.4210  -18.4230 C.ar  402  0OM402     -0.0007
      6  CAO       -4.8100   -0.9990  -18.6240 C.ar  402  0OM402      0.0213
      7  CAK       -4.3460   -1.2160  -19.9150 C.3   402  0OM402      0.2354
      8  OAM       -4.9490   -0.5080  -21.0230 O.3   402  0OM402     -0.4404
      9  CAN       -4.1190   -0.3170  -22.0930 C.2   402  0OM402      0.3431
     10  OAA       -3.8890   -1.2210  -22.8970 O.2   402  0OM402     -0.2448
     11  CAP       -3.5140    1.0640  -22.2980 C.ar  402  0OM402      0.0948
     12  CAI       -2.5570    1.5410  -21.4040 C.ar  402  0OM402      0.0096
     13  CAE       -2.0270    2.8040  -21.6190 C.ar  402  0OM402      0.0209
     14  CAF       -2.4860    3.5230  -22.7180 C.ar  402  0OM402      0.0989
     15  NAL       -3.4070    3.0520  -23.5500 N.ar  402  0OM402     -0.2421
     16  CAJ       -3.9320    1.8480  -23.3750 C.ar  402  0OM402      0.1053
@<TRIPOS>BOND
     1    15    16   ar
     2    15    14   ar
     3    16    11   ar
     4    10     9    2
     5    14    13   ar
     6    11     9    1
     7    11    12   ar
     8     9     8    1
     9    13    12   ar
    10     8     7    1
    11     7     6    1
    12     6     5   ar
    13     6     1   ar
    14     5     4   ar
    15     1     2   ar
    16     4     3   ar
    17     2     3   ar
