@<TRIPOS>MOLECULE
4eh5_IRG_A_1.pdb
 21 24 0 0 0
SMALL
GASTEIGER

@<TRIPOS>ATOM
      1  N1        23.3960  -16.6370  -10.4200 N.2   401  IRG401     -0.3231
      2  C2        23.1620  -17.3530   -9.3030 C.1   401  IRG401      0.1392
      3  N3        23.4430  -16.8300   -8.0990 N.2   401  IRG401     -0.3397
      4  C4        23.9670  -15.6070   -7.9650 C.2   401  IRG401      0.1483
      5  C5        24.2280  -14.8510   -9.1060 C.2   401  IRG401      0.0729
      6  C6        23.9230  -15.4000  -10.3600 C.2   401  IRG401      0.2137
      7  NAA       25.0990  -13.3240   -5.3830 N.pl3 401  IRG401     -0.1323
      8  CAB       21.3230  -21.1350   -9.6040 C.ar  401  IRG401      0.0000
      9  CAC       21.3810  -20.2830  -10.7050 C.ar  401  IRG401      0.0007
     10  CAD       21.9000  -20.7370   -8.3880 C.ar  401  IRG401      0.0007
     11  CAE       21.9990  -19.0340  -10.5970 C.ar  401  IRG401      0.0120
     12  CAF       22.5180  -19.4840   -8.2820 C.ar  401  IRG401      0.0120
     13  CAG       25.0590  -13.0340   -7.7090 C.3   401  IRG401      0.0710
     14  CAH       24.7620  -13.5710   -8.9680 C.2   401  IRG401     -0.0134
     15  CAI       24.2750  -15.0950   -6.7020 C.2   401  IRG401      0.0471
     16  CAJ       25.5300  -15.4340  -13.5030 C.3   401  IRG401      0.0234
     17  CAK       24.4160  -14.5360  -14.0320 C.3   401  IRG401      0.0234
     18  NAN       24.1530  -14.7140  -11.4970 N.pl3 401  IRG401     -0.2107
     19  CAO       24.8060  -13.8090   -6.5770 C.2   401  IRG401      0.0737
     20  CAP       22.5820  -18.6260   -9.3910 C.ar  401  IRG401      0.0857
     21  CAU       24.1690  -15.4160  -12.7960 C.3   401  IRG401      0.0952
@<TRIPOS>BOND
     1    17    16    1
     2    17    21    1
     3    16    21    1
     4    21    18    1
     5    18     6    1
     6     9    11   ar
     7     9     8   ar
     8    11    20   ar
     9     1     6    2
    10     1     2    2
    11     6     5    1
    12     8    10   ar
    13    20     2    1
    14    20    12   ar
    15     2     3    2
    16     5    14    2
    17     5     4    1
    18    14    13    1
    19    10    12   ar
    20     3     4    2
    21     4    15    1
    22    13    19    1
    23    15    19    2
    24    19     7    1
