@<TRIPOS>MOLECULE
4eh6_0ON_A_1.pdb
 15 16 0 0 0
SMALL
GASTEIGER

@<TRIPOS>ATOM
      1  CAG        3.4990   -1.3670   17.5540 C.ar  402  0ON402      0.0166
      2  CAC        3.8700   -2.0740   16.4210 C.ar  402  0ON402      0.0013
      3  CAB        5.2030   -2.0850   16.0340 C.ar  402  0ON402      0.0001
      4  CAD        6.1590   -1.4030   16.7760 C.ar  402  0ON402      0.0013
      5  CAH        5.8040   -0.7050   17.9200 C.ar  402  0ON402      0.0166
      6  CAN        4.4660   -0.6880   18.3050 C.ar  402  0ON402      0.0737
      7  NAL        4.1370    0.0020   19.3980 N.am  402  0ON402     -0.1754
      8  CAM        3.5890   -0.5550   20.4850 C.2   402  0ON402      0.2705
      9  OAA        3.2940   -1.7520   20.5820 O.2   402  0ON402     -0.2680
     10  CAO        3.3550    0.4420   21.6510 C.ar  402  0ON402      0.0745
     11  CAI        3.5350    0.0260   22.9760 C.ar  402  0ON402      0.0077
     12  CAE        3.3260    0.9530   23.9960 C.ar  402  0ON402      0.0208
     13  CAF        2.9500    2.2590   23.6460 C.ar  402  0ON402      0.0989
     14  NAK        2.7970    2.6310   22.3740 N.ar  402  0ON402     -0.2422
     15  CAJ        2.9910    1.7720   21.3820 C.ar  402  0ON402      0.1034
@<TRIPOS>BOND
     1     3     2   ar
     2     3     4   ar
     3     2     1   ar
     4     4     5   ar
     5     1     6   ar
     6     5     6   ar
     7     6     7    1
     8     7     8   am
     9     8     9    2
    10     8    10    1
    11    15    10   ar
    12    15    14   ar
    13    10    11   ar
    14    14    13   ar
    15    11    12   ar
    16    13    12   ar
