@<TRIPOS>MOLECULE
4eh6_IRG_A_1.pdb
 21 24 0 0 0
SMALL
GASTEIGER

@<TRIPOS>ATOM
      1  N1       -23.3980  -16.5590   10.3740 N.2   401  IRG401     -0.3270
      2  C2       -23.2400  -17.1710    9.1860 C.1   401  IRG401      0.1382
      3  N3       -23.5780  -16.5100    8.0550 N.2   401  IRG401     -0.3475
      4  C4       -24.0760  -15.2460    8.1010 C.2   401  IRG401      0.1169
      5  C5       -24.2350  -14.6070    9.3330 C.3   401  IRG401      0.1404
      6  C6       -23.8850  -15.3090   10.4840 C.2   401  IRG401      0.1984
      7  NAA      -25.2740  -12.6170    5.9080 N.2   401  IRG401     -0.1523
      8  CAB      -21.5980  -21.0630    9.1880 C.ar  401  IRG401      0.0000
      9  CAC      -21.5230  -20.2650   10.3300 C.ar  401  IRG401      0.0007
     10  CAD      -22.2270  -20.5830    8.0370 C.ar  401  IRG401      0.0007
     11  CAE      -22.0690  -18.9760   10.3170 C.ar  401  IRG401      0.0120
     12  CAF      -22.7770  -19.2960    8.0370 C.ar  401  IRG401      0.0120
     13  CAG      -25.0930  -12.6210    8.2410 C.2   401  IRG401      0.0132
     14  CAH      -24.7380  -13.3030    9.4050 C.2   401  IRG401     -0.0100
     15  CAI      -24.4400  -14.5600    6.9370 C.3   401  IRG401      0.1037
     16  CAJ      -25.6910  -15.5810   13.3730 C.3   401  IRG401      0.0234
     17  CAK      -24.6400  -14.7750   14.1380 C.3   401  IRG401      0.0234
     18  NAN      -24.0180  -14.7400   11.6860 N.pl3 401  IRG401     -0.2139
     19  CAO      -24.9420  -13.2580    7.0130 C.2   401  IRG401      0.0870
     20  CAP      -22.7090  -18.4740    9.1700 C.ar  401  IRG401      0.0856
     21  CAU      -24.2460  -15.5540   12.8850 C.3   401  IRG401      0.0949
@<TRIPOS>BOND
     1     7    19    2
     2    15    19    1
     3    15     4    1
     4    19    13    1
     5    10    12   ar
     6    10     8   ar
     7    12    20   ar
     8     3     4    2
     9     3     2    2
    10     4     5    1
    11    13    14    2
    12    20     2    1
    13    20    11   ar
    14     2     1    2
    15     8     9   ar
    16     5    14    1
    17     5     6    1
    18    11     9   ar
    19     1     6    2
    20     6    18    1
    21    18    21    1
    22    21    16    1
    23    21    17    1
    24    16    17    1
