@<TRIPOS>MOLECULE
4eh7_IRG_A_1.pdb
 21 24 0 0 0
SMALL
GASTEIGER

@<TRIPOS>ATOM
      1  N1       -23.5260  -16.5720   10.4740 N.2   401  IRG401     -0.3231
      2  C2       -23.3060  -17.3120    9.3640 C.1   401  IRG401      0.1389
      3  N3       -23.5850  -16.7890    8.1610 N.2   401  IRG401     -0.3438
      4  C4       -24.0970  -15.5550    8.0350 C.2   401  IRG401      0.1305
      5  C5       -24.3260  -14.7700    9.1650 C.2   401  IRG401      0.0691
      6  C6       -24.0460  -15.3310   10.4150 C.2   401  IRG401      0.2134
      7  NAA      -25.1630  -13.3000    5.4330 N.2   401  IRG401     -0.1566
      8  CAB      -21.5740  -21.1380    9.6480 C.ar  401  IRG401      0.0000
      9  CAC      -21.7650  -20.3720   10.7950 C.ar  401  IRG401      0.0007
     10  CAD      -21.9700  -20.6510    8.4000 C.ar  401  IRG401      0.0007
     11  CAE      -22.3430  -19.1020   10.7010 C.ar  401  IRG401      0.0120
     12  CAF      -22.5540  -19.3850    8.3160 C.ar  401  IRG401      0.0120
     13  CAG      -25.1390  -12.9660    7.7630 C.3   401  IRG401      0.0697
     14  CAH      -24.8540  -13.4820    9.0220 C.2   401  IRG401     -0.0139
     15  CAI      -24.3880  -15.0450    6.7730 C.3   401  IRG401      0.1034
     16  CAJ      -24.8010  -14.5570   13.9800 C.3   401  IRG401      0.0234
     17  CAK      -25.1850  -15.9520   13.5050 C.3   401  IRG401      0.0234
     18  NAN      -24.2160  -14.6290   11.5400 N.pl3 401  IRG401     -0.2107
     19  CAO      -24.9020  -13.7560    6.6430 C.2   401  IRG401      0.0697
     20  CAP      -22.7540  -18.6010    9.4600 C.ar  401  IRG401      0.0856
     21  CAU      -25.2840  -14.7800   12.5350 C.3   401  IRG401      0.0952
@<TRIPOS>BOND
     1     7    19    2
     2    19    15    1
     3    19    13    1
     4    15     4    1
     5    13    14    1
     6     4     3    2
     7     4     5    1
     8     3     2    2
     9    12    10   ar
    10    12    20   ar
    11    10     8   ar
    12    14     5    2
    13     5     6    1
    14     2    20    1
    15     2     1    2
    16    20    11   ar
    17     8     9   ar
    18     6     1    2
    19     6    18    1
    20    11     9   ar
    21    18    21    1
    22    21    17    1
    23    21    16    1
    24    17    16    1
