@<TRIPOS>MOLECULE
4eh7_0OO_A_1.pdb
 15 16 0 0 0
SMALL
GASTEIGER

@<TRIPOS>ATOM
      1  CAG        5.3050   -0.7910   18.9530 C.ar  402  0OO402      0.0375
      2  CAC        5.8460   -0.8530   17.6630 C.ar  402  0OO402      0.0031
      3  CAB        5.1040   -1.4610   16.6370 C.ar  402  0OO402      0.0002
      4  CAD        3.8380   -2.0030   16.8950 C.ar  402  0OO402      0.0031
      5  CAH        3.3050   -1.9310   18.1850 C.ar  402  0OO402      0.0375
      6  CAN        4.0260   -1.3130   19.2220 C.ar  402  0OO402      0.1453
      7  OAL        3.4920   -1.2610   20.5020 O.3   402  0OO402     -0.4535
      8  CAO        2.8870   -0.1280   21.0210 C.ar  402  0OO402      0.1451
      9  CAJ        2.2690   -0.2140   22.2770 C.ar  402  0OO402      0.0358
     10  CAI        2.8680    1.0970   20.3490 C.ar  402  0OO402      0.0375
     11  CAE        2.2440    2.2090   20.9190 C.ar  402  0OO402      0.0029
     12  CAF        1.6310    2.1200   22.1730 C.ar  402  0OO402     -0.0015
     13  CAM        1.6410    0.9010   22.8560 C.ar  402  0OO402      0.0136
     14  CAK        0.9700    0.7770   24.2360 C.3   402  0OO402      0.2087
     15  OAA        0.4020    2.0170   24.6780 O.3   402  0OO402     -0.2152
@<TRIPOS>BOND
     1     3     4   ar
     2     3     2   ar
     3     4     5   ar
     4     2     1   ar
     5     5     6   ar
     6     1     6   ar
     7     6     7    1
     8    10    11   ar
     9    10     8   ar
    10     7     8    1
    11    11    12   ar
    12     8     9   ar
    13    12    13   ar
    14     9    13   ar
    15    13    14    1
    16    14    15    1
