@<TRIPOS>MOLECULE
4eh8_IRG_A_1.pdb
 21 24 0 0 0
SMALL
GASTEIGER

@<TRIPOS>ATOM
      1  N1        23.3700  -16.3000  -10.1170 N.2   401  IRG401     -0.3231
      2  C2        23.0800  -17.0170   -9.0270 C.1   401  IRG401      0.1392
      3  N3        23.3040  -16.4770   -7.8260 N.2   401  IRG401     -0.3397
      4  C4        23.8380  -15.2590   -7.6560 C.2   401  IRG401      0.1483
      5  C5        24.1460  -14.4940   -8.7670 C.2   401  IRG401      0.0729
      6  C6        23.8940  -15.0660  -10.0190 C.2   401  IRG401      0.2137
      7  NAA       24.8300  -13.0510   -4.9320 N.pl3 401  IRG401     -0.1323
      8  CAB       21.1900  -20.7900   -9.2920 C.ar  401  IRG401      0.0000
      9  CAC       21.4400  -20.0420  -10.4420 C.ar  401  IRG401      0.0007
     10  CAD       21.6020  -20.3010   -8.0450 C.ar  401  IRG401      0.0007
     11  CAE       22.0760  -18.7910  -10.3630 C.ar  401  IRG401      0.0120
     12  CAF       22.2310  -19.0540   -7.9760 C.ar  401  IRG401      0.0120
     13  CAG       24.9300  -12.7030   -7.2880 C.3   401  IRG401      0.0710
     14  CAH       24.6900  -13.2120   -8.5680 C.2   401  IRG401     -0.0134
     15  CAI       24.0900  -14.7630   -6.3700 C.2   401  IRG401      0.0471
     16  CAJ       25.3850  -15.0870  -13.2520 C.3   401  IRG401      0.0234
     17  CAK       24.1040  -14.3580  -13.6740 C.3   401  IRG401      0.0234
     18  NAN       24.1620  -14.4340  -11.1480 N.pl3 401  IRG401     -0.2107
     19  CAO       24.6290  -13.4900   -6.1860 C.2   401  IRG401      0.0737
     20  CAP       22.4860  -18.2880   -9.1230 C.ar  401  IRG401      0.0857
     21  CAU       24.1150  -15.1910  -12.3990 C.3   401  IRG401      0.0952
@<TRIPOS>BOND
     1    17    16    1
     2    17    21    1
     3    16    21    1
     4    21    18    1
     5    18     6    1
     6     9    11   ar
     7     9     8   ar
     8    11    20   ar
     9     1     6    2
    10     1     2    2
    11     6     5    1
    12     8    10   ar
    13    20     2    1
    14    20    12   ar
    15     2     3    2
    16     5    14    2
    17     5     4    1
    18    14    13    1
    19    10    12   ar
    20     3     4    2
    21     4    15    1
    22    13    19    1
    23    15    19    2
    24    19     7    1
