@<TRIPOS>MOLECULE
4eh8_0OP_A_1.pdb
 16 17 0 0 0
SMALL
GASTEIGER

@<TRIPOS>ATOM
      1  CAF       -0.3890   -4.9550  -12.9420 C.ar  402  0OP402     -0.0007
      2  CAC       -1.2310   -5.2170  -14.0100 C.ar  402  0OP402     -0.0002
      3  CAB       -1.5250   -4.2320  -14.9540 C.ar  402  0OP402     -0.0000
      4  CAD       -0.9690   -2.9670  -14.8490 C.ar  402  0OP402     -0.0002
      5  CAG       -0.1150   -2.6930  -13.7970 C.ar  402  0OP402     -0.0007
      6  CAN        0.1670   -3.6810  -12.8540 C.ar  402  0OP402      0.0212
      7  CAL        1.0120   -3.3950  -11.8050 C.3   402  0OP402      0.2320
      8  OAM        1.2740   -1.9980  -11.7820 O.3   402  0OP402     -0.4707
      9  CAP        2.6080   -1.8580  -11.6800 C.ar  402  0OP402      0.1388
     10  CAJ        3.3320   -2.9530  -11.2350 C.ar  402  0OP402      0.0352
     11  CAI        3.2260   -0.6620  -12.0170 C.ar  402  0OP402      0.0369
     12  CAE        4.5940   -0.5730  -11.8870 C.ar  402  0OP402      0.0029
     13  CAH        5.3260   -1.6590  -11.4280 C.ar  402  0OP402     -0.0015
     14  CAO        4.6920   -2.8520  -11.1030 C.ar  402  0OP402      0.0136
     15  CAK        5.3680   -3.9630  -10.6800 C.3   402  0OP402      0.2087
     16  OAA        4.9960   -5.0640  -11.5330 O.3   402  0OP402     -0.2152
@<TRIPOS>BOND
     1     3     4   ar
     2     3     2   ar
     3     4     5   ar
     4     2     1   ar
     5     5     6   ar
     6     1     6   ar
     7     6     7    1
     8    11    12   ar
     9    11     9   ar
    10    12    13   ar
    11     7     8    1
    12     8     9    1
    13     9    10   ar
    14    16    15    1
    15    13    14   ar
    16    10    14   ar
    17    14    15    1
