@<TRIPOS>MOLECULE
4eh9_0OQ_A_1.pdb
 26 29 0 0 0
SMALL
GASTEIGER

@<TRIPOS>ATOM
      1  OAB       -1.0550  -11.7710   11.6880 O.2   402  0OQ402     -0.2670
      2  CAU       -1.0150  -10.8700   12.5330 C.ar  402  0OQ402      0.2607
      3  CAL        0.1300  -10.0640   12.5890 C.ar  402  0OQ402      0.0608
      4  CAF        0.2080   -9.0460   13.5370 C.ar  402  0OQ402      0.0060
      5  CAG       -0.8650   -8.8660   14.4110 C.ar  402  0OQ402      0.0130
      6  CAT       -2.0090   -9.6800   14.3440 C.ar  402  0OQ402      0.0411
      7  NAY       -2.0590  -10.6750   13.3890 N.ar  402  0OQ402     -0.2991
      8  CAP       -3.2320  -11.6110   13.2460 C.3   402  0OQ402      0.1104
      9  CAV       -4.4430  -11.2030   14.1000 C.3   402  0OQ402      0.0430
     10  CAN       -5.1980  -10.1050   13.3220 C.3   402  0OQ402      0.0956
     11  CAM       -3.9440  -10.6830   15.4740 C.3   402  0OQ402      0.0112
     12  CAW       -3.0780   -9.4080   15.2660 C.3   402  0OQ402      0.0584
     13  CAO       -4.0250   -8.2990   14.7000 C.3   402  0OQ402      0.0995
     14  NAX       -4.4740   -8.7830   13.3580 N.am  402  0OQ402     -0.2756
     15  CAQ       -4.1120   -8.1800   12.1960 C.2   402  0OQ402      0.2490
     16  OAA       -4.4440   -8.6590   11.1110 O.2   402  0OQ402     -0.2699
     17  CAR       -3.5000   -6.9090   12.1970 C.ar  402  0OQ402      0.0536
     18  CAH       -4.3520   -5.7920   12.1940 C.ar  402  0OQ402      0.0045
     19  CAJ       -3.8640   -4.4820   12.1890 C.ar  402  0OQ402      0.0040
     20  CAS       -2.4830   -4.2570   12.1730 C.ar  402  0OQ402      0.0714
     21  CAZ       -2.0040   -2.9220   12.1490 C.3   402  0OQ402      0.4186
     22  FAD       -2.6490   -2.2260   11.0760 F     402  0OQ402     -0.1659
     23  FAE       -2.2710   -2.2520   13.3410 F     402  0OQ402     -0.1659
     24  FAC       -0.7320   -2.8730   11.9580 F     402  0OQ402     -0.1659
     25  CAK       -1.6220   -5.3760   12.1520 C.ar  402  0OQ402      0.0040
     26  CAI       -2.1180   -6.6960   12.1680 C.ar  402  0OQ402      0.0045
@<TRIPOS>BOND
     1    22    21    1
     2    16    15    2
     3     1     2    2
     4    24    21    1
     5    21    20    1
     6    21    23    1
     7    25    26   ar
     8    25    20   ar
     9    26    17   ar
    10    20    19   ar
    11    19    18   ar
    12    18    17   ar
    13    15    17    1
    14    15    14   am
    15     2     3   ar
    16     2     7   ar
    17     3     4   ar
    18     8     7    1
    19     8     9    1
    20    10    14    1
    21    10     9    1
    22    14    13    1
    23     7     6   ar
    24     4     5   ar
    25     9    11    1
    26     6     5   ar
    27     6    12    1
    28    13    12    1
    29    12    11    1
