@<TRIPOS>MOLECULE
4eh9_IRG_A_1.pdb
 21 24 0 0 0
SMALL
GASTEIGER

@<TRIPOS>ATOM
      1  N1       -23.8520  -16.7760   10.3830 N.2   401  IRG401     -0.3231
      2  C2       -23.7460  -17.5030    9.2510 C.1   401  IRG401      0.1389
      3  N3       -24.0830  -16.9530    8.0600 N.2   401  IRG401     -0.3437
      4  C4       -24.5280  -15.6850    7.9810 C.2   401  IRG401      0.1309
      5  C5       -24.6510  -14.9120    9.1460 C.2   401  IRG401      0.0730
      6  C6       -24.2990  -15.5130   10.3700 C.2   401  IRG401      0.2137
      7  NAA      -25.6750  -13.3280    5.4510 N.pl3 401  IRG401     -0.1323
      8  CAB      -22.2070  -21.4020    9.5660 C.ar  401  IRG401      0.0000
      9  CAC      -22.2150  -20.5570   10.6760 C.ar  401  IRG401      0.0007
     10  CAD      -22.7130  -20.9580    8.3510 C.ar  401  IRG401      0.0007
     11  CAE      -22.7270  -19.2690   10.5620 C.ar  401  IRG401      0.0120
     12  CAF      -23.2270  -19.6650    8.2370 C.ar  401  IRG401      0.0120
     13  CAG      -25.4620  -13.0420    7.8140 C.2   401  IRG401      0.0143
     14  CAH      -25.1180  -13.5880    9.0530 C.2   401  IRG401      0.0073
     15  CAI      -24.8820  -15.1420    6.7450 C.3   401  IRG401      0.1047
     16  CAJ      -24.7600  -14.8300   14.0170 C.3   401  IRG401      0.0234
     17  CAK      -24.5540  -16.2840   13.6010 C.3   401  IRG401      0.0234
     18  NAN      -24.3530  -14.8710   11.5290 N.pl3 401  IRG401     -0.2107
     19  CAO      -25.3450  -13.8240    6.6550 C.2   401  IRG401      0.0738
     20  CAP      -23.2510  -18.8150    9.3470 C.ar  401  IRG401      0.0856
     21  CAU      -25.2070  -15.3140   12.6360 C.3   401  IRG401      0.0952
@<TRIPOS>BOND
     1     7    19    1
     2    19    15    1
     3    19    13    2
     4    15     4    1
     5    13    14    1
     6     4     3    2
     7     4     5    1
     8     3     2    2
     9    12    10   ar
    10    12    20   ar
    11    10     8   ar
    12    14     5    2
    13     5     6    1
    14     2    20    1
    15     2     1    2
    16    20    11   ar
    17     8     9   ar
    18     6     1    2
    19     6    18    1
    20    11     9   ar
    21    18    21    1
    22    21    17    1
    23    21    16    1
    24    17    16    1
