@<TRIPOS>MOLECULE
4eha_III_B_1.pdb
 37 36 0 0 0
SMALL
GASTEIGER

@<TRIPOS>ATOM
      1  C          7.2510   24.7230   15.4720 C.2     1  ACE1        0.2423
      2  O          7.7080   24.3690   14.3930 O.2     1  ACE1       -0.2733
      3  CH3        7.4060   26.1290   15.9200 C.3     1  ACE1        0.0964
      4  N          6.5790   23.8080   16.3260 N.am    2  ASP2       -0.1972
      5  CA         6.4150   22.4160   15.9310 C.3     2  ASP2        0.1839
      6  C          5.4900   22.2460   14.7650 C.2     2  ASP2        0.2622
      7  O          4.3870   22.7850   14.7000 O.2     2  ASP2       -0.2715
      8  CB         6.0340   21.5510   17.1270 C.3     2  ASP2        0.1450
      9  CG         7.0320   21.5340   18.2420 C.2     2  ASP2        0.3671
     10  OD1        8.2750   21.5380   17.9620 O.co2   2  ASP2       -0.2456
     11  OD2        6.6370   21.5340   19.4450 O.co2   2  ASP2       -0.2456
     12  N          5.9980   21.4240   13.6830 N.am    3  GLU3       -0.1963
     13  CA         5.2100   21.1760   12.4960 C.3     3  GLU3        0.1733
     14  C          5.4250   19.7150   12.1570 C.2     3  GLU3        0.2616
     15  O          6.3990   19.1370   12.6240 O.2     3  GLU3       -0.2715
     16  CB         5.6500   22.0730   11.3380 C.3     3  GLU3        0.0429
     17  CG         5.5400   23.5580   11.6190 C.3     3  GLU3        0.1163
     18  CD         6.0230   24.5170   10.5670 C.2     3  GLU3        0.3649
     19  OE1        6.5930   24.0690    9.5330 O.co2   3  GLU3       -0.2457
     20  OE2        5.8640   25.7660   10.7160 O.co2   3  GLU3       -0.2457
     21  N          4.4570   19.0700   11.2710 N.am    4  VAL4       -0.1963
     22  CA         4.6120   17.6520   10.8880 C.3     4  VAL4        0.1727
     23  C          5.1120   17.5980    9.4360 C.2     4  VAL4        0.2616
     24  O          4.8600   18.5150    8.6650 O.2     4  VAL4       -0.2715
     25  CB         3.3190   16.8810   11.1000 C.3     4  VAL4        0.0290
     26  CG1        3.0180   16.6810   12.5790 C.3     4  VAL4        0.0023
     27  CG2        2.1570   17.4440   10.3010 C.3     4  VAL4        0.0023
     28  N          5.9270   16.4600    8.9460 N.am    5  ASP5       -0.1976
     29  CA         6.4490   16.3870    7.5530 C.3     5  ASP5        0.1648
     30  C          5.5660   15.6180    6.5690 C.2     5  ASP5        0.1871
     31  O          6.1050   14.7480    5.8810 O.2     5  ASP5       -0.2929
     32  CB         7.8640   15.7880    7.6580 C.3     5  ASP5        0.1432
     33  CG         8.9130   16.8590    7.7930 C.2     5  ASP5        0.3671
     34  OD1        8.6280   17.9890    7.3180 O.co2   5  ASP5       -0.2456
     35  OD2       10.0270   16.6440    8.3590 O.co2   5  ASP5       -0.2456
     36  C1         4.0580   15.8320    6.4480 C.3     6  0QE6        0.1607
     37 CL1         2.9910   14.4550    6.2070 Cl      6  0QE6       -0.1052
@<TRIPOS>BOND
     1    31    30    2
     2    37    36    1
     3    36    30    1
     4    30    29    1
     5    34    33   ar
     6    29    32    1
     7    29    28    1
     8    32    33    1
     9    33    35   ar
    10    24    23    2
    11    28    23   am
    12    23    22    1
    13    19    18   ar
    14    27    25    1
    15    18    20   ar
    16    18    17    1
    17    22    25    1
    18    22    21    1
    19    25    26    1
    20    21    14   am
    21    16    17    1
    22    16    13    1
    23    14    13    1
    24    14    15    2
    25    13    12    1
    26    12     6   am
    27     2     1    2
    28     7     6    2
    29     6     5    1
    30     1     3    1
    31     1     4   am
    32     5     4    1
    33     5     8    1
    34     8     9    1
    35    10     9   ar
    36     9    11   ar
