@<TRIPOS>MOLECULE
4ehd_III_B_1.pdb
 37 36 0 0 0
SMALL
GASTEIGER

@<TRIPOS>ATOM
      1  C         -6.7870  -28.3830  -26.5040 C.2     1  ACE1        0.2423
      2  O         -5.6150  -28.5080  -26.1490 O.2     1  ACE1       -0.2733
      3  CH3       -7.1280  -28.1580  -27.9290 C.3     1  ACE1        0.0964
      4  N         -7.8610  -28.4450  -25.5750 N.am    2  ASP2       -0.1972
      5  CA        -7.5990  -28.6530  -24.1600 C.3     2  ASP2        0.1839
      6  C         -7.1540  -30.0550  -23.8660 C.2     2  ASP2        0.2622
      7  O         -7.7630  -31.0520  -24.2410 O.2     2  ASP2       -0.2715
      8  CB        -8.7970  -28.2140  -23.3210 C.3     2  ASP2        0.1450
      9  CG        -9.1330  -26.7540  -23.4220 C.2     2  ASP2        0.3671
     10  OD1       -8.2000  -25.9130  -23.4680 O.co2   2  ASP2       -0.2456
     11  OD2      -10.3390  -26.3710  -23.4580 O.co2   2  ASP2       -0.2456
     12  N         -5.9170  -30.1840  -23.1310 N.am    3  GLU3       -0.1963
     13  CA        -5.4180  -31.4980  -22.8030 C.3     3  GLU3        0.1733
     14  C         -5.0060  -31.4670  -21.3410 C.2     3  GLU3        0.2616
     15  O         -4.7650  -30.3980  -20.7910 O.2     3  GLU3       -0.2715
     16  CB        -4.2380  -31.8680  -23.6900 C.3     3  GLU3        0.0429
     17  CG        -4.5330  -31.8790  -25.1760 C.3     3  GLU3        0.1163
     18  CD        -3.4060  -32.3060  -26.0870 C.2     3  GLU3        0.3649
     19  OE1       -3.6490  -32.6860  -27.2760 O.co2   3  GLU3       -0.2457
     20  OE2       -2.2180  -32.2790  -25.6660 O.co2   3  GLU3       -0.2457
     21  N         -4.9090  -32.7320  -20.6250 N.am    4  VAL4       -0.1963
     22  CA        -4.5150  -32.7250  -19.2170 C.3     4  VAL4        0.1727
     23  C         -3.0570  -33.1820  -19.1380 C.2     4  VAL4        0.2616
     24  O         -2.5670  -33.9290  -19.9730 O.2     4  VAL4       -0.2715
     25  CB        -5.4450  -33.5810  -18.3720 C.3     4  VAL4        0.0290
     26  CG1       -6.8180  -32.9460  -18.1740 C.3     4  VAL4        0.0023
     27  CG2       -5.5320  -35.0060  -18.8710 C.3     4  VAL4        0.0023
     28  N         -2.2270  -32.7260  -18.0210 N.am    5  ASP5       -0.1976
     29  CA        -0.8100  -33.1270  -17.8840 C.3     5  ASP5        0.1648
     30  C         -0.5850  -34.4220  -17.0990 C.2     5  ASP5        0.1871
     31  O          0.2140  -34.4300  -16.1680 O.2     5  ASP5       -0.2929
     32  CB        -0.1150  -31.8820  -17.3090 C.3     5  ASP5        0.1432
     33  CG         0.4230  -31.0480  -18.4470 C.2     5  ASP5        0.3671
     34  OD1        0.6260  -31.6350  -19.5350 O.co2   5  ASP5       -0.2456
     35  OD2        0.6790  -29.8130  -18.3430 O.co2   5  ASP5       -0.2456
     36  C1        -1.3660  -35.6980  -17.3830 C.3     6  0QE6        0.1607
     37 CL1        -1.9890  -36.6130  -16.0190 Cl      6  0QE6       -0.1052
@<TRIPOS>BOND
     1     3     1    1
     2    19    18   ar
     3     1     2    2
     4     1     4   am
     5    18    20   ar
     6    18    17    1
     7     4     5    1
     8    17    16    1
     9     7     6    2
    10     5     6    1
    11     5     8    1
    12     6    12   am
    13    16    13    1
    14    10     9   ar
    15    11     9   ar
    16     9     8    1
    17    12    13    1
    18    13    14    1
    19    14    15    2
    20    14    21   am
    21    21    22    1
    22    24    23    2
    23    34    33   ar
    24    22    23    1
    25    22    25    1
    26    23    28   am
    27    27    25    1
    28    33    35   ar
    29    33    32    1
    30    25    26    1
    31    28    29    1
    32    29    32    1
    33    29    30    1
    34    36    30    1
    35    36    37    1
    36    30    31    2
