@<TRIPOS>MOLECULE
4ehf_III_B_1.pdb
 37 36 0 0 0
SMALL
GASTEIGER

@<TRIPOS>ATOM
      1  C         40.9490   13.9140   74.8450 C.2     1  ACE1        0.2423
      2  O         39.7780   13.7890   74.4820 O.2     1  ACE1       -0.2733
      3  CH3       41.2940   14.1460   76.2770 C.3     1  ACE1        0.0964
      4  N         42.0200   13.8570   73.9180 N.am    2  ASP2       -0.1972
      5  CA        41.7770   13.6370   72.4930 C.3     2  ASP2        0.1840
      6  C         41.3710   12.2250   72.2010 C.2     2  ASP2        0.2625
      7  O         41.9990   11.2560   72.6120 O.2     2  ASP2       -0.2715
      8  CB        42.9640   14.0650   71.6450 C.3     2  ASP2        0.1450
      9  CG        43.3140   15.5160   71.7210 C.2     2  ASP2        0.3671
     10  OD1       44.5310   15.8740   71.6900 O.co2   2  ASP2       -0.2456
     11  OD2       42.3820   16.3580   71.8160 O.co2   2  ASP2       -0.2456
     12  N         40.1710   12.0570   71.4120 N.am    3  GLU3       -0.1918
     13  CA        39.6850   10.7420   71.0850 C.3     3  GLU3        0.1949
     14  C         39.2810   10.7840   69.6230 C.2     3  GLU3        0.2659
     15  O         39.0560   11.8620   69.0730 O.2     3  GLU3       -0.2711
     16  CB        38.4900   10.4030   71.9630 C.2     3  GLU3        0.0111
     17  CG        38.7020   10.5630   73.4520 C.2     3  GLU3        0.0838
     18  CD        37.6080   10.0660   74.3610 C.2     3  GLU3        0.3877
     19  OE1       36.4580    9.8540   73.8850 O.co2   3  GLU3       -0.2406
     20  OE2       37.8380    9.8560   75.5960 O.co2   3  GLU3       -0.2406
     21  N         39.1590    9.5230   68.9170 N.am    4  VAL4       -0.1961
     22  CA        38.7700    9.5730   67.5110 C.3     4  VAL4        0.1727
     23  C         37.3280    9.0870   67.4180 C.2     4  VAL4        0.2616
     24  O         36.8460    8.3490   68.2800 O.2     4  VAL4       -0.2715
     25  CB        39.7080    8.7610   66.6370 C.3     4  VAL4        0.0290
     26  CG1       41.0670    9.4160   66.4660 C.3     4  VAL4        0.0023
     27  CG2       39.8350    7.3170   67.0670 C.3     4  VAL4        0.0023
     28  N         36.5260    9.5090   66.2680 N.am    5  ASP5       -0.1976
     29  CA        35.1190    9.0480   66.1580 C.3     5  ASP5        0.1648
     30  C         34.9090    7.7400   65.3860 C.2     5  ASP5        0.1871
     31  O         34.0950    7.7490   64.4590 O.2     5  ASP5       -0.2929
     32  CB        34.3490   10.2420   65.5710 C.3     5  ASP5        0.1432
     33  CG        33.8480   11.1370   66.6730 C.2     5  ASP5        0.3671
     34  OD1       33.6290   12.3690   66.5080 O.co2   5  ASP5       -0.2456
     35  OD2       33.6580   10.6050   67.7920 O.co2   5  ASP5       -0.2456
     36  C1        35.7230    6.4750   65.6530 C.3     6  0QE6        0.1607
     37 CL1        36.3130    5.5210   64.2900 Cl      6  0QE6       -0.1052
@<TRIPOS>BOND
     1    37    36    1
     2    31    30    2
     3    30    36    1
     4    30    29    1
     5    32    29    1
     6    32    33    1
     7    29    28    1
     8    28    23   am
     9    26    25    1
    10    34    33   ar
    11    25    27    1
    12    25    22    1
    13    33    35   ar
    14    23    22    1
    15    23    24    2
    16    22    21    1
    17    21    14   am
    18    15    14    2
    19    14    13    1
    20    13    12    1
    21    13    16    1
    22    12     6   am
    23     8     9    1
    24     8     5    1
    25    10     9   ar
    26     9    11   ar
    27    16    17    2
    28     6     5    1
    29     6     7    2
    30     5     4    1
    31    17    18    1
    32    19    18   ar
    33     4     1   am
    34    18    20   ar
    35     2     1    2
    36     1     3    1
