@<TRIPOS>MOLECULE
4ehh_III_B_1.pdb
 37 36 0 0 0
SMALL
GASTEIGER

@<TRIPOS>ATOM
      1  C         41.3410   14.0100  122.8650 C.2     1  ACE1        0.2423
      2  O         40.1610   13.9760  122.5140 O.2     1  ACE1       -0.2733
      3  CH3       41.6750   14.2160  124.2990 C.3     1  ACE1        0.0964
      4  N         42.4070   13.8600  121.9360 N.am    2  ASP2       -0.1972
      5  CA        42.0820   13.6540  120.5210 C.3     2  ASP2        0.1840
      6  C         41.6910   12.2370  120.2200 C.2     2  ASP2        0.2625
      7  O         42.3580   11.2940  120.6380 O.2     2  ASP2       -0.2715
      8  CB        43.1890   14.1510  119.5920 C.3     2  ASP2        0.1450
      9  CG        43.6010   15.5910  119.7050 C.2     2  ASP2        0.3671
     10  OD1       42.7110   16.5060  119.6970 O.co2   2  ASP2       -0.2456
     11  OD2       44.8250   15.8820  119.7880 O.co2   2  ASP2       -0.2456
     12  N         40.4750   12.0410  119.4300 N.am    3  GLU3       -0.1918
     13  CA        39.9990   10.7220  119.0740 C.3     3  GLU3        0.1949
     14  C         39.5460   10.7230  117.6100 C.2     3  GLU3        0.2659
     15  O         39.2120   11.7740  117.0770 O.2     3  GLU3       -0.2711
     16  CB        38.8580   10.3090  119.9930 C.2     3  GLU3        0.0111
     17  CG        39.1670   10.1410  121.4660 C.2     3  GLU3        0.0838
     18  CD        37.9810    9.9430  122.3830 C.2     3  GLU3        0.3877
     19  OE1       36.8060    9.9110  121.9000 O.co2   3  GLU3       -0.2406
     20  OE2       38.1420    9.8240  123.6300 O.co2   3  GLU3       -0.2406
     21  N         39.5070    9.4710  116.8550 N.am    4  VAL4       -0.1961
     22  CA        39.0720    9.5070  115.4630 C.3     4  VAL4        0.1727
     23  C         37.5920    9.0900  115.3840 C.2     4  VAL4        0.2616
     24  O         37.1160    8.3770  116.2500 O.2     4  VAL4       -0.2715
     25  CB        40.0160    8.6410  114.6410 C.3     4  VAL4        0.0290
     26  CG1       41.3660    9.3310  114.4720 C.3     4  VAL4        0.0023
     27  CG2       40.1560    7.2500  115.2230 C.3     4  VAL4        0.0023
     28  N         36.7260    9.5260  114.2720 N.am    5  ASP5       -0.1976
     29  CA        35.2950    9.1460  114.1870 C.3     5  ASP5        0.1648
     30  C         35.0460    7.8670  113.4050 C.2     5  ASP5        0.1871
     31  O         34.3040    7.8620  112.4230 O.2     5  ASP5       -0.2929
     32  CB        34.5240   10.3550  113.6400 C.3     5  ASP5        0.1432
     33  CG        34.0620   11.2680  114.7500 C.2     5  ASP5        0.3671
     34  OD1       33.8650   12.5030  114.5800 O.co2   5  ASP5       -0.2456
     35  OD2       33.8720   10.7530  115.8780 O.co2   5  ASP5       -0.2456
     36  C1        35.7640    6.6040  113.8070 C.3     6  0QE6        0.1607
     37 CL1        35.1960    5.0830  113.2010 Cl      6  0QE6       -0.1052
@<TRIPOS>BOND
     1    31    30    2
     2    37    36    1
     3    30    36    1
     4    30    29    1
     5    32    29    1
     6    32    33    1
     7    29    28    1
     8    28    23   am
     9    26    25    1
    10    34    33   ar
    11    25    27    1
    12    25    22    1
    13    33    35   ar
    14    23    22    1
    15    23    24    2
    16    22    21    1
    17    21    14   am
    18    15    14    2
    19    14    13    1
    20    13    12    1
    21    13    16    1
    22    12     6   am
    23     8     9    1
    24     8     5    1
    25    10     9   ar
    26     9    11   ar
    27    16    17    2
    28     6     5    1
    29     6     7    2
    30     5     4    1
    31    17    18    1
    32    19    18   ar
    33     4     1   am
    34    18    20   ar
    35     2     1    2
    36     1     3    1
