@<TRIPOS>MOLECULE
4ehk_III_B_1.pdb
 37 36 0 0 0
SMALL
GASTEIGER

@<TRIPOS>ATOM
      1  C         15.1790  -28.7040    3.5150 C.2     1  ACE1        0.2423
      2  O         14.3470  -28.3640    4.3640 O.2     1  ACE1       -0.2733
      3  CH3       15.6050  -30.1210    3.3410 C.3     1  ACE1        0.0964
      4  N         15.7690  -27.7540    2.6490 N.am    2  ASP2       -0.1972
      5  CA        15.4230  -26.3400    2.7330 C.3     2  ASP2        0.1839
      6  C         14.0840  -26.0780    2.1270 C.2     2  ASP2        0.2622
      7  O         13.7620  -26.5210    1.0280 O.2     2  ASP2       -0.2715
      8  CB        16.4830  -25.4670    2.0880 C.3     2  ASP2        0.1450
      9  CG        17.8640  -25.5370    2.6890 C.2     2  ASP2        0.3671
     10  OD1       18.8850  -25.4990    1.9410 O.co2   2  ASP2       -0.2456
     11  OD2       18.0010  -25.6320    3.9410 O.co2   2  ASP2       -0.2456
     12  N         13.1880  -25.2730    2.9230 N.am    3  GLU3       -0.1963
     13  CA        11.8700  -24.9540    2.4530 C.3     3  GLU3        0.1733
     14  C         11.6240  -23.4980    2.7940 C.2     3  GLU3        0.2616
     15  O         12.2940  -22.9500    3.6660 O.2     3  GLU3       -0.2715
     16  CB        10.8660  -25.8570    3.1700 C.3     3  GLU3        0.0429
     17  CG        11.0050  -27.3320    2.8660 C.3     3  GLU3        0.1163
     18  CD        10.0730  -28.2860    3.5700 C.2     3  GLU3        0.3649
     19  OE1       10.0230  -29.5050    3.2210 O.co2   3  GLU3       -0.2457
     20  OE2        9.3370  -27.8850    4.5080 O.co2   3  GLU3       -0.2457
     21  N         10.5870  -22.7800    2.0660 N.am    4  VAL4       -0.1963
     22  CA        10.3360  -21.3830    2.4150 C.3     4  VAL4        0.1727
     23  C          9.0770  -21.3300    3.2830 C.2     4  VAL4        0.2616
     24  O          8.2100  -22.2010    3.2440 O.2     4  VAL4       -0.2715
     25  CB        10.2120  -20.5190    1.1760 C.3     4  VAL4        0.0290
     26  CG1       11.5610  -20.3050    0.5150 C.3     4  VAL4        0.0023
     27  CG2        9.1280  -21.0230    0.2350 C.3     4  VAL4        0.0023
     28  N          8.8760  -20.1890    4.1840 N.am    5  ASP5       -0.1976
     29  CA         7.6710  -20.1150    5.0370 C.3     5  ASP5        0.1648
     30  C          6.5030  -19.3460    4.4160 C.2     5  ASP5        0.1871
     31  O          5.9790  -18.4290    5.0490 O.2     5  ASP5       -0.2929
     32  CB         8.1680  -19.5610    6.3840 C.3     5  ASP5        0.1432
     33  CG         8.5070  -20.6860    7.3340 C.2     5  ASP5        0.3671
     34  OD1        7.9500  -21.7930    7.1430 O.co2   5  ASP5       -0.2456
     35  OD2        9.3220  -20.5590    8.2930 O.co2   5  ASP5       -0.2456
     36  C1         6.0180  -19.6340    3.0040 C.3     6  0QE6        0.1607
     37 CL1         5.6210  -18.2720    1.9820 Cl      6  0QE6       -0.1052
@<TRIPOS>BOND
     1    27    25    1
     2    26    25    1
     3     7     6    2
     4    25    22    1
     5    10     9   ar
     6    37    36    1
     7    21    22    1
     8    21    14   am
     9     8     9    1
    10     8     5    1
    11     6     5    1
    12     6    12   am
    13    22    23    1
    14    13    14    1
    15    13    12    1
    16    13    16    1
    17     4     5    1
    18     4     1   am
    19     9    11   ar
    20    14    15    2
    21    17    16    1
    22    17    18    1
    23    36    30    1
    24    19    18   ar
    25    24    23    2
    26    23    28   am
    27     3     1    1
    28     1     2    2
    29    18    20   ar
    30    28    29    1
    31    30    29    1
    32    30    31    2
    33    29    32    1
    34    32    33    1
    35    34    33   ar
    36    33    35   ar
