@<TRIPOS>MOLECULE
4ehl_III_B_1.pdb
 37 36 0 0 0
SMALL
GASTEIGER

@<TRIPOS>ATOM
      1  C         15.1460  -28.8080    3.5460 C.2     1  ACE1        0.2423
      2  O         14.2520  -28.4600    4.3150 O.2     1  ACE1       -0.2733
      3  CH3       15.5970  -30.2370    3.4800 C.3     1  ACE1        0.0964
      4  N         15.7820  -27.8720    2.6780 N.am    2  ASP2       -0.1972
      5  CA        15.4330  -26.4540    2.6310 C.3     2  ASP2        0.1840
      6  C         14.0700  -26.2090    2.0690 C.2     2  ASP2        0.2625
      7  O         13.7420  -26.6130    0.9620 O.2     2  ASP2       -0.2715
      8  CB        16.4850  -25.6650    1.8630 C.3     2  ASP2        0.1450
      9  CG        17.8690  -25.6880    2.4510 C.2     2  ASP2        0.3671
     10  OD1       18.8830  -25.6200    1.7040 O.co2   2  ASP2       -0.2456
     11  OD2       18.0110  -25.7630    3.6930 O.co2   2  ASP2       -0.2456
     12  N         13.1520  -25.4630    2.9010 N.am    3  GLU3       -0.1918
     13  CA        11.8170  -25.1570    2.4310 C.3     3  GLU3        0.1949
     14  C         11.5440  -23.6990    2.7620 C.2     3  GLU3        0.2659
     15  O         12.2190  -23.1570    3.6220 O.2     3  GLU3       -0.2711
     16  CB        10.7630  -26.0540    3.0600 C.2     3  GLU3        0.0111
     17  CG        10.9960  -27.5340    2.8910 C.2     3  GLU3        0.0838
     18  CD        10.0170  -28.4670    3.5640 C.2     3  GLU3        0.3877
     19  OE1       10.0260  -29.6940    3.2620 O.co2   3  GLU3       -0.2406
     20  OE2        9.2050  -28.0300    4.4210 O.co2   3  GLU3       -0.2406
     21  N         10.4770  -22.9980    2.0480 N.am    4  VAL4       -0.1961
     22  CA        10.2210  -21.5890    2.3690 C.3     4  VAL4        0.1727
     23  C          8.9790  -21.5420    3.2570 C.2     4  VAL4        0.2616
     24  O          8.1320  -22.4180    3.1760 O.2     4  VAL4       -0.2715
     25  CB        10.0740  -20.7240    1.1270 C.3     4  VAL4        0.0290
     26  CG1       11.4210  -20.4750    0.4610 C.3     4  VAL4        0.0023
     27  CG2        8.9800  -21.2030    0.1940 C.3     4  VAL4        0.0023
     28  N          8.8040  -20.4290    4.2060 N.am    5  ASP5       -0.1976
     29  CA         7.6260  -20.3330    5.0970 C.3     5  ASP5        0.1648
     30  C          6.4430  -19.5670    4.5210 C.2     5  ASP5        0.1871
     31  O          5.9490  -18.6560    5.1780 O.2     5  ASP5       -0.2929
     32  CB         8.1100  -19.7470    6.4260 C.3     5  ASP5        0.1432
     33  CG         8.4370  -20.8680    7.3780 C.2     5  ASP5        0.3671
     34  OD1        7.8650  -21.9680    7.1830 O.co2   5  ASP5       -0.2456
     35  OD2        9.2400  -20.7270    8.3250 O.co2   5  ASP5       -0.2456
     36  C1         5.8900  -19.8950    3.1400 C.3     6  0QE6        0.1607
     37 CL1         5.4700  -18.6120    2.0250 Cl      6  0QE6       -0.1052
@<TRIPOS>BOND
     1    27    25    1
     2    26    25    1
     3     7     6    2
     4    25    22    1
     5    10     9   ar
     6     8     9    1
     7     8     5    1
     8    37    36    1
     9    21    22    1
    10    21    14   am
    11     6     5    1
    12     6    12   am
    13    22    23    1
    14    13    14    1
    15    13    12    1
    16    13    16    1
    17     9    11   ar
    18     5     4    1
    19     4     1   am
    20    14    15    2
    21    17    16    2
    22    17    18    1
    23    36    30    1
    24    24    23    2
    25    23    28   am
    26    19    18   ar
    27     3     1    1
    28     1     2    2
    29    18    20   ar
    30    28    29    1
    31    30    29    1
    32    30    31    2
    33    29    32    1
    34    32    33    1
    35    34    33   ar
    36    33    35   ar
