@<TRIPOS>MOLECULE
4ehm_PJA_A_1.pdb
 25 27 0 0 0
SMALL
GASTEIGER

@<TRIPOS>ATOM
      1  CAN        5.6010   18.7300   26.0670 C.3   401  PJA401      0.0376
      2  CBB        5.7420   20.2910   25.8900 C.ar  401  PJA401      0.0517
      3  CBF        5.6300   20.8440   24.5990 C.ar  401  PJA401      0.1504
      4  OAS        5.4200   19.8860   23.6480 O.3   401  PJA401     -0.4502
      5  CBE        6.2680   19.9950   22.5550 C.ar  401  PJA401      0.1858
      6  CBA        7.1290   18.9100   22.3100 C.ar  401  PJA401      0.1202
      7  CAU        7.2080   17.6530   23.1810 C.2   401  PJA401      0.3909
      8  OAH        6.5510   16.6570   22.7930 O.co2 401  PJA401     -0.2404
      9  OAE        7.9410   17.6860   24.2060 O.co2 401  PJA401     -0.2404
     10  CAL        7.9810   18.9310   21.2060 C.ar  401  PJA401      0.0464
     11  CAZ        7.9970   20.0090   20.3160 C.ar  401  PJA401      0.1380
     12  OAQ        8.8490   20.0200   19.2470 O.3   401  PJA401     -0.4716
     13  CAA        9.3310   18.7340   18.8570 C.3   401  PJA401      0.2525
     14  CAY        7.1500   21.0960   20.5540 C.ar  401  PJA401      0.0498
     15  CAD        7.1440   22.3110   19.6050 C.3   401  PJA401      0.0375
     16  CBD        6.3050   21.0750   21.6700 C.ar  401  PJA401      0.1821
     17  OAR        5.5320   22.1940   21.7570 O.3   401  PJA401     -0.4181
     18  CBC        5.6130   22.8670   22.9470 C.2   401  PJA401      0.3485
     19  OAG        5.4880   24.0840   22.8500 O.2   401  PJA401     -0.2444
     20  CBG        5.7560   22.2090   24.3480 C.ar  401  PJA401      0.1064
     21  CAW        5.9990   23.0850   25.4130 C.ar  401  PJA401     -0.0095
     22  CAC        6.1600   24.5980   25.2810 C.3   401  PJA401      0.0314
     23  CAK        6.1240   22.5750   26.6800 C.ar  401  PJA401      0.0379
     24  CAX        6.0020   21.2180   26.9200 C.ar  401  PJA401      0.1943
     25  OAJ        6.1350   20.8510   28.2180 O.3   401  PJA401     -0.2868
@<TRIPOS>BOND
     1    13    12    1
     2    12    11    1
     3    15    14    1
     4    11    14   ar
     5    11    10   ar
     6    14    16   ar
     7    10     6   ar
     8    16    17    1
     9    16     5   ar
    10    17    18    1
    11     6     5   ar
    12     6     7    1
    13     5     4    1
    14     8     7   ar
    15    19    18    2
    16    18    20    1
    17     7     9   ar
    18     4     3    1
    19    20     3   ar
    20    20    21   ar
    21     3     2   ar
    22    22    21    1
    23    21    23   ar
    24     2     1    1
    25     2    24   ar
    26    23    24   ar
    27    24    25    1
