@<TRIPOS>MOLECULE
4ehn_III_B_1.pdb
 37 36 0 0 0
SMALL
GASTEIGER

@<TRIPOS>ATOM
      1  C         41.0740   14.0480   74.9010 C.2     1  ACE1        0.2423
      2  O         39.9170   13.8600   74.5240 O.2     1  ACE1       -0.2733
      3  CH3       41.3770   14.3330   76.3390 C.3     1  ACE1        0.0964
      4  N         42.1540   13.9820   73.9890 N.am    2  ASP2       -0.1972
      5  CA        41.9040   13.7130   72.5790 C.3     2  ASP2        0.1839
      6  C         41.5170   12.2920   72.3060 C.2     2  ASP2        0.2622
      7  O         42.1790   11.3380   72.7090 O.2     2  ASP2       -0.2715
      8  CB        43.1050   14.1460   71.7450 C.3     2  ASP2        0.1450
      9  CG        43.4670   15.5990   71.8200 C.2     2  ASP2        0.3671
     10  OD1       44.6780   15.9610   71.7980 O.co2   2  ASP2       -0.2456
     11  OD2       42.5270   16.4510   71.9040 O.co2   2  ASP2       -0.2456
     12  N         40.2970   12.1030   71.5550 N.am    3  GLU3       -0.1963
     13  CA        39.8190   10.7840   71.2240 C.3     3  GLU3        0.1733
     14  C         39.4050   10.7970   69.7650 C.2     3  GLU3        0.2616
     15  O         39.1270   11.8530   69.2090 O.2     3  GLU3       -0.2715
     16  CB        38.6230   10.4180   72.0920 C.3     3  GLU3        0.0429
     17  CG        38.9130   10.4180   73.5750 C.3     3  GLU3        0.1163
     18  CD        37.7810   10.1120   74.5150 C.2     3  GLU3        0.3649
     19  OE1       36.6060    9.9930   74.0690 O.co2   3  GLU3       -0.2457
     20  OE2       38.0130    9.9640   75.7630 O.co2   3  GLU3       -0.2457
     21  N         39.3340    9.5210   69.0730 N.am    4  VAL4       -0.1963
     22  CA        38.9320    9.5200   67.6740 C.3     4  VAL4        0.1727
     23  C         37.4840    9.0400   67.6160 C.2     4  VAL4        0.2616
     24  O         37.0170    8.2950   68.4710 O.2     4  VAL4       -0.2715
     25  CB        39.8570    8.6500   66.8370 C.3     4  VAL4        0.0290
     26  CG1       41.2110    9.2780   66.5840 C.3     4  VAL4        0.0023
     27  CG2       39.9550    7.2400   67.3980 C.3     4  VAL4        0.0023
     28  N         36.6470    9.4860   66.5040 N.am    5  ASP5       -0.1976
     29  CA        35.2400    9.0410   66.4040 C.3     5  ASP5        0.1648
     30  C         35.0170    7.7290   65.6480 C.2     5  ASP5        0.1871
     31  O         34.2160    7.7460   64.7190 O.2     5  ASP5       -0.2929
     32  CB        34.4870   10.2330   65.7940 C.3     5  ASP5        0.1432
     33  CG        33.9460   11.1100   66.8930 C.2     5  ASP5        0.3671
     34  OD1       33.7230   12.3400   66.7470 O.co2   5  ASP5       -0.2456
     35  OD2       33.7260   10.5540   67.9850 O.co2   5  ASP5       -0.2456
     36  C1        35.7790    6.4420   65.9400 C.3     6  0QE6        0.1607
     37 CL1        36.3670    5.4700   64.5970 Cl      6  0QE6       -0.1052
@<TRIPOS>BOND
     1    37    36    1
     2    31    30    2
     3    30    36    1
     4    30    29    1
     5    32    29    1
     6    32    33    1
     7    29    28    1
     8    28    23   am
     9    26    25    1
    10    34    33   ar
    11    25    27    1
    12    25    22    1
    13    33    35   ar
    14    23    22    1
    15    23    24    2
    16    22    21    1
    17    21    14   am
    18    15    14    2
    19    14    13    1
    20    13    12    1
    21    13    16    1
    22    12     6   am
    23     8     9    1
    24     8     5    1
    25    10     9   ar
    26     9    11   ar
    27    16    17    1
    28     6     5    1
    29     6     7    2
    30     5     4    1
    31    17    18    1
    32     4     1   am
    33    19    18   ar
    34    18    20   ar
    35     2     1    2
    36     1     3    1
