@<TRIPOS>MOLECULE
4ehq_GBL_A_1.pdb
 12 12 0 0 0
SMALL
GASTEIGER

@<TRIPOS>ATOM
      1  CA        -3.7970  -14.0760   12.0600 C.3   205  GBL205      0.0480
      2  C         -2.4000  -14.5420   12.1170 C.2   205  GBL205      0.3072
      3  O         -2.0160  -15.6280   12.5370 O.2   205  GBL205     -0.2509
      4  CB        -3.7870  -12.7560   11.3950 C.3   205  GBL205     -0.0085
      5  CG        -2.4380  -12.7210   10.7350 C.3   205  GBL205      0.0930
      6  OD        -1.6250  -13.6250   11.4360 O.3   205  GBL205     -0.4646
      7 HAC1       -4.4170  -14.7720   11.5140 H     205  GBL205      0.0379
      8 HAC2       -4.2080  -13.9890   13.0550 H     205  GBL205      0.0379
      9 HBC1       -3.8780  -11.9620   12.1210 H     205  GBL205      0.0303
     10 HBC2       -4.5730  -12.6940   10.6570 H     205  GBL205      0.0303
     11 HGC1       -2.0290  -11.7230   10.7850 H     205  GBL205      0.0697
     12 HGC2       -2.5220  -12.9970    9.6950 H     205  GBL205      0.0697
@<TRIPOS>BOND
     1    12     5    1
     2    10     4    1
     3     5    11    1
     4     5     4    1
     5     5     6    1
     6     4     1    1
     7     4     9    1
     8     6     2    1
     9     7     1    1
    10     1     2    1
    11     1     8    1
    12     2     3    2
