@<TRIPOS>MOLECULE
4ehr_0Q5_A_1.pdb
 47 51 0 0 0
SMALL
GASTEIGER

@<TRIPOS>ATOM
      1  O4        12.2080   29.5750   10.3470 O.2   301  0Q5301      0.0000
      2  C27       13.1510   29.4840    9.5860 C.2   301  0Q5301      0.0000
      3  N3        13.6110   28.3000    9.1280 N.am  301  0Q5301      0.0000
      4  C36       14.9900   28.1950    8.6750 C.3   301  0Q5301      0.0000
      5  C35       14.9880   27.9420    7.1890 C.3   301  0Q5301      0.0000
      6  C30       14.1280   26.7540    6.8610 C.ar  301  0Q5301      0.0000
      7  C31       14.2960   26.0990    5.6400 C.ar  301  0Q5301      0.0000
      8  C32       13.4180   25.1050    5.2430 C.ar  301  0Q5301      0.0000
      9  C33       12.3770   24.7330    6.0690 C.ar  301  0Q5301      0.0000
     10  C34       12.2090   25.3520    7.3010 C.ar  301  0Q5301      0.0000
     11  C29       13.0700   26.3640    7.7160 C.ar  301  0Q5301      0.0000
     12  C28       12.8560   27.0370    9.0660 C.3   301  0Q5301      0.0000
     13  C         13.6690   30.7450    8.9360 C.ar  301  0Q5301      0.0000
     14  C5        12.9130   31.4690    7.9910 C.ar  301  0Q5301      0.0000
     15  C6        11.5630   31.0640    7.5710 C.ar  301  0Q5301      0.0000
     16  C8        11.2280   30.1730    6.5800 C.ar  301  0Q5301      0.0000
     17  C9        12.1270   29.4700    5.6150 C.3   301  0Q5301      0.0000
     18  C10       11.8290   29.6730    4.1450 C.3   301  0Q5301      0.0000
     19  C11       12.7970   28.8970    3.2820 C.3   301  0Q5301      0.0000
     20  C12       12.6080   29.1250    1.8360 C.3   301  0Q5301      0.0000
     21  N1         9.8290   29.9810    6.6830 N.ar  301  0Q5301      0.0000
     22  C13        8.9730   29.0220    6.0580 C.ar  301  0Q5301      0.0000
     23  C18        7.9260   29.4440    5.2420 C.ar  301  0Q5301      0.0000
     24  C17        7.1540   28.5010    4.5700 C.ar  301  0Q5301      0.0000
     25  C16        7.4220   27.1510    4.7060 C.ar  301  0Q5301      0.0000
     26  C15        8.4640   26.7310    5.5160 C.ar  301  0Q5301      0.0000
     27  C14        9.2340   27.6560    6.2060 C.ar  301  0Q5301      0.0000
     28  N          9.3180   30.7810    7.6910 N.ar  301  0Q5301      0.0000
     29  C7        10.3360   31.4180    8.2210 C.ar  301  0Q5301      0.0000
     30  C19       10.1550   32.4030    9.3310 C.3   301  0Q5301      0.0000
     31  O          9.7180   33.5750    8.6640 O.3   301  0Q5301      0.0000
     32  C4        13.4580   32.6220    7.4240 C.ar  301  0Q5301      0.0000
     33  C3        14.7310   33.0500    7.7700 C.ar  301  0Q5301      0.0000
     34  C2        15.4870   32.3420    8.7040 C.ar  301  0Q5301      0.0000
     35  C1        14.9500   31.1970    9.2820 C.ar  301  0Q5301      0.0000
     36  C20       16.8180   32.8330    9.1730 C.2   301  0Q5301      0.0000
     37  O1        17.6700   32.0730    9.6450 O.2   301  0Q5301      0.0000
     38  N2        17.0050   34.2050    9.1390 N.am  301  0Q5301      0.0000
     39  S         18.4390   34.8220    9.6370 S.O2  301  0Q5301      0.0000
     40  O2        18.3120   36.2480    9.6220 O.2   301  0Q5301      0.0000
     41  O3        18.8230   34.1660   10.8480 O.2   301  0Q5301      0.0000
     42  C21       19.4480   34.3260    8.3240 C.3   301  0Q5301      0.0000
     43  C22       20.9000   34.7070    8.6040 C.3   301  0Q5301      0.0000
     44 SI1        22.1080   34.2450    7.2210 Si    301  0Q5301      0.0000
     45  C26       21.5670   35.0350    5.5950 C.3   301  0Q5301      0.0000
     46  C25       22.1760   32.3700    7.0230 C.3   301  0Q5301      0.0000
     47  C24       23.8220   34.8850    7.6970 C.3   301  0Q5301      0.0000
@<TRIPOS>BOND
     1    20    19    1
     2    19    18    1
     3    18    17    1
     4    24    25   ar
     5    24    23   ar
     6    25    26   ar
     7    23    22   ar
     8     8     7   ar
     9     8     9   ar
    10    26    27   ar
    11    45    44    1
    12    17    16    1
    13     7     6   ar
    14    22    27   ar
    15    22    21    1
    16     9    10   ar
    17    16    21   ar
    18    16    15   ar
    19    21    28   ar
    20     6     5    1
    21     6    11   ar
    22    46    44    1
    23     5     4    1
    24    44    47    1
    25    44    43    1
    26    10    11   ar
    27    32    33   ar
    28    32    14   ar
    29    15    14    1
    30    15    29   ar
    31    28    29   ar
    32    11    12    1
    33    33    34   ar
    34    14    13   ar
    35    29    30    1
    36    42    43    1
    37    42    39    1
    38    31    30    1
    39     4     3    1
    40    34    36    1
    41    34    35   ar
    42    13    35   ar
    43    13     2    1
    44    12     3    1
    45     3     2   am
    46    38    36   am
    47    38    39    1
    48    36    37    2
    49     2     1    2
    50    40    39    2
    51    39    41    2
