@<TRIPOS>MOLECULE
4eht_ADP_A_1.pdb
 27 29 0 0 0
SMALL
GASTEIGER

@<TRIPOS>ATOM
      1  PB        12.2730   63.2360   14.6240 P.3   302  ADP302      0.5373
      2  O1B       10.9050   62.9810   14.0740 O.2   302  ADP302     -0.2221
      3  O2B       12.3580   64.2980   15.6860 O.3   302  ADP302     -0.1143
      4  O3B       13.0360   62.0110   15.0660 O.3   302  ADP302     -0.1143
      5  PA        14.0710   63.0180   12.3460 P.3   302  ADP302      0.2231
      6  O1A       13.2020   61.9770   11.7030 O.2   302  ADP302     -0.5169
      7  O2A       15.3460   62.5980   13.0150 O.3   302  ADP302     -0.4370
      8  O3A       13.1090   63.8610   13.3670 O.3   302  ADP302     -0.2261
      9  O5'       14.4190   64.1030   11.2380 O.3   302  ADP302     -0.3111
     10  C5'       13.4010   64.8710   10.6300 C.3   302  ADP302      0.1813
     11  C4'       14.0880   65.9520    9.8060 C.3   302  ADP302      0.1821
     12  O4'       14.9560   65.3950    8.8120 O.3   302  ADP302     -0.3135
     13  C3'       13.0480   66.7890    9.0730 C.3   302  ADP302      0.2184
     14  O3'       13.1900   68.1490    9.4720 O.3   302  ADP302     -0.2174
     15  C2'       13.3760   66.5670    7.6070 C.3   302  ADP302      0.2570
     16  O2'       13.1360   67.6800    6.7500 O.3   302  ADP302     -0.2130
     17  C1'       14.8390   66.1700    7.6180 C.3   302  ADP302      0.3186
     18  N9        15.0820   65.3240    6.4460 N.pl3 302  ADP302     -0.1439
     19  C8        14.3620   64.2160    6.1790 C.3   302  ADP302      0.3377
     20  N7        14.8040   63.6260    5.0410 N.2   302  ADP302     -0.2095
     21  C5        15.8250   64.3730    4.5610 C.2   302  ADP302      0.2526
     22  C6        16.7160   64.2990    3.3820 C.2   302  ADP302      0.4393
     23  N6        16.5700   63.2710    2.5060 N.pl3 302  ADP302      0.2180
     24  N1        17.6650   65.2630    3.2290 N.2   302  ADP302      0.0021
     25  C2        17.7700   66.2730    4.1270 C.3   302  ADP302      0.5254
     26  N3        16.9760   66.4060    5.2210 N.2   302  ADP302     -0.0055
     27  C4        16.0010   65.5020    5.4910 C.2   302  ADP302      0.3518
@<TRIPOS>BOND
     1    23    22    1
     2    24    22    2
     3    24    25    1
     4    22    21    1
     5    25    26    1
     6    21    20    2
     7    21    27    1
     8    20    19    1
     9    26    27    2
    10    27    18    1
    11    19    18    1
    12    18    17    1
    13    16    15    1
    14    15    17    1
    15    15    13    1
    16    17    12    1
    17    12    11    1
    18    13    14    1
    19    13    11    1
    20    11    10    1
    21    10     9    1
    22     9     5    1
    23     6     5    2
    24     5     7    1
    25     5     8    1
    26     8     1    1
    27     2     1    2
    28     1     4    1
    29     1     3    1
