@<TRIPOS>MOLECULE
4ehu_ANP_A_1.pdb
 42 44 0 0 0
SMALL
GASTEIGER

@<TRIPOS>ATOM
      1  PG        20.4260  -13.7760  -16.1200 P.3   302  ANP302      0.4710
      2  O1G       21.6610  -14.0590  -16.9670 O.2   302  ANP302     -0.2347
      3  O2G       19.3680  -14.8200  -16.3740 O.3   302  ANP302     -0.1250
      4  O3G       19.9240  -12.3940  -16.2720 O.3   302  ANP302     -0.1250
      5  PB        20.8310  -15.1980  -13.4750 P.3   302  ANP302      0.4495
      6  O1B       22.1400  -15.5170  -12.8020 O.3   302  ANP302     -0.1263
      7  O2B       20.0910  -16.3740  -14.1150 O.2   302  ANP302     -0.2367
      8  N3B       21.0830  -13.8560  -14.5370 N.3   302  ANP302     -0.1200
      9  PA        18.9140  -15.4320  -11.3040 P.3   302  ANP302      0.2213
     10  O1A       19.7620  -16.4700  -10.6570 O.3   302  ANP302     -0.4371
     11  O2A       17.6480  -15.7990  -12.0460 O.2   302  ANP302     -0.5170
     12  O3A       19.8250  -14.5890  -12.3470 O.3   302  ANP302     -0.2370
     13  O5'       18.5230  -14.2530  -10.2840 O.3   302  ANP302     -0.3245
     14  C5'       19.5450  -13.4640   -9.6660 C.3   302  ANP302      0.0836
     15  C4'       18.8970  -12.5410   -8.6390 C.3   302  ANP302      0.1131
     16  O4'       17.7520  -12.9950   -7.9320 O.3   302  ANP302     -0.3474
     17  C3'       19.5970  -11.3960   -7.9310 C.3   302  ANP302      0.1133
     18  O3'       19.9340  -10.3490   -8.8520 O.3   302  ANP302     -0.3864
     19  C2'       18.5800  -11.0050   -6.8530 C.3   302  ANP302      0.1266
     20  O2'       17.9410   -9.7460   -7.1280 O.3   302  ANP302     -0.3849
     21  C1'       17.5220  -12.1080   -6.8320 C.3   302  ANP302      0.1617
     22  N9        17.5750  -12.9560   -5.6270 N.pl3 302  ANP302     -0.2234
     23  C8        18.4870  -13.9090   -5.3450 C.2   302  ANP302      0.1451
     24  N7        18.1890  -14.5270   -4.1750 N.2   302  ANP302     -0.3870
     25  C5        17.0520  -13.9500   -3.7130 C.2   302  ANP302      0.2246
     26  C6        16.1830  -14.1240   -2.5470 C.2   302  ANP302      0.2641
     27  N6        16.5060  -15.0500   -1.6120 N.pl3 302  ANP302     -0.0893
     28  N1        15.0850  -13.3320   -2.4480 N.2   302  ANP302     -0.3260
     29  C2        14.7640  -12.4170   -3.3740 C.1   302  ANP302      0.0931
     30  N3        15.5200  -12.1980   -4.4610 N.2   302  ANP302     -0.3287
     31  C4        16.6430  -12.9280   -4.6760 C.2   302  ANP302      0.2355
     32 HNB1       21.6430  -13.0830  -14.2090 H     302  ANP302      0.1458
     33 H5'1       20.2720  -14.1140   -9.1760 H     302  ANP302      0.0591
     34 H5'2       20.0660  -12.8720  -10.4210 H     302  ANP302      0.0591
     35  H4'       19.4850  -13.1590   -7.9470 H     302  ANP302      0.0647
     36  H3'       20.5040  -11.7790   -7.4440 H     302  ANP302      0.0647
     37 HO3'       20.3060   -9.6000   -8.3660 H     302  ANP302      0.2100
     38  H2'       19.0840  -10.9720   -5.8770 H     302  ANP302      0.0663
     39 HO2'       17.2560   -9.5810   -6.4660 H     302  ANP302      0.2101
     40  H1'       16.5280  -11.6480   -6.9230 H     302  ANP302      0.0841
     41  H8        19.3470  -14.1390   -5.9600 H     302  ANP302      0.1149
     42  H2        13.8760  -11.8140   -3.2260 H     302  ANP302      0.1751
@<TRIPOS>BOND
     1     2     1    2
     2     3     1    1
     3     4     1    1
     4     1     8    1
     5     8    32    1
     6     8     5    1
     7     7     5    2
     8     5     6    1
     9     5    12    1
    10    12     9    1
    11    11     9    2
    12     9    10    1
    13     9    13    1
    14    34    14    1
    15    13    14    1
    16    14    33    1
    17    14    15    1
    18    18    37    1
    19    18    17    1
    20    15    35    1
    21    15    16    1
    22    15    17    1
    23    16    21    1
    24    17    36    1
    25    17    19    1
    26    20    19    1
    27    20    39    1
    28    40    21    1
    29    19    21    1
    30    19    38    1
    31    21    22    1
    32    41    23    1
    33    22    23    1
    34    22    31    1
    35    23    24    2
    36    31    30    2
    37    31    25    1
    38    30    29    2
    39    24    25    2
    40    25    26    1
    41    29    42    1
    42    29    28    2
    43    26    28    2
    44    26    27    1
