@<TRIPOS>MOLECULE
4ehv_IRG_A_1.pdb
 21 24 0 0 0
SMALL
GASTEIGER

@<TRIPOS>ATOM
      1  N1       -23.0640  -16.9040   10.0560 N.2   403  IRG403     -0.3231
      2  C2       -22.8150  -17.5840    8.9260 C.1   403  IRG403      0.1389
      3  N3       -23.1430  -17.0790    7.7260 N.2   403  IRG403     -0.3438
      4  C4       -23.7360  -15.8790    7.6290 C.2   403  IRG403      0.1305
      5  C5       -24.0000  -15.1610    8.7850 C.2   403  IRG403      0.0691
      6  C6       -23.6520  -15.7050   10.0100 C.2   403  IRG403      0.2134
      7  NAA      -25.0220  -13.5830    5.1360 N.2   403  IRG403     -0.1566
      8  CAB      -20.8690  -21.2560    9.1330 C.ar  403  IRG403      0.0000
      9  CAC      -20.9100  -20.4310   10.2500 C.ar  403  IRG403      0.0007
     10  CAD      -21.4870  -20.8690    7.9470 C.ar  403  IRG403      0.0007
     11  CAE      -21.5640  -19.2100   10.1780 C.ar  403  IRG403      0.0120
     12  CAF      -22.1330  -19.6420    7.8730 C.ar  403  IRG403      0.0120
     13  CAG      -24.9590  -13.3820    7.4800 C.3   403  IRG403      0.0697
     14  CAH      -24.6110  -13.9170    8.7130 C.2   403  IRG403     -0.0139
     15  CAI      -24.0720  -15.3410    6.3950 C.3   403  IRG403      0.1034
     16  CAJ      -24.5670  -14.9710   13.5660 C.3   403  IRG403      0.0234
     17  CAK      -23.7510  -16.2480   13.3400 C.3   403  IRG403      0.0234
     18  NAN      -23.9040  -15.0370   11.1300 N.pl3 403  IRG403     -0.2107
     19  CAO      -24.6910  -14.0980    6.3180 C.2   403  IRG403      0.0697
     20  CAP      -22.1850  -18.8200    8.9960 C.ar  403  IRG403      0.0856
     21  CAU      -24.6310  -15.6950   12.2220 C.3   403  IRG403      0.0952
@<TRIPOS>BOND
     1     7    19    2
     2    19    15    1
     3    19    13    1
     4    15     4    1
     5    13    14    1
     6     4     3    2
     7     4     5    1
     8     3     2    2
     9    12    10   ar
    10    12    20   ar
    11    10     8   ar
    12    14     5    2
    13     5     6    1
    14     2    20    1
    15     2     1    2
    16    20    11   ar
    17     8     9   ar
    18     6     1    2
    19     6    18    1
    20    11     9   ar
    21    18    21    1
    22    21    17    1
    23    21    16    1
    24    17    16    1
