@<TRIPOS>MOLECULE
4ehv_0SJ_A_1.pdb
 23 26 0 0 0
SMALL
GASTEIGER

@<TRIPOS>ATOM
      1  OAB       -0.7810  -11.3950   11.9250 O.2   401  0SJ401     -0.2670
      2  CAU       -0.7130  -10.4360   12.7100 C.ar  401  0SJ401      0.2607
      3  CAL        0.4520   -9.6660   12.7670 C.ar  401  0SJ401      0.0608
      4  CAF        0.5230   -8.5960   13.6560 C.ar  401  0SJ401      0.0060
      5  CAG       -0.5740   -8.3140   14.4670 C.ar  401  0SJ401      0.0130
      6  CAT       -1.7290   -9.1040   14.3960 C.ar  401  0SJ401      0.0411
      7  NAY       -1.7690  -10.1460   13.5070 N.ar  401  0SJ401     -0.2991
      8  CAP       -2.9550  -11.0480   13.3660 C.3   401  0SJ401      0.1104
      9  CAV       -4.1840  -10.5230   14.0790 C.3   401  0SJ401      0.0430
     10  CAN       -4.8260   -9.4360   13.2090 C.3   401  0SJ401      0.0956
     11  CAM       -3.7580   -9.9720   15.4550 C.3   401  0SJ401      0.0112
     12  CAW       -2.8240   -8.7600   15.2500 C.3   401  0SJ401      0.0584
     13  CAO       -3.6680   -7.6360   14.6030 C.3   401  0SJ401      0.0995
     14  NAX       -4.0870   -8.1280   13.2610 N.am  401  0SJ401     -0.2756
     15  CAQ       -3.7520   -7.5100   12.1020 C.2   401  0SJ401      0.2490
     16  OAA       -4.0760   -7.9970   11.0140 O.2   401  0SJ401     -0.2699
     17  CAR       -3.1100   -6.2630   12.0540 C.ar  401  0SJ401      0.0536
     18  CAH       -3.8990   -5.1080   12.0220 C.ar  401  0SJ401      0.0054
     19  CAJ       -3.3230   -3.8390   11.9390 C.ar  401  0SJ401      0.0115
     20  CAS       -1.9340   -3.7230   11.8670 C.ar  401  0SJ401      0.0577
     21 CL1        -1.1950   -2.1570   11.7510 Cl    401  0SJ401     -0.0822
     22  CAK       -1.1380   -4.8700   11.8840 C.ar  401  0SJ401      0.0115
     23  CAI       -1.7200   -6.1400   11.9640 C.ar  401  0SJ401      0.0054
@<TRIPOS>BOND
     1    16    15    2
     2    21    20    1
     3    20    22   ar
     4    20    19   ar
     5    22    23   ar
     6     1     2    2
     7    19    18   ar
     8    23    17   ar
     9    18    17   ar
    10    17    15    1
    11    15    14   am
    12     2     3   ar
    13     2     7   ar
    14     3     4   ar
    15    10    14    1
    16    10     9    1
    17    14    13    1
    18     8     7    1
    19     8     9    1
    20     7     6   ar
    21     4     5   ar
    22     9    11    1
    23     6     5   ar
    24     6    12    1
    25    13    12    1
    26    12    11    1
