@<TRIPOS>MOLECULE
4ehy_ADP_A_1.pdb
 27 29 0 0 0
SMALL
GASTEIGER

@<TRIPOS>ATOM
      1  PB         6.3110   -3.7660   -3.8990 P.3   401  ADP401      0.5373
      2  O1B        7.6060   -3.0630   -4.2190 O.3   401  ADP401     -0.1143
      3  O2B        5.1470   -3.3390   -4.7650 O.2   401  ADP401     -0.2221
      4  O3B        6.4660   -5.2720   -3.8700 O.3   401  ADP401     -0.1143
      5  PA         6.7090   -3.0310   -1.0710 P.3   401  ADP401      0.2231
      6  O1A        5.6120   -3.1120   -0.0460 O.3   401  ADP401     -0.4370
      7  O2A        7.6270   -1.8420   -1.1070 O.2   401  ADP401     -0.5169
      8  O3A        5.8710   -3.2430   -2.4460 O.3   401  ADP401     -0.2261
      9  O5'        7.6460   -4.3140   -0.8970 O.3   401  ADP401     -0.3111
     10  C5'        7.0770   -5.6080   -0.7850 C.3   401  ADP401      0.1813
     11  C4'        7.8440   -6.3250    0.3200 C.3   401  ADP401      0.1821
     12  O4'        7.8680   -5.5080    1.5160 O.3   401  ADP401     -0.3135
     13  C3'        7.1070   -7.5900    0.6870 C.3   401  ADP401      0.2184
     14  O3'        7.6140   -8.6840   -0.0720 O.3   401  ADP401     -0.2174
     15  C2'        7.3800   -7.7380    2.1660 C.3   401  ADP401      0.2570
     16  O2'        8.6560   -8.3630    2.3300 O.3   401  ADP401     -0.2130
     17  C1'        7.5150   -6.3090    2.6530 C.3   401  ADP401      0.3186
     18  N9         6.1980   -5.8430    3.1580 N.pl3 401  ADP401     -0.1439
     19  C8         5.4560   -4.8520    2.6270 C.3   401  ADP401      0.3377
     20  N7         4.3150   -4.6500    3.3370 N.2   401  ADP401     -0.2095
     21  C5         4.3220   -5.5280    4.3580 C.2   401  ADP401      0.2526
     22  C6         3.4140   -5.8500    5.4860 C.2   401  ADP401      0.4393
     23  N6         2.2310   -5.1840    5.6750 N.pl3 401  ADP401      0.2180
     24  N1         3.8100   -6.8360    6.3180 N.2   401  ADP401      0.0021
     25  C2         4.9660   -7.5070    6.1530 C.3   401  ADP401      0.5254
     26  N3         5.8300   -7.2710    5.1510 N.2   401  ADP401     -0.0055
     27  C4         5.5670   -6.3030    4.2400 C.2   401  ADP401      0.3518
@<TRIPOS>BOND
     1     3     1    2
     2     2     1    1
     3     1     4    1
     4     1     8    1
     5     8     5    1
     6     7     5    2
     7     5     9    1
     8     5     6    1
     9     9    10    1
    10    10    11    1
    11    14    13    1
    12    11    13    1
    13    11    12    1
    14    13    15    1
    15    12    17    1
    16    15    16    1
    17    15    17    1
    18    19    18    1
    19    19    20    1
    20    17    18    1
    21    18    27    1
    22    20    21    2
    23    27    21    1
    24    27    26    2
    25    21    22    1
    26    26    25    1
    27    22    23    1
    28    22    24    2
    29    25    24    1
