@<TRIPOS>MOLECULE
4ehz_JAK_A_1.pdb
 19 22 0 0 0
SMALL
GASTEIGER

@<TRIPOS>ATOM
      1  C1         9.0250   56.7440   -0.4570 C.3   1201  JAK1201     0.0840
      2  C2         7.8940   57.7420   -0.2550 C.2   1201  JAK1201     0.1639
      3  N3         7.9570   58.9710   -0.6380 N.2   1201  JAK1201    -0.3922
      4  C4         6.8210   59.6150   -0.3260 C.2   1201  JAK1201     0.1497
      5  C5         6.4120   60.9300   -0.5330 C.3   1201  JAK1201     0.1961
      6  N6         5.2400   61.3230   -0.1200 N.2   1201  JAK1201    -0.2122
      7  C7         4.3730   60.5150    0.4950 C.1   1201  JAK1201     0.0326
      8  C8         4.7130   59.1670    0.7370 C.2   1201  JAK1201     0.0796
      9  C9         5.9770   58.6880    0.3220 C.2   1201  JAK1201     0.0903
     10  N10        6.6890   57.4990    0.3410 N.pl3 1201  JAK1201    -0.2653
     11  C11        6.3260   56.1840    0.9120 C.3   1201  JAK1201     0.0822
     12  C12        6.0470   56.3520    2.4070 C.3   1201  JAK1201     0.0390
     13  C13        5.8160   54.9740    3.0270 C.3   1201  JAK1201     0.0904
     14  N14        4.7110   54.2700    2.3530 N.3   1201  JAK1201    -0.2179
     15  C15        4.9070   54.1420    0.9070 C.3   1201  JAK1201     0.0904
     16  C16        5.1090   55.5140    0.2590 C.3   1201  JAK1201     0.0390
     17  C17        3.5410   58.6020    1.4130 C.2   1201  JAK1201     0.0328
     18  C18        2.6230   59.5770    1.5360 C.2   1201  JAK1201     0.1103
     19  N19        3.1000   60.7340    0.9940 N.2   1201  JAK1201    -0.1925
@<TRIPOS>BOND
     1     3     4    2
     2     3     2    2
     3     5     4    1
     4     5     6    1
     5     1     2    1
     6     4     9    1
     7     2    10    1
     8     6     7    2
     9    16    15    1
    10    16    11    1
    11     9    10    1
    12     9     8    2
    13    10    11    1
    14     7     8    1
    15     7    19    2
    16     8    17    1
    17    15    14    1
    18    11    12    1
    19    19    18    1
    20    17    18    2
    21    14    13    1
    22    12    13    1
