@<TRIPOS>MOLECULE
4ei3_TRP_A_1.pdb
 14 15 0 0 0
SMALL
GASTEIGER

@<TRIPOS>ATOM
      1  N         -0.6630   34.1550   55.0280 N.3   901  TRP901     -0.1241
      2  CA        -1.5810   34.2740   56.1950 C.3   901  TRP901      0.1605
      3  C         -1.8410   35.6730   56.6340 C.2   901  TRP901      0.2264
      4  O         -2.7480   36.2790   56.0550 O.2   901  TRP901     -0.2867
      5  CB        -1.1540   33.3740   57.3580 C.3   901  TRP901      0.0550
      6  CG        -2.2030   32.3000   57.5590 C.2   901  TRP901     -0.0000
      7  CD1       -2.8990   31.9850   58.7380 C.2   901  TRP901      0.0946
      8  CD2       -2.7870   31.4250   56.5170 C.2   901  TRP901      0.0113
      9  NE1       -3.8030   30.9790   58.5110 N.2   901  TRP901     -0.2442
     10  CE2       -3.7940   30.6040   57.1890 C.2   901  TRP901      0.0804
     11  CE3       -2.5590   31.2290   55.1510 C.2   901  TRP901     -0.0202
     12  CZ2       -4.5310   29.6320   56.4960 C.2   901  TRP901      0.0148
     13  CZ3       -3.3070   30.2530   54.4720 C.3   901  TRP901      0.0521
     14  CH2       -4.2720   29.4820   55.1300 C.2   901  TRP901     -0.0199
@<TRIPOS>BOND
     1    13    14    1
     2    13    11    1
     3     1     2    1
     4    14    12    2
     5    11     8    2
     6     4     3    2
     7     2     3    1
     8     2     5    1
     9    12    10    1
    10     8    10    1
    11     8     6    1
    12    10     9    2
    13     5     6    1
    14     6     7    2
    15     9     7    1
