@<TRIPOS>MOLECULE
4ei4_0Q2_A_1.pdb
 20 23 0 0 0
SMALL
GASTEIGER

@<TRIPOS>ATOM
      1  C1        10.2940   56.7550   -0.5130 C.3   1201  0Q21201     0.0840
      2  C2         9.1330   57.7010   -0.2740 C.2   1201  0Q21201     0.1639
      3  N3         9.1270   58.9600   -0.6400 N.2   1201  0Q21201    -0.3922
      4  C4         7.9630   59.5520   -0.2730 C.2   1201  0Q21201     0.1497
      5  C5         7.4540   60.8580   -0.3970 C.3   1201  0Q21201     0.1961
      6  N6         6.2540   61.1740    0.0550 N.2   1201  0Q21201    -0.2122
      7  C7         5.4810   60.2620    0.6500 C.1   1201  0Q21201     0.0326
      8  C8         5.9140   58.9270    0.8260 C.2   1201  0Q21201     0.0796
      9  C9         7.1870   58.5520    0.3660 C.2   1201  0Q21201     0.0903
     10  N10        7.9500   57.3840    0.3400 N.pl3 1201  0Q21201    -0.2653
     11  C11        7.5940   56.0600    0.8720 C.3   1201  0Q21201     0.0818
     12  C13        6.4090   55.4710    0.0820 C.3   1201  0Q21201     0.0203
     13  C14        6.1490   54.0240    0.5280 C.3   1201  0Q21201     0.0043
     14  C15        5.9330   53.9530    2.0540 C.3   1201  0Q21201     0.0330
     15  C16        7.0040   54.6900    2.9040 C.3   1201  0Q21201     0.1537
     16  C18        7.2940   56.1100    2.3900 C.3   1201  0Q21201     0.0530
     17  O19        8.2230   53.9390    2.9360 O.3   1201  0Q21201    -0.2231
     18  C20        4.8240   58.2190    1.5110 C.2   1201  0Q21201     0.0328
     19  C21        3.8540   59.1060    1.7010 C.2   1201  0Q21201     0.1103
     20  N22        4.2330   60.3310    1.1940 N.2   1201  0Q21201    -0.1925
@<TRIPOS>BOND
     1     3     2    2
     2     3     4    2
     3     1     2    1
     4     5     4    1
     5     5     6    1
     6     2    10    1
     7     4     9    1
     8     6     7    2
     9    12    13    1
    10    12    11    1
    11    10     9    1
    12    10    11    1
    13     9     8    2
    14    13    14    1
    15     7     8    1
    16     7    20    2
    17     8    18    1
    18    11    16    1
    19    20    19    1
    20    18    19    2
    21    14    15    1
    22    16    15    1
    23    15    17    1
