@<TRIPOS>MOLECULE
4ei5_CIS_E_1.pdb
 34 34 0 0 0
SMALL
GASTEIGER

@<TRIPOS>ATOM
      1  C7        13.9840  -15.9980  -69.1350 C.3   407  CIS407      0.0000
      2  C6        14.4480  -15.5760  -67.7400 C.3   407  CIS407      0.0000
      3  C5        13.5530  -15.9200  -66.5400 C.3   407  CIS407      0.0001
      4  C4        13.5240  -14.8360  -65.4550 C.3   407  CIS407      0.0027
      5  C3        13.1500  -15.2220  -64.1550 C.3   407  CIS407      0.0348
      6  C2        12.4860  -14.2830  -63.1060 C.3   407  CIS407      0.1743
      7  O1        11.1040  -14.3590  -63.2550 O.3   407  CIS407     -0.2212
      8  C1        12.8240  -14.5410  -61.6130 C.3   407  CIS407      0.1550
      9  C         12.3500  -13.4310  -60.6510 C.3   407  CIS407      0.1690
     10  O         13.0260  -12.1820  -60.7000 O.3   407  CIS407     -0.3266
     11  C43       13.0090  -11.2640  -59.5010 C.3   407  CIS407      0.2695
     12  C44       14.2480  -10.3920  -59.3310 C.3   407  CIS407      0.2397
     13  O3        15.2600  -11.2870  -59.0300 O.3   407  CIS407     -0.2149
     14  O6        11.6810  -10.4930  -59.3060 O.3   407  CIS407     -0.3256
     15  C47       11.6950   -9.6110  -58.2140 C.3   407  CIS407      0.1835
     16  C48       10.3810   -8.9510  -57.9360 C.3   407  CIS407      0.2142
     17  O7         9.4810   -9.6750  -57.1700 O.3   407  CIS407     -0.2176
     18  C46       12.8420   -8.5910  -58.3020 C.3   407  CIS407      0.2135
     19  O5        12.7250   -7.7950  -59.4460 O.3   407  CIS407     -0.2176
     20  C45       14.1550   -9.3700  -58.3140 C.3   407  CIS407      0.2111
     21  O4        15.2590   -8.4630  -58.3650 O.3   407  CIS407     -0.2382
     22  S         15.9520   -7.9360  -57.1460 S.3   407  CIS407     -0.0001
     23  O10       16.2080   -8.9700  -56.1300 O.3   407  CIS407     -0.2682
     24  O9        17.1780   -7.2720  -57.5530 O.2   407  CIS407     -0.3452
     25  O8        15.2500   -6.8430  -56.5230 O.2   407  CIS407     -0.3452
     26  N         14.2100  -14.9090  -61.3890 N.am  407  CIS407     -0.2020
     27  C18       14.6400  -16.0780  -60.6440 C.2   407  CIS407      0.2418
     28  O2        13.8340  -16.8270  -60.1110 O.2   407  CIS407     -0.2733
     29  C19       16.1330  -16.3800  -60.5210 C.3   407  CIS407      0.0915
     30  C20       16.6540  -17.7250  -61.0240 C.3   407  CIS407      0.0353
     31  C21       16.0330  -18.3630  -62.2750 C.2   407  CIS407     -0.0302
     32  C22       16.7150  -19.6080  -62.8490 C.2   407  CIS407     -0.0307
     33  C23       16.1960  -20.2050  -64.1460 C.3   407  CIS407      0.0257
     34  C24       16.3270  -21.6950  -64.3120 C.3   407  CIS407      0.0050
@<TRIPOS>BOND
     1     1     2    1
     2     2     3    1
     3     3     4    1
     4     4     5    1
     5    34    33    1
     6     5     6    1
     7    33    32    1
     8     7     6    1
     9     6     8    1
    10    32    31    2
    11    31    30    1
    12     8    26    1
    13     8     9    1
    14    26    27   am
    15    30    29    1
    16    10     9    1
    17    10    11    1
    18    27    29    1
    19    27    28    2
    20    11    12    1
    21    11    14    1
    22    19    18    1
    23    12    13    1
    24    12    20    1
    25    14    15    1
    26    21    20    1
    27    21    22    1
    28    20    18    1
    29    18    15    1
    30    15    16    1
    31    16    17    1
    32    24    22    2
    33    22    25    2
    34    22    23    1
