@<TRIPOS>MOLECULE
4ei7_GDP_A_1.pdb
 28 30 0 0 0
SMALL
GASTEIGER

@<TRIPOS>ATOM
      1  PB        14.4320   32.7390   53.9690 P.3   500  GDP500      0.5373
      2  O1B       13.6240   33.9970   54.2330 O.3   500  GDP500     -0.1143
      3  O2B       13.8800   31.9880   52.8010 O.2   500  GDP500     -0.2221
      4  O3B       14.4020   31.8680   55.1990 O.3   500  GDP500     -0.1143
      5  O3A       15.9670   33.1810   53.6590 O.3   500  GDP500     -0.2261
      6  PA        16.4300   34.3830   52.6680 P.3   500  GDP500      0.2231
      7  O1A       15.5350   34.5480   51.4630 O.2   500  GDP500     -0.5169
      8  O2A       16.5310   35.6740   53.4490 O.3   500  GDP500     -0.4370
      9  O5'       17.9160   33.9180   52.2340 O.3   500  GDP500     -0.3111
     10  C5'       18.1090   32.7470   51.4790 C.3   500  GDP500      0.1813
     11  C4'       19.2010   32.9940   50.4510 C.3   500  GDP500      0.1799
     12  O4'       18.7750   33.9200   49.4490 O.3   500  GDP500     -0.3326
     13  C3'       20.4610   33.5750   51.0660 C.3   500  GDP500      0.2158
     14  O3'       21.3770   32.5300   51.3840 O.3   500  GDP500     -0.2175
     15  C2'       20.9690   34.5500   50.0220 C.3   500  GDP500      0.2310
     16  O2'       21.9760   33.9290   49.2270 O.3   500  GDP500     -0.2158
     17  C1'       19.7940   34.8710   49.1460 C.3   500  GDP500      0.2293
     18  N9        19.2130   36.2290   49.3250 N.pl3 500  GDP500     -0.2354
     19  C8        18.6070   36.7560   50.4180 C.3   500  GDP500      0.2246
     20  N7        18.1790   38.0270   50.1850 N.2   500  GDP500     -0.2322
     21  C5        18.5100   38.3440   48.9120 C.2   500  GDP500      0.2182
     22  C6        18.3490   39.5260   48.0000 C.1   500  GDP500      0.2372
     23  O6        17.7680   40.5690   48.3910 O.2   500  GDP500     -0.2069
     24  N1        18.8490   39.4400   46.7350 N.2   500  GDP500     -0.2485
     25  C2        19.4890   38.3230   46.2590 C.1   500  GDP500      0.2531
     26  N2        19.9700   38.3170   44.9820 N.pl3 500  GDP500     -0.0226
     27  N3        19.6600   37.2030   47.0410 N.2   500  GDP500     -0.3074
     28  C4        19.2000   37.1590   48.3480 C.2   500  GDP500      0.2300
@<TRIPOS>BOND
     1    26    25    1
     2    25    24    2
     3    25    27    2
     4    24    22    2
     5    27    28    2
     6    22    23    2
     7    22    21    1
     8    28    21    1
     9    28    18    1
    10    21    20    2
    11    17    18    1
    12    17    12    1
    13    17    15    1
    14    16    15    1
    15    18    19    1
    16    12    11    1
    17    15    13    1
    18    20    19    1
    19    11    13    1
    20    11    10    1
    21    13    14    1
    22     7     6    2
    23    10     9    1
    24     9     6    1
    25     6     8    1
    26     6     5    1
    27     3     1    2
    28     5     1    1
    29     1     2    1
    30     1     4    1
