@<TRIPOS>MOLECULE
4ei9_GDP_A_1.pdb
 28 30 0 0 0
SMALL
GASTEIGER

@<TRIPOS>ATOM
      1  PB        -9.2940    5.4230  -53.9240 P.3   500  GDP500      0.5373
      2  O1B      -10.1080    4.1840  -54.2150 O.3   500  GDP500     -0.1143
      3  O2B       -9.8110    6.0800  -52.6650 O.3   500  GDP500     -0.1143
      4  O3B       -9.4090    6.3770  -55.0870 O.2   500  GDP500     -0.2221
      5  O3A       -7.7570    4.9680  -53.7270 O.3   500  GDP500     -0.2261
      6  PA        -7.2810    3.7640  -52.7640 P.3   500  GDP500      0.2231
      7  O1A       -8.0870    3.6930  -51.4930 O.3   500  GDP500     -0.4370
      8  O2A       -7.3530    2.4510  -53.5090 O.2   500  GDP500     -0.5169
      9  O5'       -5.7400    4.1240  -52.4540 O.3   500  GDP500     -0.3111
     10  C5'       -5.3890    5.3200  -51.7570 C.3   500  GDP500      0.1813
     11  C4'       -4.3540    5.0220  -50.6710 C.3   500  GDP500      0.1799
     12  O4'       -4.9130    4.1740  -49.6590 O.3   500  GDP500     -0.3326
     13  C3'       -3.1160    4.3150  -51.2130 C.3   500  GDP500      0.2158
     14  O3'       -2.0550    5.2390  -51.4870 O.3   500  GDP500     -0.2175
     15  C2'       -2.7710    3.2770  -50.1550 C.3   500  GDP500      0.2310
     16  O2'       -1.6610    3.6950  -49.3490 O.3   500  GDP500     -0.2158
     17  C1'       -4.0130    3.1200  -49.3020 C.3   500  GDP500      0.2293
     18  N9        -4.6840    1.7880  -49.4960 N.pl3 500  GDP500     -0.2354
     19  C8        -5.2930    1.2970  -50.6070 C.3   500  GDP500      0.2246
     20  N7        -5.7860    0.0460  -50.3950 N.2   500  GDP500     -0.2322
     21  C5        -5.4970   -0.2880  -49.1260 C.2   500  GDP500      0.2182
     22  C6        -5.7200   -1.4680  -48.2280 C.1   500  GDP500      0.2372
     23  O6        -6.3240   -2.4800  -48.6420 O.2   500  GDP500     -0.2069
     24  N1        -5.2470   -1.4080  -46.9490 N.2   500  GDP500     -0.2485
     25  C2        -4.5820   -0.3190  -46.4600 C.1   500  GDP500      0.2531
     26  N2        -4.1380   -0.3240  -45.1780 N.pl3 500  GDP500     -0.0226
     27  N3        -4.3470    0.7910  -47.2310 N.2   500  GDP500     -0.3074
     28  C4        -4.7690    0.8620  -48.5380 C.2   500  GDP500      0.2300
@<TRIPOS>BOND
     1     4     1    2
     2     2     1    1
     3     1     5    1
     4     1     3    1
     5     5     6    1
     6     8     6    2
     7     6     9    1
     8     6     7    1
     9     9    10    1
    10    10    11    1
    11    14    13    1
    12    13    11    1
    13    13    15    1
    14    11    12    1
    15    19    20    1
    16    19    18    1
    17    20    21    2
    18    15    16    1
    19    15    17    1
    20    12    17    1
    21    18    17    1
    22    18    28    1
    23    21    28    1
    24    21    22    1
    25    23    22    2
    26    28    27    2
    27    22    24    2
    28    27    25    2
    29    24    25    2
    30    25    26    1
