@<TRIPOS>MOLECULE
4ei9_GSP_B_1.pdb
 32 34 0 0 0
SMALL
GASTEIGER

@<TRIPOS>ATOM
      1  PG         3.8840   10.6500 -101.3230 P.3   500  GSP500      0.4340
      2  O3B        3.6850    9.4800 -100.1740 O.3   500  GSP500     -0.2405
      3  S1G        4.5310    9.5190 -102.6620 S.3   500  GSP500      0.0416
      4  O2G        2.4930   11.1830 -101.4370 O.2   500  GSP500     -0.2423
      5  O3G        5.0590   11.5420 -101.0570 O.3   500  GSP500     -0.1305
      6  PB         3.1300    9.6110  -98.6030 P.3   500  GSP500      0.2262
      7  O1B        2.8640   11.0200  -98.5160 O.2   500  GSP500     -0.5168
      8  O2B        1.8970    8.8150  -98.2770 O.3   500  GSP500     -0.4369
      9  PA         4.8390    7.6150  -97.5700 P.3   500  GSP500      0.2189
     10  O1A        3.7610    6.8320  -96.9140 O.3   500  GSP500     -0.4371
     11  O2A        5.4490    7.2290  -98.8930 O.2   500  GSP500     -0.5170
     12  O3A        4.3340    9.1000  -97.6670 O.3   500  GSP500     -0.2701
     13  O5'        6.0770    7.6880  -96.4730 O.3   500  GSP500     -0.3112
     14  C5'        6.5610    8.8940  -95.7740 C.3   500  GSP500      0.1813
     15  C4'        7.7060    8.4630  -94.8690 C.3   500  GSP500      0.1799
     16  O4'        7.3360    7.2890  -94.0300 O.3   500  GSP500     -0.3326
     17  C3'        9.0270    8.0370  -95.6160 C.3   500  GSP500      0.2158
     18  O3'       10.0440    9.0430  -95.2940 O.3   500  GSP500     -0.2175
     19  C2'        9.4160    6.5840  -95.1030 C.3   500  GSP500      0.2310
     20  O2'       10.7460    6.5290  -94.4780 O.3   500  GSP500     -0.2158
     21  C1'        8.2520    6.1530  -94.1180 C.3   500  GSP500      0.2293
     22  N9         7.3690    5.0030  -94.5540 N.pl3 500  GSP500     -0.2354
     23  C8         6.5600    4.7690  -95.6710 C.3   500  GSP500      0.2246
     24  N7         5.9230    3.6310  -95.7170 N.2   500  GSP500     -0.2322
     25  C5         6.3330    3.0300  -94.5240 C.2   500  GSP500      0.2182
     26  C6         5.9640    1.7000  -93.9650 C.1   500  GSP500      0.2372
     27  O6         5.1890    0.9360  -94.5620 O.2   500  GSP500     -0.2069
     28  N1         6.6240    1.4630  -92.6840 N.2   500  GSP500     -0.2485
     29  C2         7.5200    2.3590  -92.0050 C.1   500  GSP500      0.2531
     30  N2         8.0610    2.0380  -90.8460 N.pl3 500  GSP500     -0.0226
     31  N3         7.8470    3.5930  -92.5490 N.2   500  GSP500     -0.3074
     32  C4         7.2250    3.8680  -93.8020 C.2   500  GSP500      0.2300
@<TRIPOS>BOND
     1     3     1    1
     2     4     1    2
     3     1     5    1
     4     1     2    1
     5     2     6    1
     6    11     9    2
     7     6     7    2
     8     6     8    1
     9     6    12    1
    10    12     9    1
    11     9    10    1
    12     9    13    1
    13    13    14    1
    14    14    15    1
    15    24    23    1
    16    24    25    2
    17    23    22    1
    18    17    18    1
    19    17    19    1
    20    17    15    1
    21    19    20    1
    22    19    21    1
    23    15    16    1
    24    27    26    2
    25    22    21    1
    26    22    32    1
    27    25    26    1
    28    25    32    1
    29    21    16    1
    30    26    28    2
    31    32    31    2
    32    28    29    2
    33    31    29    2
    34    29    30    1
