@<TRIPOS>MOLECULE
4eip_K2C_A_1.pdb
 24 29 0 0 0
SMALL
GASTEIGER

@<TRIPOS>ATOM
      1  C7        -5.4130   14.5040   41.5030 C.3   601  K2C601      0.1650
      2  N6        -6.1420   15.5290   42.2870 N.2   601  K2C601     -0.1976
      3  C22       -4.4640   13.9270   42.4500 C.ar  601  K2C601      0.0166
      4  C21       -3.5130   12.9190   42.2870 C.ar  601  K2C601      0.0332
      5  C18       -2.7370   12.5560   43.3550 C.ar  601  K2C601      0.1606
      6  N12       -1.8770   11.5650   43.0110 N.2   601  K2C601     -0.3993
      7  C19       -2.0990   11.2850   41.6860 C.ar  601  K2C601      0.1315
      8  C20       -3.1170   12.1300   41.2430 C.ar  601  K2C601      0.0319
      9  C8        -3.6040   12.1120   39.9410 C.ar  601  K2C601      0.0026
     10  C9        -3.0300   11.2030   39.0530 C.ar  601  K2C601      0.0002
     11  C10       -2.0090   10.3470   39.4730 C.ar  601  K2C601      0.0026
     12  C11       -1.5380   10.3840   40.7860 C.ar  601  K2C601      0.0320
     13  O24       -6.0660   16.2990   44.4770 O.2   601  K2C601     -0.2222
     14  C5        -5.6390   15.5180   43.5450 C.1   601  K2C601      0.1502
     15  C23       -4.5650   14.5060   43.6960 C.ar  601  K2C601      0.0834
     16  C16       -3.7880   14.1560   44.8000 C.ar  601  K2C601      0.0453
     17  C17       -2.8720   13.1650   44.5970 C.ar  601  K2C601      0.1614
     18  N13       -2.1750   12.9100   45.7270 N.2   601  K2C601     -0.3993
     19  C14       -2.6530   13.7620   46.6920 C.ar  601  K2C601      0.1316
     20  C15       -3.6560   14.5370   46.1110 C.ar  601  K2C601      0.0328
     21  C4        -4.3550   15.5080   46.8160 C.ar  601  K2C601      0.0026
     22  C3        -4.0330   15.7060   48.1570 C.ar  601  K2C601      0.0002
     23  C2        -3.0310   14.9410   48.7580 C.ar  601  K2C601      0.0026
     24  C1        -2.3400   13.9710   48.0310 C.ar  601  K2C601      0.0320
@<TRIPOS>BOND
     1    10    11   ar
     2    10     9   ar
     3    11    12   ar
     4     9     8   ar
     5    12     7   ar
     6     8     7   ar
     7     8     4    2
     8     1     2    1
     9     1     3    1
    10     7     6    2
    11     2    14    2
    12     4     3   ar
    13     4     5   ar
    14     3    15   ar
    15     6     5    2
    16     5    17   ar
    17    14    15    1
    18    14    13    2
    19    15    16   ar
    20    17    16   ar
    21    17    18    2
    22    16    20    2
    23    18    19    2
    24    20    19   ar
    25    20    21   ar
    26    19    24   ar
    27    21    22   ar
    28    24    23   ar
    29    22    23   ar
