@<TRIPOS>MOLECULE
4eiq_KCT_A_1.pdb
 27 32 0 0 0
SMALL
GASTEIGER

@<TRIPOS>ATOM
      1  O27       -6.4670   16.3620   43.5510 O.co2 600  KCT600     -0.2431
      2  C25       -5.6160   15.4910   43.4030 C.2   600  KCT600      0.3917
      3  O26       -4.3860   15.7600   43.3880 O.co2 600  KCT600     -0.2431
      4  C7        -6.1170   14.0820   43.2480 C.3   600  KCT600      0.2401
      5  N6        -6.8040   14.0490   41.9340 N.2   600  KCT600     -0.1883
      6  C22       -5.0620   13.0740   43.0930 C.ar  600  KCT600      0.0252
      7  C21       -4.0360   12.6080   44.0040 C.ar  600  KCT600      0.0337
      8  C20       -3.6510   12.9070   45.3020 C.ar  600  KCT600      0.0319
      9  C8        -4.1940   13.8430   46.2160 C.ar  600  KCT600      0.0026
     10  C9        -3.6100   13.9630   47.4970 C.ar  600  KCT600      0.0002
     11  C10       -2.4990   13.1500   47.8570 C.ar  600  KCT600      0.0026
     12  C11       -1.9680   12.2160   46.9300 C.ar  600  KCT600      0.0320
     13  C19       -2.5430   12.0930   45.6460 C.ar  600  KCT600      0.1315
     14  N12       -2.2560   11.3030   44.5610 N.2   600  KCT600     -0.3993
     15  C18       -3.1480   11.6150   43.5820 C.ar  600  KCT600      0.1606
     16  C17       -3.1970   11.0350   42.2920 C.ar  600  KCT600      0.1614
     17  C16       -4.1410   11.4280   41.3560 C.ar  600  KCT600      0.0453
     18  C23       -5.1060   12.4970   41.8140 C.ar  600  KCT600      0.0839
     19  C5        -6.2290   13.1550   41.1180 C.1   600  KCT600      0.1506
     20  O24       -6.6210   12.9230   39.9180 O.2   600  KCT600     -0.2222
     21  N13       -2.3740   10.0700   41.7970 N.2   600  KCT600     -0.3993
     22  C14       -2.7500    9.7910   40.4940 C.ar  600  KCT600      0.1316
     23  C15       -3.8580   10.6220   40.1700 C.ar  600  KCT600      0.0328
     24  C1        -2.2600    8.8940   39.5030 C.ar  600  KCT600      0.0320
     25  C2        -2.8780    8.8490   38.2250 C.ar  600  KCT600      0.0026
     26  C3        -3.9860    9.6980   37.9260 C.ar  600  KCT600      0.0002
     27  C4        -4.4870   10.5950   38.9070 C.ar  600  KCT600      0.0026
@<TRIPOS>BOND
     1    26    25   ar
     2    26    27   ar
     3    25    24   ar
     4    27    23   ar
     5    24    22   ar
     6    20    19    2
     7    23    22   ar
     8    23    17    2
     9    22    21    2
    10    19    18    1
    11    19     5    2
    12    17    18   ar
    13    17    16   ar
    14    21    16    2
    15    18     6   ar
    16     5     4    1
    17    16    15   ar
    18     6     4    1
    19     6     7   ar
    20     4     2    1
    21     3     2   ar
    22     2     1   ar
    23    15     7   ar
    24    15    14    2
    25     7     8    2
    26    14    13    2
    27     8    13   ar
    28     8     9   ar
    29    13    12   ar
    30     9    10   ar
    31    12    11   ar
    32    10    11   ar
