@<TRIPOS>MOLECULE
4eiw_ADP_A_1.pdb
 27 29 0 0 0
SMALL
GASTEIGER

@<TRIPOS>ATOM
      1  PB        -2.1460   97.8810   38.1340 P.3   1001  ADP1001     0.5373
      2  O1B       -1.8190   98.8800   39.2190 O.3   1001  ADP1001    -0.1143
      3  O2B       -3.5220   98.0540   37.5000 O.2   1001  ADP1001    -0.2221
      4  O3B       -1.7910   96.4510   38.4960 O.3   1001  ADP1001    -0.1143
      5  PA        -0.8900   99.8190   36.5920 P.3   1001  ADP1001     0.2231
      6  O1A       -2.1830  100.3040   36.0090 O.2   1001  ADP1001    -0.5169
      7  O2A       -0.4220  100.5280   37.8280 O.3   1001  ADP1001    -0.4370
      8  O3A       -1.0890   98.2630   36.9610 O.3   1001  ADP1001    -0.2261
      9  O5'        0.2350   99.8420   35.4530 O.3   1001  ADP1001    -0.3111
     10  C5'        0.8600  101.0960   35.2420 C.3   1001  ADP1001     0.1813
     11  C4'        1.6010  101.0750   33.9230 C.3   1001  ADP1001     0.1821
     12  O4'        0.7090  100.7370   32.8560 O.3   1001  ADP1001    -0.3135
     13  C3'        2.1700  102.4510   33.6130 C.3   1001  ADP1001     0.2184
     14  O3'        3.5740  102.5390   33.8850 O.3   1001  ADP1001    -0.2174
     15  C2'        1.8580  102.6540   32.1380 C.3   1001  ADP1001     0.2570
     16  O2'        2.9160  102.2710   31.2580 O.3   1001  ADP1001    -0.2130
     17  C1'        0.6920  101.7460   31.8390 C.3   1001  ADP1001     0.3186
     18  N9        -0.5310  102.5560   32.0100 N.pl3 1001  ADP1001    -0.1439
     19  C8        -1.6470  102.0980   32.5920 C.3   1001  ADP1001     0.3377
     20  N7        -2.6100  103.0520   32.6320 N.2   1001  ADP1001    -0.2095
     21  C5        -2.1050  104.1640   32.0700 C.2   1001  ADP1001     0.2526
     22  C6        -2.5860  105.5490   31.8000 C.2   1001  ADP1001     0.4393
     23  N6        -3.8330  105.9370   32.1500 N.pl3 1001  ADP1001     0.2180
     24  N1        -1.7430  106.4090   31.1840 N.2   1001  ADP1001     0.0021
     25  C2        -0.4960  106.0350   30.8230 C.3   1001  ADP1001     0.5254
     26  N3         0.0170  104.8040   31.0480 N.2   1001  ADP1001    -0.0055
     27  C4        -0.7250  103.8340   31.6550 C.2   1001  ADP1001     0.3518
@<TRIPOS>BOND
     1    25    26    1
     2    25    24    1
     3    26    27    2
     4    24    22    2
     5    16    15    1
     6    27    18    1
     7    27    21    1
     8    22    21    1
     9    22    23    1
    10    17    18    1
    11    17    15    1
    12    17    12    1
    13    18    19    1
    14    21    20    2
    15    15    13    1
    16    19    20    1
    17    12    11    1
    18    13    14    1
    19    13    11    1
    20    11    10    1
    21    10     9    1
    22     9     5    1
    23     6     5    2
    24     5     8    1
    25     5     7    1
    26     8     1    1
    27     3     1    2
    28     1     4    1
    29     1     2    1
