@<TRIPOS>MOLECULE
4eix_NIM_A_1.pdb
 21 22 0 0 0
SMALL
GASTEIGER

@<TRIPOS>ATOM
      1  O4        32.5350    5.0210   -4.4310 O.2   201  NIM201     -0.1261
      2  N2        33.4700    4.9180   -5.5190 N.pl3 201  NIM201      0.0578
      3  O3        34.7160    4.6880   -5.3440 O.2   201  NIM201     -0.1261
      4  C5        32.9390    5.0510   -6.8440 C.ar  201  NIM201      0.1460
      5  C4        31.5280    5.2410   -6.9750 C.ar  201  NIM201      0.0257
      6  C3        30.9510    5.3750   -8.2470 C.ar  201  NIM201      0.0228
      7  C2        31.7540    5.3720   -9.4040 C.ar  201  NIM201      0.1251
      8  N1        31.1470    5.5760  -10.5690 N.pl3 201  NIM201     -0.0975
      9  S1        30.6690    7.1210  -10.9570 S.O2  201  NIM201      0.0751
     10  O1        31.1220    7.5040  -12.3680 O.2   201  NIM201     -0.1528
     11  O2        29.2290    7.1060  -10.9130 O.2   201  NIM201     -0.1528
     12  C1        31.1730    8.2800   -9.8120 C.3   201  NIM201      0.2016
     13  C6        33.7860    5.0040   -8.0020 C.ar  201  NIM201      0.0629
     14  C7        33.2800    5.1590   -9.3560 C.ar  201  NIM201      0.1635
     15  O5        34.0960    5.1410  -10.5250 O.3   201  NIM201     -0.4521
     16  C8        35.3410    4.4420  -10.5670 C.ar  201  NIM201      0.1454
     17  C13       35.5340    3.2100  -11.3460 C.ar  201  NIM201      0.0375
     18  C12       36.8370    2.5630  -11.3470 C.ar  201  NIM201      0.0031
     19  C11       37.9400    3.1520  -10.5830 C.ar  201  NIM201      0.0002
     20  C10       37.7620    4.3650   -9.8010 C.ar  201  NIM201      0.0031
     21  C9        36.4820    4.9980   -9.7890 C.ar  201  NIM201      0.0375
@<TRIPOS>BOND
     1    10     9    2
     2    18    17   ar
     3    18    19   ar
     4    17    16   ar
     5     9    11    2
     6     9     8    1
     7     9    12    1
     8    19    20   ar
     9     8     7    1
    10    16    15    1
    11    16    21   ar
    12    15    14    1
    13    20    21   ar
    14     7    14   ar
    15     7     6   ar
    16    14    13   ar
    17     6     5   ar
    18    13     4   ar
    19     5     4   ar
    20     4     2    1
    21     2     3    2
    22     2     1    2
