@<TRIPOS>MOLECULE
4eix_IMN_A_1.pdb
 25 27 0 0 0
SMALL
GASTEIGER

@<TRIPOS>ATOM
      1  C         27.2370   16.4370  -10.0610 C.ar  202  IMN202      0.0664
      2  C1        27.0910   15.0680   -9.4780 C.ar  202  IMN202      0.0169
      3  C2        25.8900   14.6500   -8.8690 C.ar  202  IMN202      0.0381
      4  C3        24.7940   15.5260   -8.8080 C.ar  202  IMN202      0.1388
      5  C4        24.9240   16.8220   -9.3570 C.ar  202  IMN202      0.0384
      6  C5        26.1090   17.2750   -9.9690 C.ar  202  IMN202      0.0207
      7  C6        22.3220   15.6500   -8.4670 C.3   202  IMN202      0.2525
      8  C7        28.3980   14.3720   -9.7000 C.ar  202  IMN202      0.0027
      9  C8        29.2660   15.3750  -10.4040 C.ar  202  IMN202      0.0411
     10  C9        29.0720   17.6230  -11.2000 C.2   202  IMN202      0.2644
     11  C10       28.3010   18.7650  -11.8090 C.ar  202  IMN202      0.0565
     12  C11       26.9050   18.8940  -11.7520 C.ar  202  IMN202      0.0056
     13  C12       26.2730   19.8820  -12.5050 C.ar  202  IMN202      0.0115
     14  C13       27.0250   20.7750  -13.2820 C.ar  202  IMN202      0.0577
     15  C14       28.4230   20.6530  -13.3210 C.ar  202  IMN202      0.0115
     16  C15       29.0560   19.6520  -12.5840 C.ar  202  IMN202      0.0056
     17  C16       30.7060   15.1480  -10.8390 C.3   202  IMN202      0.0501
     18  C17       28.7950   12.9690   -9.2790 C.3   202  IMN202      0.1415
     19  C18       27.9060   11.8810   -9.8330 C.2   202  IMN202      0.3693
     20  N         28.5110   16.5020  -10.5670 N.ar  202  IMN202     -0.2785
     21  O         23.6210   15.0950   -8.1990 O.3   202  IMN202     -0.4714
     22  O1        30.2940   17.7270  -11.2930 O.2   202  IMN202     -0.2666
     23  O2        28.4460   11.0230  -10.5690 O.co2 202  IMN202     -0.2453
     24  O3        26.6870   11.8660   -9.5200 O.co2 202  IMN202     -0.2453
     25 CL         26.2140   22.0690  -14.2460 Cl    202  IMN202     -0.0822
@<TRIPOS>BOND
     1    25    14    1
     2    15    14   ar
     3    15    16   ar
     4    14    13   ar
     5    16    11   ar
     6    13    12   ar
     7    11    12   ar
     8    11    10    1
     9    22    10    2
    10    10    20   am
    11    17     9    1
    12    23    19   ar
    13    20     9   ar
    14    20     1   ar
    15     9     8   ar
    16     1     6   ar
    17     1     2   ar
    18     6     5   ar
    19    19    24   ar
    20    19    18    1
    21     8     2   ar
    22     8    18    1
    23     2     3   ar
    24     5     4   ar
    25     3     4   ar
    26     4    21    1
    27     7    21    1
