@<TRIPOS>MOLECULE
4eiy_CLR_A_1.pdb
 28 31 0 0 0
SMALL
GASTEIGER

@<TRIPOS>ATOM
      1  C1       -18.4760   10.4560   22.0730 C.3   2403  CLR2403     0.0063
      2  C2       -18.1920   11.9380   22.4070 C.3   2403  CLR2403     0.0335
      3  C3       -18.4150   12.2450   23.8640 C.3   2403  CLR2403     0.1560
      4  C4       -17.5940   11.2970   24.7540 C.3   2403  CLR2403     0.0545
      5  C5       -17.8250    9.8470   24.4110 C.2   2403  CLR2403    -0.0466
      6  C6       -18.0510    8.9860   25.4200 C.2   2403  CLR2403    -0.0345
      7  C7       -18.2740    7.4930   25.2680 C.3   2403  CLR2403     0.0254
      8  C8       -17.9850    7.0180   23.8490 C.3   2403  CLR2403     0.0046
      9  C9       -18.4400    8.0530   22.8140 C.3   2403  CLR2403     0.0038
     10  C10      -17.7630    9.4240   22.9580 C.3   2403  CLR2403     0.0150
     11  C11      -18.3350    7.4630   21.4040 C.3   2403  CLR2403     0.0003
     12  C12      -18.9610    6.0690   21.2520 C.3   2403  CLR2403     0.0000
     13  C13      -18.5210    5.0590   22.2760 C.3   2403  CLR2403     0.0000
     14  C14      -18.7530    5.7330   23.6210 C.3   2403  CLR2403     0.0003
     15  C15      -18.5470    4.6200   24.6430 C.3   2403  CLR2403     0.0000
     16  C16      -19.0650    3.3850   23.9100 C.3   2403  CLR2403     0.0000
     17  C17      -19.3240    3.7600   22.4520 C.3   2403  CLR2403     0.0000
     18  C18      -17.0340    4.6780   22.0240 C.3   2403  CLR2403     0.0000
     19  C19      -16.2650    9.3540   22.5490 C.3   2403  CLR2403     0.0040
     20  C20      -19.0610    2.5610   21.5330 C.3   2403  CLR2403     0.0000
     21  C21      -19.2400    2.9180   20.0580 C.3   2403  CLR2403     0.0000
     22  C22      -19.9900    1.3810   21.8930 C.3   2403  CLR2403     0.0000
     23  C23      -19.8950    0.1700   20.9530 C.3   2403  CLR2403     0.0000
     24  C24      -20.7060   -1.0050   21.5070 C.3   2403  CLR2403     0.0000
     25  C25      -20.2770   -2.3730   20.9550 C.3   2403  CLR2403     0.0000
     26  C26      -20.7520   -3.5140   21.8530 C.3   2403  CLR2403     0.0000
     27  C27      -20.7720   -2.6000   19.5280 C.3   2403  CLR2403     0.0000
     28  O1       -18.0180   13.5950   24.1500 O.3   2403  CLR2403    -0.2228
@<TRIPOS>BOND
     1    27    25    1
     2    21    20    1
     3    23    24    1
     4    23    22    1
     5    25    24    1
     6    25    26    1
     7    12    11    1
     8    12    13    1
     9    11     9    1
    10    20    22    1
    11    20    17    1
    12    18    13    1
    13     1     2    1
    14     1    10    1
    15    13    17    1
    16    13    14    1
    17     2     3    1
    18    17    16    1
    19    19    10    1
    20     9    10    1
    21     9     8    1
    22    10     5    1
    23    14     8    1
    24    14    15    1
    25     8     7    1
    26     3    28    1
    27     3     4    1
    28    16    15    1
    29     5     4    1
    30     5     6    2
    31     7     6    1
