@<TRIPOS>MOLECULE
4eiy_ZMA_A_1.pdb
 25 28 0 0 0
SMALL
GASTEIGER

@<TRIPOS>ATOM
      1  C1        -1.7390   13.3990   14.5410 C.ar  2401  ZMA2401    -0.0009
      2  C2        -1.4820   14.7540   14.7430 C.ar  2401  ZMA2401     0.0417
      3  C3        -0.2860   15.1270   15.3650 C.ar  2401  ZMA2401     0.1957
      4  O4        -0.0300   16.4560   15.5610 O.3   2401  ZMA2401    -0.2866
      5  C5         0.6440   14.1510   15.7800 C.ar  2401  ZMA2401     0.0417
      6  C6         0.3590   12.8070   15.6010 C.ar  2401  ZMA2401    -0.0009
      7  C7        -0.7920   12.4310   14.9270 C.ar  2401  ZMA2401    -0.0202
      8  C8        -1.1670   10.9680   14.7580 C.3   2401  ZMA2401     0.0506
      9  C9        -2.1580   10.7700   15.9150 C.3   2401  ZMA2401     0.1309
     10  N10       -2.5090    9.3780   16.1590 N.pl3 2401  ZMA2401    -0.1508
     11  C11       -1.6710    8.5280   16.7880 C.1   2401  ZMA2401     0.2337
     12  N12       -2.0560    7.2310   16.9730 N.2   2401  ZMA2401    -0.2439
     13  N13       -0.4650    8.9720   17.2330 N.2   2401  ZMA2401    -0.2893
     14  C14        0.3930    8.1130   17.8420 C.cat 2401  ZMA2401     0.3237
     15  N15        1.5660    8.5950   18.2690 N.pl3 2401  ZMA2401    -0.0749
     16  N16        0.0020    6.8440   18.0360 N.pl3 2401  ZMA2401    -0.0559
     17  N17        0.7230    5.8530   18.6620 N.2   2401  ZMA2401    -0.0900
     18  C18       -1.1910    6.4160   17.6300 C.1   2401  ZMA2401     0.2508
     19  N19       -1.3120    5.0870   17.9020 N.2   2401  ZMA2401    -0.2666
     20  C20       -0.1430    4.8250   18.5300 C.1   2401  ZMA2401     0.1525
     21  C21        0.2150    3.4840   19.0410 C.ar  2401  ZMA2401     0.2205
     22  C22       -0.6430    2.4130   19.1230 C.ar  2401  ZMA2401     0.0523
     23  C23        0.1780    1.4140   19.6380 C.ar  2401  ZMA2401     0.0446
     24  C24        1.4590    1.9200   19.7770 C.ar  2401  ZMA2401     0.1807
     25  O25        1.5080    3.2460   19.3850 O.2   2401  ZMA2401    -0.4394
@<TRIPOS>BOND
     1     1     2   ar
     2     1     7   ar
     3     2     3   ar
     4     8     7    1
     5     8     9    1
     6     7     6   ar
     7     3     4    1
     8     3     5   ar
     9     6     5   ar
    10     9    10    1
    11    10    11    1
    12    11    12    2
    13    11    13    2
    14    12    18    2
    15    13    14    2
    16    18    19    2
    17    18    16    1
    18    14    16    1
    19    14    15    1
    20    19    20    2
    21    16    17    1
    22    20    17    2
    23    20    21    1
    24    21    22   ar
    25    21    25   ar
    26    22    23   ar
    27    25    24   ar
    28    23    24   ar
