@<TRIPOS>MOLECULE
4ej2_D1F_A_1.pdb
 26 27 0 0 0
SMALL
GASTEIGER

@<TRIPOS>ATOM
      1  N1        34.0600   23.7760   28.9530 N.am  901  D1F901     -0.1760
      2  C2        33.2520   24.4370   29.8330 C.1   901  D1F901      0.2845
      3  O2        32.0170   24.4210   29.7030 O.2   901  D1F901     -0.1918
      4  N3        33.7980   25.1930   30.9040 N.2   901  D1F901     -0.2446
      5  C4        35.1860   25.2460   31.0670 C.1   901  D1F901      0.2252
      6  O4        35.7380   25.8740   31.9770 O.2   901  D1F901     -0.2079
      7  C5        35.9920   24.5660   30.1890 C.2   901  D1F901      0.1523
      8  C6        35.4940   23.8150   29.1100 C.2   901  D1F901      0.1005
      9  C7        37.3950   24.8240   30.6520 C.1   901  D1F901     -0.0499
     10  C8        38.4760   24.9740   31.0040 C.1   901  D1F901     -0.0809
     11  C9        39.8680   25.2700   31.5330 C.3   901  D1F901      0.1020
     12  C1'       33.3370   23.0080   27.8710 C.3   901  D1F901      0.2401
     13  C10       40.6560   23.9770   31.8800 C.2   901  D1F901     -0.0168
     14  C11       42.1020   24.1790   32.3720 C.2   901  D1F901     -0.0297
     15  C12       42.9250   22.9200   32.6980 C.3   901  D1F901      0.0257
     16  C13       44.1940   22.8200   31.8470 C.3   901  D1F901      0.0050
     17  C2'       33.8730   23.1370   26.4240 C.3   901  D1F901      0.2320
     18  O2'       34.2650   24.5200   26.1610 O.3   901  D1F901     -0.2157
     19  C3'       32.7610   22.5320   25.4480 C.3   901  D1F901      0.2190
     20  O3'       33.1250   22.5360   24.0420 O.3   901  D1F901     -0.2174
     21  C4'       32.4350   21.0780   25.8730 C.3   901  D1F901      0.2144
     22  O4'       31.3390   20.5260   25.0620 O.3   901  D1F901     -0.2176
     23  C5'       32.1650   20.9600   27.4260 C.3   901  D1F901      0.1828
     24  O5'       33.1990   21.6020   28.2040 O.3   901  D1F901     -0.3318
     25  C6'       32.1070   19.4980   27.8790 C.3   901  D1F901      0.2142
     26  O6'       33.2090   18.7620   27.3340 O.3   901  D1F901     -0.2176
@<TRIPOS>BOND
     1    20    19    1
     2    22    21    1
     3    19    21    1
     4    19    17    1
     5    21    23    1
     6    18    17    1
     7    17    12    1
     8    26    25    1
     9    23    25    1
    10    23    24    1
    11    12    24    1
    12    12     1    1
    13     1     8    1
    14     1     2   am
    15     8     7    2
    16     3     2    2
    17     2     4    2
    18     7     9    1
    19     7     5    1
    20     9    10    3
    21     4     5    2
    22    10    11    1
    23     5     6    2
    24    11    13    1
    25    16    15    1
    26    13    14    2
    27    14    15    1
