@<TRIPOS>MOLECULE
4ej4_EJ4_A_1.pdb
 31 38 0 0 0
SMALL
GASTEIGER

@<TRIPOS>ATOM
      1  CAB       61.2610   38.3910   -9.3050 C.ar  500  EJ4500      0.2290
      2  CAC       62.1390   39.2520   -9.8390 C.ar  500  EJ4500      0.1735
      3  CAE       63.3220   40.5530  -11.4250 C.3   500  EJ4500      0.2229
      4  CAF       62.2800   40.9440  -12.3090 C.2   500  EJ4500      0.1453
      5  CAG       61.5300   42.0630  -12.1570 C.2   500  EJ4500      0.0117
      6  CAH       60.7050   42.1740  -13.1970 C.ar  500  EJ4500      0.0279
      7  CAI       59.7250   43.0450  -13.4530 C.ar  500  EJ4500      0.0023
      8  CAJ       59.0480   43.0230  -14.6640 C.ar  500  EJ4500      0.0002
      9  CAK       59.4240   42.0680  -15.5950 C.ar  500  EJ4500      0.0026
     10  CAL       60.4520   41.1850  -15.2770 C.ar  500  EJ4500      0.0320
     11  CAM       61.0650   41.2560  -14.0940 C.ar  500  EJ4500      0.1309
     12  CAO       61.5070   42.6510  -10.9110 C.3   500  EJ4500      0.0610
     13  CAP       62.8470   42.5110  -10.1480 C.3   500  EJ4500      0.1513
     14  CAR       62.7180   43.1490   -8.7610 C.3   500  EJ4500      0.0907
     15  CAT       64.0090   41.1980   -7.9410 C.3   500  EJ4500      0.0727
     16  CAU       64.1800   40.6650   -9.3140 C.3   500  EJ4500      0.0279
     17  CAV       62.9510   41.1370  -10.1120 C.3   500  EJ4500      0.0935
     18  CAW       61.8990   40.4940   -9.5180 C.ar  500  EJ4500      0.0167
     19  CAX       61.2160   40.9910   -8.4720 C.ar  500  EJ4500     -0.0214
     20  CAY       60.3350   40.1240   -7.8390 C.ar  500  EJ4500     -0.0010
     21  CAZ       60.3800   38.7950   -8.2880 C.ar  500  EJ4500      0.0449
     22  NAN       62.0550   40.5390  -13.5630 N.2   500  EJ4500     -0.4030
     23  NAS       63.9280   42.6750   -8.0230 N.3   500  EJ4500     -0.2715
     24  OAA       61.3200   37.1010   -9.7400 O.3   500  EJ4500     -0.2833
     25  OAD       62.9740   39.1800  -10.9530 O.3   500  EJ4500     -0.4688
     26  OAQ       63.9270   43.1190  -10.8810 O.3   500  EJ4500     -0.2235
     27  CBA       61.3550   42.4260   -8.3130 C.3   500  EJ4500      0.0446
     28  CBB       63.7660   42.9500   -6.5740 C.3   500  EJ4500      0.0721
     29  CBC       63.8020   44.4350   -6.0830 C.3   500  EJ4500      0.0160
     30  CBD       62.8010   45.5200   -6.5120 C.3   500  EJ4500      0.0014
     31  CBE       62.6660   44.8530   -5.1490 C.3   500  EJ4500      0.0014
@<TRIPOS>BOND
     1     9    10   ar
     2     9     8   ar
     3    10    11   ar
     4     8     7   ar
     5    11    22    2
     6    11     6   ar
     7    22     4    2
     8     7     6   ar
     9     6     5    2
    10     4     5    1
    11     4     3    1
    12     5    12    1
    13     3    25    1
    14     3    17    1
    15    25     2    1
    16    12    13    1
    17    26    13    1
    18    13    17    1
    19    13    14    1
    20    17    18    1
    21    17    16    1
    22     2    18   ar
    23     2     1   ar
    24    24     1    1
    25    18    19   ar
    26    16    15    1
    27     1    21   ar
    28    14    27    1
    29    14    23    1
    30    19    27    1
    31    19    20   ar
    32    21    20   ar
    33    23    15    1
    34    23    28    1
    35    28    29    1
    36    30    29    1
    37    30    31    1
    38    29    31    1
