@<TRIPOS>MOLECULE
4ej7_ATP_A_1.pdb
 31 33 0 0 0
SMALL
GASTEIGER

@<TRIPOS>ATOM
      1  PG        71.2190   34.8930   54.8590 P.3   401  ATP401      0.5373
      2  O1G       71.4370   35.5210   56.2130 O.3   401  ATP401     -0.1143
      3  O2G       71.9040   35.6010   53.7130 O.2   401  ATP401     -0.2221
      4  O3G       69.7860   34.4960   54.5930 O.3   401  ATP401     -0.1143
      5  PB        72.7240   32.7740   53.7450 P.3   401  ATP401      0.2277
      6  O1B       71.7290   31.8880   53.0360 O.3   401  ATP401     -0.4368
      7  O2B       73.5160   33.7840   52.9550 O.2   401  ATP401     -0.5168
      8  O3B       71.9970   33.4930   54.9880 O.3   401  ATP401     -0.2258
      9  PA        74.9970   32.2800   55.3740 P.3   401  ATP401      0.2189
     10  O1A       74.6850   33.6070   56.0220 O.3   401  ATP401     -0.4371
     11  O2A       76.2200   32.1330   54.4990 O.2   401  ATP401     -0.5170
     12  O3A       73.6980   31.7910   54.5610 O.3   401  ATP401     -0.2700
     13  O5'       75.0480   31.1710   56.5330 O.3   401  ATP401     -0.3112
     14  C5'       73.8380   30.8160   57.1990 C.3   401  ATP401      0.1813
     15  C4'       74.1600   30.3820   58.6170 C.3   401  ATP401      0.1821
     16  O4'       75.0170   29.2370   58.6050 O.3   401  ATP401     -0.3135
     17  C3'       74.9100   31.4750   59.3590 C.3   401  ATP401      0.2184
     18  O3'       74.0220   32.2740   60.1450 O.3   401  ATP401     -0.2174
     19  C2'       75.8860   30.7260   60.2350 C.3   401  ATP401      0.2570
     20  O2'       75.3030   30.5310   61.5230 O.3   401  ATP401     -0.2130
     21  C1'       76.0610   29.3750   59.5720 C.3   401  ATP401      0.3186
     22  N9        77.3620   29.3760   58.8630 N.pl3 401  ATP401     -0.1439
     23  C8        77.5100   29.4020   57.5260 C.3   401  ATP401      0.3377
     24  N7        78.8210   29.3950   57.1780 N.2   401  ATP401     -0.2095
     25  C5        79.5370   29.3630   58.3150 C.2   401  ATP401      0.2526
     26  C6        80.9770   29.3400   58.6580 C.2   401  ATP401      0.4393
     27  N6        81.9210   29.3500   57.6850 N.pl3 401  ATP401      0.2180
     28  N1        81.3080   29.3080   59.9670 N.2   401  ATP401      0.0021
     29  C2        80.3680   29.2980   60.9340 C.3   401  ATP401      0.5254
     30  N3        79.0440   29.3190   60.6940 N.2   401  ATP401     -0.0055
     31  C4        78.5720   29.3510   59.4250 C.2   401  ATP401      0.3518
@<TRIPOS>BOND
     1     7     5    2
     2     6     5    1
     3     3     1    2
     4     5    12    1
     5     5     8    1
     6    11     9    2
     7    12     9    1
     8     4     1    1
     9     1     8    1
    10     1     2    1
    11     9    10    1
    12     9    13    1
    13    13    14    1
    14    24    23    1
    15    24    25    2
    16    14    15    1
    17    23    22    1
    18    27    26    1
    19    25    26    1
    20    25    31    1
    21    16    15    1
    22    16    21    1
    23    15    17    1
    24    26    28    2
    25    22    31    1
    26    22    21    1
    27    17    18    1
    28    17    19    1
    29    31    30    2
    30    21    19    1
    31    28    29    1
    32    19    20    1
    33    30    29    1
