@<TRIPOS>MOLECULE
4ejg_NCT_A_1.pdb
 12 13 0 0 0
SMALL
GASTEIGER

@<TRIPOS>ATOM
      1  N1        25.1560  -11.9020   35.3960 N.ar  501  NCT501     -0.2426
      2  C1        23.8490  -12.1270   35.6090 C.ar  501  NCT501      0.0959
      3  C2        23.1440  -11.5920   36.7040 C.ar  501  NCT501      0.0114
      4  C3        23.8140  -10.7620   37.6010 C.ar  501  NCT501      0.0002
      5  C4        25.1680  -10.5470   37.3490 C.ar  501  NCT501      0.0204
      6  C5        25.8290  -11.1270   36.2480 C.ar  501  NCT501      0.0989
      7  N2        21.2290  -12.4510   38.1190 N.3   501  NCT501     -0.2691
      8  C6        21.6980  -11.9160   36.8360 C.3   501  NCT501      0.0817
      9  C7        20.8050  -10.6930   36.7070 C.3   501  NCT501      0.0220
     10  C8        19.5520  -11.1260   37.4370 C.3   501  NCT501      0.0191
     11  C9        19.7830  -12.4820   38.1160 C.3   501  NCT501      0.0724
     12  C10       22.0240  -12.9020   39.2580 C.3   501  NCT501      0.0899
@<TRIPOS>BOND
     1     1     2   ar
     2     1     6   ar
     3     2     3   ar
     4     6     5   ar
     5     3     8    1
     6     3     4   ar
     7     9     8    1
     8     9    10    1
     9     8     7    1
    10     5     4   ar
    11    10    11    1
    12    11     7    1
    13     7    12    1
