@<TRIPOS>MOLECULE
4ejg_HEM_A_1.pdb
 43 50 0 0 0
SMALL
GASTEIGER

@<TRIPOS>ATOM
      1  CHA       16.5040  -11.6740   35.7230 C.2   500  HEM500      0.0000
      2  CHB       15.6080  -13.4100   40.0760 C.2   500  HEM500      0.0000
      3  CHC       17.2220  -17.6960   38.7320 C.2   500  HEM500      0.0000
      4  CHD       18.5950  -15.8340   34.4570 C.2   500  HEM500      0.0000
      5  C1A       16.1520  -11.7630   37.0330 C.2   500  HEM500      0.0000
      6  C2A       15.6470  -10.6810   37.8260 C.2   500  HEM500      0.0000
      7  C3A       15.4050  -11.1400   39.0480 C.2   500  HEM500      0.0000
      8  C4A       15.6940  -12.5550   39.0200 C.2   500  HEM500      0.0000
      9  CMA       14.8410  -10.2780   40.2360 C.3   500  HEM500      0.0000
     10  CAA       15.4630   -9.1890   37.3640 C.3   500  HEM500      0.0000
     11  CBA       14.1560   -9.0150   36.6510 C.3   500  HEM500      0.0000
     12  CGA       13.8720   -7.5700   36.3640 C.2   500  HEM500      0.0000
     13  O1A       12.7190   -7.0870   36.5750 O.co2 500  HEM500      0.0000
     14  O2A       14.7860   -6.8700   35.9140 O.co2 500  HEM500      0.0000
     15  C1B       16.0220  -14.6910   40.1510 C.ar  500  HEM500      0.0000
     16  C2B       15.9600  -15.5650   41.3180 C.ar  500  HEM500      0.0000
     17  C3B       16.4150  -16.7880   40.9410 C.ar  500  HEM500      0.0000
     18  C4B       16.7490  -16.6970   39.5490 C.ar  500  HEM500      0.0000
     19  CMB       15.4410  -15.1040   42.7220 C.3   500  HEM500      0.0000
     20  CAB       16.5360  -18.1110   41.7560 C.2   500  HEM500      0.0000
     21  CBB       16.8980  -18.2390   43.0340 C.2   500  HEM500      0.0000
     22  C1C       17.7050  -17.5900   37.4410 C.2   500  HEM500      0.0000
     23  C2C       18.1680  -18.6690   36.5940 C.2   500  HEM500      0.0000
     24  C3C       18.5400  -18.1630   35.4250 C.2   500  HEM500      0.0000
     25  C4C       18.3280  -16.7370   35.4710 C.2   500  HEM500      0.0000
     26  CMC       18.2550  -20.1670   36.9500 C.3   500  HEM500      0.0000
     27  CAC       19.1630  -19.0260   34.2930 C.2   500  HEM500      0.0000
     28  CBC       18.6470  -19.1920   33.0810 C.2   500  HEM500      0.0000
     29  C1D       18.2050  -14.5360   34.3580 C.ar  500  HEM500      0.0000
     30  C2D       18.4060  -13.6230   33.2680 C.ar  500  HEM500      0.0000
     31  C3D       17.7270  -12.3370   33.6890 C.ar  500  HEM500      0.0000
     32  C4D       17.1900  -12.5800   34.9870 C.ar  500  HEM500      0.0000
     33  CMD       19.1300  -13.7810   31.9290 C.3   500  HEM500      0.0000
     34  CAD       17.6610  -11.0800   32.8600 C.3   500  HEM500      0.0000
     35  CBD       16.2870  -11.0090   32.1940 C.3   500  HEM500      0.0000
     36  CGD       16.1810   -9.6590   31.4650 C.2   500  HEM500      0.0000
     37  O1D       15.2430   -9.4070   30.6910 O.co2 500  HEM500      0.0000
     38  O2D       17.0040   -8.7500   31.6500 O.co2 500  HEM500      0.0000
     39  NA        16.1590  -12.9010   37.7710 N.2   500  HEM500      0.0000
     40  NB        16.4780  -15.4190   39.1060 N.ar  500  HEM500      0.0000
     41  NC        17.7850  -16.4230   36.7140 N.2   500  HEM500      0.0000
     42  ND        17.4840  -13.8800   35.3380 N.ar  500  HEM500      0.0000
     43 FE         16.8920  -14.7100   37.2120 Fe    500  HEM500      0.0000
@<TRIPOS>BOND
     1    37    36   ar
     2    36    38   ar
     3    36    35    1
     4    33    30    1
     5    35    34    1
     6    34    31    1
     7    28    27    2
     8    30    31   ar
     9    30    29   ar
    10    31    32   ar
    11    27    24    1
    12    29     4    2
    13    29    42   ar
    14     4    25    1
    15    32    42   ar
    16    32     1    2
    17    42    43    1
    18    24    25    1
    19    24    23    2
    20    25    41    2
    21     1     5    1
    22    14    12   ar
    23    12    13   ar
    24    12    11    1
    25    23    26    1
    26    23    22    1
    27    11    10    1
    28    41    43    1
    29    41    22    1
    30     5    39    2
    31     5     6    1
    32    43    39    1
    33    43    40    1
    34    10     6    1
    35    22     3    2
    36    39     8    1
    37     6     7    2
    38     3    18    1
    39     8     7    1
    40     8     2    2
    41     7     9    1
    42    40    18   ar
    43    40    15   ar
    44    18    17   ar
    45     2    15    1
    46    15    16   ar
    47    17    16   ar
    48    17    20    1
    49    16    19    1
    50    20    21    2
