@<TRIPOS>MOLECULE
4ejh_0QA_A_1.pdb
 15 15 0 0 0
SMALL
GASTEIGER

@<TRIPOS>ATOM
      1  O2        24.2700  -12.6060   29.5990 O.2   502  0QA502     -0.1260
      2  N3        23.8730  -11.7870   28.7720 N.2   502  0QA502      0.0457
      3  N2        22.9250  -12.1650   27.8330 N.pl3 502  0QA502     -0.1962
      4  C10       21.6310  -12.7730   28.3520 C.3   502  0QA502      0.1372
      5  C9        22.6410  -10.8490   27.2760 C.3   502  0QA502      0.1146
      6  C8        21.7680  -10.9660   25.9950 C.3   502  0QA502      0.0314
      7  C7        21.5250   -9.4970   25.6750 C.3   502  0QA502      0.0710
      8  C6        21.2680   -8.8490   27.0010 C.2   502  0QA502      0.1746
      9  O1        22.1950   -8.4310   27.6900 O.2   502  0QA502     -0.2913
     10  C5        19.8470   -8.7150   27.4470 C.ar  502  0QA502      0.0539
     11  C1        18.8060   -9.1420   26.6340 C.ar  502  0QA502      0.0060
     12  C2        17.4990   -8.9850   27.0680 C.ar  502  0QA502      0.0208
     13  C3        17.2670   -8.3960   28.3090 C.ar  502  0QA502      0.0989
     14  N1        18.2880   -8.0020   29.0770 N.ar  502  0QA502     -0.2422
     15  C4        19.5660   -8.1430   28.6790 C.ar  502  0QA502      0.1017
@<TRIPOS>BOND
     1     7     6    1
     2     7     8    1
     3     6     5    1
     4    11    12   ar
     5    11    10   ar
     6     8    10    1
     7     8     9    2
     8    12    13   ar
     9     5     3    1
    10    10    15   ar
    11     3     4    1
    12     3     2    1
    13    13    14   ar
    14    15    14   ar
    15     2     1    2
