@<TRIPOS>MOLECULE
4ejh_HEM_A_1.pdb
 43 50 0 0 0
SMALL
GASTEIGER

@<TRIPOS>ATOM
      1  CHA       26.7170   -8.4770   27.9010 C.2   501  HEM501      0.0000
      2  CHB       27.6270  -13.1950   27.9080 C.2   501  HEM501      0.0000
      3  CHC       25.9920  -13.7760   32.3270 C.2   501  HEM501      0.0000
      4  CHD       24.7160   -9.1440   32.2760 C.2   501  HEM501      0.0000
      5  C1A       27.1420   -9.7180   27.5050 C.ar  501  HEM501      0.0000
      6  C2A       27.8090  -10.0480   26.2850 C.ar  501  HEM501      0.0000
      7  C3A       28.0950  -11.3480   26.3170 C.ar  501  HEM501      0.0000
      8  C4A       27.5800  -11.8750   27.5540 C.ar  501  HEM501      0.0000
      9  CMA       28.8300  -12.2100   25.2280 C.3   501  HEM501      0.0000
     10  CAA       28.1750   -9.0580   25.1670 C.3   501  HEM501      0.0000
     11  CBA       29.4520   -8.2640   25.4370 C.3   501  HEM501      0.0000
     12  CGA       29.6010   -7.3370   24.2480 C.2   501  HEM501      0.0000
     13  O1A       30.6470   -7.3760   23.5730 O.co2 501  HEM501      0.0000
     14  O2A       28.6930   -6.5420   23.9160 O.co2 501  HEM501      0.0000
     15  C1B       27.2410  -13.8090   29.0520 C.2   501  HEM501      0.0000
     16  C2B       27.3840  -15.2170   29.3610 C.2   501  HEM501      0.0000
     17  C3B       26.9500  -15.3640   30.6170 C.2   501  HEM501      0.0000
     18  C4B       26.5000  -14.0590   31.0900 C.2   501  HEM501      0.0000
     19  CMB       27.9520  -16.3230   28.3990 C.3   501  HEM501      0.0000
     20  CAB       26.7970  -16.6400   31.4520 C.2   501  HEM501      0.0000
     21  CBB       27.5850  -17.6890   31.3020 C.2   501  HEM501      0.0000
     22  C1C       25.5410  -12.5490   32.7360 C.ar  501  HEM501      0.0000
     23  C2C       25.0450  -12.2370   34.0470 C.ar  501  HEM501      0.0000
     24  C3C       24.7100  -10.9580   34.0380 C.ar  501  HEM501      0.0000
     25  C4C       24.9510  -10.4310   32.7060 C.ar  501  HEM501      0.0000
     26  CMC       24.9590  -13.2200   35.2460 C.3   501  HEM501      0.0000
     27  CAC       24.0950  -10.2160   35.2590 C.2   501  HEM501      0.0000
     28  CBC       24.9400   -9.5880   36.0880 C.2   501  HEM501      0.0000
     29  C1D       25.1250   -8.5480   31.1380 C.2   501  HEM501      0.0000
     30  C2D       24.8830   -7.1450   30.8130 C.2   501  HEM501      0.0000
     31  C3D       25.5210   -6.9330   29.4430 C.2   501  HEM501      0.0000
     32  C4D       26.0510   -8.2230   29.0800 C.2   501  HEM501      0.0000
     33  CMD       24.1390   -6.0880   31.6800 C.3   501  HEM501      0.0000
     34  CAD       25.6060   -5.6550   28.6060 C.3   501  HEM501      0.0000
     35  CBD       26.9710   -5.0110   28.7940 C.3   501  HEM501      0.0000
     36  CGD       27.0480   -3.6490   28.1310 C.2   501  HEM501      0.0000
     37  O1D       27.8990   -2.7900   28.5250 O.co2 501  HEM501      0.0000
     38  O2D       26.2840   -3.3720   27.2010 O.co2 501  HEM501      0.0000
     39  NA        27.0340  -10.8560   28.2570 N.ar  501  HEM501      0.0000
     40  NB        26.7090  -13.1330   30.1090 N.2   501  HEM501      0.0000
     41  NC        25.4920  -11.4380   31.9690 N.ar  501  HEM501      0.0000
     42  ND        25.8030   -9.1390   30.0790 N.2   501  HEM501      0.0000
     43 FE         26.3080  -11.1640   30.0880 Fe    501  HEM501      0.0000
@<TRIPOS>BOND
     1    13    12   ar
     2    14    12   ar
     3    12    11    1
     4    10    11    1
     5    10     6    1
     6     9     7    1
     7     6     7   ar
     8     6     5   ar
     9     7     8   ar
    10    38    36   ar
    11     5     1    2
    12     5    39   ar
    13     8     2    2
    14     8    39   ar
    15     1    32    1
    16     2    15    1
    17    36    37   ar
    18    36    35    1
    19    39    43    1
    20    19    16    1
    21    34    35    1
    22    34    31    1
    23    15    16    1
    24    15    40    2
    25    32    31    1
    26    32    42    2
    27    16    17    2
    28    31    30    2
    29    42    43    1
    30    42    29    1
    31    43    40    1
    32    43    41    1
    33    40    18    1
    34    17    18    1
    35    17    20    1
    36    30    29    1
    37    30    33    1
    38    18     3    2
    39    29     4    2
    40    21    20    2
    41    41    25   ar
    42    41    22   ar
    43     4    25    1
    44     3    22    1
    45    25    24   ar
    46    22    23   ar
    47    24    23   ar
    48    24    27    1
    49    23    26    1
    50    27    28    2
