@<TRIPOS>MOLECULE
4eji_HEM_A_1.pdb
 43 50 0 0 0
SMALL
GASTEIGER

@<TRIPOS>ATOM
      1  CHA       62.0000  -22.6180   23.9810 C.2   501  HEM501      0.0000
      2  CHB       61.7720  -25.6170   27.7370 C.2   501  HEM501      0.0000
      3  CHC       57.7220  -23.3730   29.2660 C.2   501  HEM501      0.0000
      4  CHD       57.9220  -20.3700   25.4430 C.2   501  HEM501      0.0000
      5  C1A       62.2820  -23.6570   24.8360 C.2   501  HEM501      0.0000
      6  C2A       63.4390  -24.5380   24.7570 C.2   501  HEM501      0.0000
      7  C3A       63.3930  -25.3570   25.8240 C.2   501  HEM501      0.0000
      8  C4A       62.1980  -25.0010   26.5890 C.2   501  HEM501      0.0000
      9  CMA       64.3030  -26.5110   26.2340 C.3   501  HEM501      0.0000
     10  CAA       64.4800  -24.4700   23.6080 C.3   501  HEM501      0.0000
     11  CBA       65.3810  -23.2500   23.7570 C.3   501  HEM501      0.0000
     12  CGA       66.4700  -23.4250   22.7320 C.2   501  HEM501      0.0000
     13  O1A       67.5510  -23.8980   23.1250 O.co2 501  HEM501      0.0000
     14  O2A       66.2350  -23.1560   21.5310 O.co2 501  HEM501      0.0000
     15  C1B       60.6180  -25.3580   28.4670 C.ar  501  HEM501      0.0000
     16  C2B       60.1100  -26.1190   29.6200 C.ar  501  HEM501      0.0000
     17  C3B       58.9770  -25.4650   30.0050 C.ar  501  HEM501      0.0000
     18  C4B       58.7760  -24.2850   29.1800 C.ar  501  HEM501      0.0000
     19  CMB       60.7120  -27.4490   30.1710 C.3   501  HEM501      0.0000
     20  CAB       57.9880  -25.7980   31.1090 C.2   501  HEM501      0.0000
     21  CBB       58.2440  -26.6820   32.0700 C.2   501  HEM501      0.0000
     22  C1C       57.4220  -22.3670   28.3770 C.2   501  HEM501      0.0000
     23  C2C       56.3360  -21.4120   28.4610 C.2   501  HEM501      0.0000
     24  C3C       56.3850  -20.5960   27.4130 C.2   501  HEM501      0.0000
     25  C4C       57.5310  -20.9720   26.6220 C.2   501  HEM501      0.0000
     26  CMC       55.3120  -21.3540   29.5730 C.3   501  HEM501      0.0000
     27  CAC       55.3990  -19.4520   27.1040 C.2   501  HEM501      0.0000
     28  CBC       55.8000  -18.2230   27.3750 C.2   501  HEM501      0.0000
     29  C1D       59.0330  -20.6690   24.7080 C.ar  501  HEM501      0.0000
     30  C2D       59.3870  -20.0030   23.4720 C.ar  501  HEM501      0.0000
     31  C3D       60.6580  -20.6830   23.0140 C.ar  501  HEM501      0.0000
     32  C4D       60.9420  -21.7230   23.9990 C.ar  501  HEM501      0.0000
     33  CMD       58.6170  -18.8280   22.7800 C.3   501  HEM501      0.0000
     34  CAD       61.4660  -20.3080   21.7750 C.3   501  HEM501      0.0000
     35  CBD       62.5000  -19.2370   22.1670 C.3   501  HEM501      0.0000
     36  CGD       63.4010  -18.9050   20.9750 C.2   501  HEM501      0.0000
     37  O1D       64.2790  -17.9990   21.0760 O.co2 501  HEM501      0.0000
     38  O2D       63.2720  -19.5480   19.9040 O.co2 501  HEM501      0.0000
     39  NA        61.5590  -23.9590   25.9670 N.2   501  HEM501      0.0000
     40  NB        59.7740  -24.2780   28.2610 N.ar  501  HEM501      0.0000
     41  NC        58.1100  -22.0620   27.2410 N.2   501  HEM501      0.0000
     42  ND        59.9550  -21.6760   24.9600 N.ar  501  HEM501      0.0000
     43 FE         59.8360  -23.0240   26.5900 Fe    501  HEM501      0.0000
@<TRIPOS>BOND
     1    38    36   ar
     2    36    37   ar
     3    36    35    1
     4    14    12   ar
     5    34    35    1
     6    34    31    1
     7    12    13   ar
     8    12    11    1
     9    33    30    1
    10    31    30   ar
    11    31    32   ar
    12    30    29   ar
    13    10    11    1
    14    10     6    1
    15     1    32    2
    16     1     5    1
    17    32    42   ar
    18    29    42   ar
    19    29     4    2
    20     6     5    1
    21     6     7    2
    22     5    39    2
    23    42    43    1
    24     4    25    1
    25     7     9    1
    26     7     8    1
    27    39     8    1
    28    39    43    1
    29     8     2    2
    30    43    41    1
    31    43    40    1
    32    25    41    2
    33    25    24    1
    34    27    28    2
    35    27    24    1
    36    41    22    1
    37    24    23    2
    38     2    15    1
    39    40    15   ar
    40    40    18   ar
    41    22    23    1
    42    22     3    2
    43    23    26    1
    44    15    16   ar
    45    18     3    1
    46    18    17   ar
    47    16    17   ar
    48    16    19    1
    49    17    20    1
    50    20    21    2
