@<TRIPOS>MOLECULE
4eji_0QA_A_1.pdb
 15 15 0 0 0
SMALL
GASTEIGER

@<TRIPOS>ATOM
      1  O2        57.1480  -29.0140   21.6950 O.2   502  0QA502     -0.1260
      2  N3        58.3200  -29.2530   21.4630 N.2   502  0QA502      0.0457
      3  N2        58.8190  -30.4790   21.2880 N.pl3 502  0QA502     -0.1962
      4  C10       57.6990  -31.4510   21.3010 C.3   502  0QA502      0.1372
      5  C9        59.4840  -30.4610   19.9800 C.3   502  0QA502      0.1146
      6  C8        60.9170  -30.9060   19.9930 C.3   502  0QA502      0.0314
      7  C7        61.6160  -30.1850   18.8830 C.3   502  0QA502      0.0710
      8  C6        61.8530  -31.1180   17.7220 C.2   502  0QA502      0.1746
      9  O1        60.9210  -31.5180   17.0490 O.2   502  0QA502     -0.2913
     10  C5        63.2580  -31.4950   17.3570 C.ar  502  0QA502      0.0539
     11  C1        63.5400  -32.0190   16.0840 C.ar  502  0QA502      0.0060
     12  C2        64.8620  -32.3350   15.7730 C.ar  502  0QA502      0.0208
     13  C3        65.8490  -32.1290   16.7200 C.ar  502  0QA502      0.0989
     14  N1        65.5700  -31.5960   17.9190 N.ar  502  0QA502     -0.2422
     15  C4        64.2990  -31.2790   18.2540 C.ar  502  0QA502      0.1017
@<TRIPOS>BOND
     1    12    11   ar
     2    12    13   ar
     3    11    10   ar
     4    13    14   ar
     5     9     8    2
     6    10     8    1
     7    10    15   ar
     8     8     7    1
     9    14    15   ar
    10     7     6    1
    11     5     6    1
    12     5     3    1
    13     3     4    1
    14     3     2    1
    15     2     1    2
