@<TRIPOS>MOLECULE
4ejj_NCT_A_1.pdb
 12 13 0 0 0
SMALL
GASTEIGER

@<TRIPOS>ATOM
      1  N1       -16.0840  -12.1770   -6.3300 N.ar  501  NCT501     -0.2426
      2  C1       -15.0520  -13.0080   -6.1430 C.ar  501  NCT501      0.0959
      3  C2       -14.2050  -13.2740   -7.2140 C.ar  501  NCT501      0.0114
      4  C3       -14.3920  -12.6870   -8.4680 C.ar  501  NCT501      0.0002
      5  C4       -15.4660  -11.8310   -8.6140 C.ar  501  NCT501      0.0204
      6  C5       -16.3020  -11.5860   -7.5190 C.ar  501  NCT501      0.0989
      7  N2       -12.7560  -15.0800   -8.0280 N.3   501  NCT501     -0.2691
      8  C6       -13.1350  -14.2350   -6.9380 C.3   501  NCT501      0.0817
      9  C7       -11.7620  -13.7040   -6.6520 C.3   501  NCT501      0.0220
     10  C8       -10.9540  -14.9910   -6.6530 C.3   501  NCT501      0.0191
     11  C9       -11.6360  -15.9260   -7.6160 C.3   501  NCT501      0.0724
     12  C10      -13.3300  -15.1000   -9.3450 C.3   501  NCT501      0.0899
@<TRIPOS>BOND
     1    12     7    1
     2     5     4   ar
     3     5     6   ar
     4     4     3   ar
     5     7    11    1
     6     7     8    1
     7    11    10    1
     8     6     1   ar
     9     3     8    1
    10     3     2   ar
    11     8     9    1
    12    10     9    1
    13     1     2   ar
