@<TRIPOS>MOLECULE
4ejj_HEM_A_1.pdb
 43 50 0 0 0
SMALL
GASTEIGER

@<TRIPOS>ATOM
      1  CHA       -8.4230  -12.1040   -6.4280 C.2   500  HEM500      0.0000
      2  CHB       -7.6800  -16.1610   -8.9390 C.2   500  HEM500      0.0000
      3  CHC       -9.0150  -18.6600   -5.0210 C.2   500  HEM500      0.0000
      4  CHD      -10.5160  -14.7150   -2.8010 C.2   500  HEM500      0.0000
      5  C1A       -8.0580  -12.9470   -7.4580 C.ar  500  HEM500      0.0000
      6  C2A       -7.4560  -12.5890   -8.7260 C.ar  500  HEM500      0.0000
      7  C3A       -7.2190  -13.7260   -9.3910 C.ar  500  HEM500      0.0000
      8  C4A       -7.6820  -14.8260   -8.6030 C.ar  500  HEM500      0.0000
      9  CMA       -6.6250  -13.9470  -10.7930 C.3   500  HEM500      0.0000
     10  CAA       -7.1450  -11.1260   -9.1440 C.3   500  HEM500      0.0000
     11  CBA       -5.8490  -10.7400   -8.4220 C.3   500  HEM500      0.0000
     12  CGA       -5.2990   -9.4460   -9.0110 C.2   500  HEM500      0.0000
     13  O1A       -4.0890   -9.3540   -9.2880 O.co2 500  HEM500      0.0000
     14  O2A       -6.0960   -8.5280   -9.2140 O.co2 500  HEM500      0.0000
     15  C1B       -7.9300  -17.2560   -8.0920 C.2   500  HEM500      0.0000
     16  C2B       -7.7360  -18.6240   -8.3690 C.2   500  HEM500      0.0000
     17  C3B       -8.1210  -19.2820   -7.2710 C.2   500  HEM500      0.0000
     18  C4B       -8.5680  -18.3540   -6.2800 C.2   500  HEM500      0.0000
     19  CMB       -7.1530  -19.2820   -9.6610 C.3   500  HEM500      0.0000
     20  CAB       -8.0800  -20.8330   -7.0000 C.2   500  HEM500      0.0000
     21  CBB       -8.0190  -21.7270   -7.9790 C.2   500  HEM500      0.0000
     22  C1C       -9.5440  -17.8580   -4.0550 C.ar  500  HEM500      0.0000
     23  C2C      -10.0960  -18.2150   -2.7780 C.ar  500  HEM500      0.0000
     24  C3C      -10.5420  -17.1210   -2.1650 C.ar  500  HEM500      0.0000
     25  C4C      -10.2790  -16.0270   -3.0280 C.ar  500  HEM500      0.0000
     26  CMC      -10.2330  -19.6410   -2.2290 C.3   500  HEM500      0.0000
     27  CAC      -11.2330  -17.0960   -0.8040 C.2   500  HEM500      0.0000
     28  CBC      -10.5520  -17.1530    0.3430 C.2   500  HEM500      0.0000
     29  C1D      -10.0960  -13.6330   -3.5580 C.2   500  HEM500      0.0000
     30  C2D      -10.2850  -12.2360   -3.2130 C.2   500  HEM500      0.0000
     31  C3D       -9.5850  -11.4050   -4.2990 C.2   500  HEM500      0.0000
     32  C4D       -9.0830  -12.3970   -5.2400 C.2   500  HEM500      0.0000
     33  CMD      -10.9970  -11.7100   -1.9550 C.3   500  HEM500      0.0000
     34  CAD       -9.4950   -9.8770   -4.4470 C.3   500  HEM500      0.0000
     35  CBD       -8.0780   -9.3630   -4.1620 C.3   500  HEM500      0.0000
     36  CGD       -8.0800   -7.8850   -3.8520 C.2   500  HEM500      0.0000
     37  O1D       -7.3500   -7.4110   -2.9420 O.co2 500  HEM500      0.0000
     38  O2D       -8.7960   -7.1620   -4.5390 O.co2 500  HEM500      0.0000
     39  NA        -8.1540  -14.2950   -7.4320 N.ar  500  HEM500      0.0000
     40  NB        -8.4410  -17.1500   -6.8280 N.2   500  HEM500      0.0000
     41  NC        -9.6490  -16.5320   -4.1450 N.ar  500  HEM500      0.0000
     42  ND        -9.3640  -13.6720   -4.7140 N.2   500  HEM500      0.0000
     43 FE         -8.8360  -15.4380   -5.7630 Fe    500  HEM500      0.0000
@<TRIPOS>BOND
     1     9     7    1
     2    19    16    1
     3     7     6   ar
     4     7     8   ar
     5    13    12   ar
     6    14    12   ar
     7    10     6    1
     8    10    11    1
     9    12    11    1
    10     2     8    2
    11     2    15    1
    12     6     5   ar
    13     8    39   ar
    14    16    15    1
    15    16    17    2
    16    15    40    2
    17    21    20    2
    18     5    39   ar
    19     5     1    2
    20    39    43    1
    21    17    20    1
    22    17    18    1
    23    40    18    1
    24    40    43    1
    25     1    32    1
    26    18     3    2
    27    43    42    1
    28    43    41    1
    29    32    42    2
    30    32    31    1
    31     3    22    1
    32    42    29    1
    33    38    36   ar
    34    34    31    1
    35    34    35    1
    36    31    30    2
    37    35    36    1
    38    41    22   ar
    39    41    25   ar
    40    22    23   ar
    41    36    37   ar
    42    29    30    1
    43    29     4    2
    44    30    33    1
    45    25     4    1
    46    25    24   ar
    47    23    26    1
    48    23    24   ar
    49    24    27    1
    50    27    28    2
