@<TRIPOS>MOLECULE
4ejm_NAP_A_1.pdb
 48 52 0 0 0
SMALL
GASTEIGER

@<TRIPOS>ATOM
      1  PA        42.1250   22.1100   18.9590 P.3   402  NAP402      0.2189
      2  O1A       41.4990   21.7940   20.2980 O.3   402  NAP402     -0.4371
      3  O2A       41.9880   23.4000   18.2350 O.2   402  NAP402     -0.5170
      4  O5B       43.6620   21.7020   19.0000 O.3   402  NAP402     -0.3112
      5  C5B       44.6180   22.4880   18.3280 C.3   402  NAP402      0.1813
      6  C4B       45.5340   23.0170   19.3940 C.3   402  NAP402      0.1820
      7  O4B       46.7490   23.4030   18.7720 O.3   402  NAP402     -0.3136
      8  C3B       45.0530   24.2270   20.1820 C.3   402  NAP402      0.2157
      9  O3B       44.2790   23.8260   21.3060 O.3   402  NAP402     -0.2175
     10  C2B       46.3550   24.8130   20.6700 C.3   402  NAP402      0.2314
     11  O2B       46.6360   24.3980   22.0200 O.3   402  NAP402     -0.2630
     12  C1B       47.4180   24.2250   19.7270 C.3   402  NAP402      0.3158
     13  N9A       48.1960   25.2420   19.0130 N.pl3 402  NAP402     -0.1439
     14  C8A       47.7300   26.3890   18.4600 C.3   402  NAP402      0.3377
     15  N7A       48.7730   27.0570   17.8960 N.2   402  NAP402     -0.2095
     16  C5A       49.8980   26.3340   18.0820 C.2   402  NAP402      0.2526
     17  C6A       51.3350   26.4420   17.7330 C.2   402  NAP402      0.4393
     18  N6A       51.7910   27.5160   17.0510 N.pl3 402  NAP402      0.2180
     19  N1A       52.1830   25.4540   18.1110 N.2   402  NAP402      0.0021
     20  C2A       51.7530   24.3780   18.7800 C.3   402  NAP402      0.5254
     21  N3A       50.4560   24.2090   19.1160 N.2   402  NAP402     -0.0055
     22  C4A       49.5060   25.1280   18.8080 C.2   402  NAP402      0.3518
     23  O3        41.5030   21.1160   17.8830 O.3   402  NAP402     -0.2703
     24  PN        41.4640   19.5260   17.7410 P.3   402  NAP402      0.2189
     25  O1N       40.0530   19.0580   17.8670 O.2   402  NAP402     -0.5170
     26  O2N       42.6080   18.8580   18.4600 O.3   402  NAP402     -0.4371
     27  O5D       41.6880   19.5310   16.1340 O.3   402  NAP402     -0.3112
     28  C5D       42.9910   19.8790   15.6420 C.3   402  NAP402      0.1813
     29  C4D       42.9560   20.1290   14.1390 C.3   402  NAP402      0.1799
     30  O4D       42.6290   18.9270   13.4350 O.3   402  NAP402     -0.3327
     31  C3D       41.8870   21.1320   13.7400 C.3   402  NAP402      0.2158
     32  O3D       42.4350   21.8950   12.6830 O.3   402  NAP402     -0.2175
     33  C2D       40.7370   20.2740   13.2800 C.3   402  NAP402      0.2309
     34  O2D       39.9720   20.9490   12.3150 O.3   402  NAP402     -0.2158
     35  C1D       41.4540   19.1020   12.6440 C.3   402  NAP402      0.2263
     36  N1N       40.7650   17.8060   12.5000 N.pl3 402  NAP402     -0.2787
     37  C2N       41.0860   17.0940   11.3900 C.3   402  NAP402      0.1244
     38  C3N       40.5680   15.8330   11.1220 C.2   402  NAP402      0.0544
     39  C7N       40.9550   15.0740    9.8520 C.2   402  NAP402      0.2818
     40  O7N       40.2360   14.1620    9.4120 O.2   402  NAP402     -0.2670
     41  N7N       42.0960   15.3810    9.2120 N.am  402  NAP402     -0.0839
     42  C4N       39.6790   15.3050   12.0640 C.2   402  NAP402      0.0033
     43  C5N       39.3670   16.0310   13.2040 C.2   402  NAP402      0.0157
     44  C6N       39.9230   17.2900   13.4140 C.2   402  NAP402      0.0633
     45  P2B       47.5930   25.3970   22.8980 P.3   402  NAP402      0.5328
     46  O1X       48.7140   25.7820   21.9350 O.2   402  NAP402     -0.2224
     47  O2X       48.0640   24.5720   24.0530 O.3   402  NAP402     -0.1145
     48  O3X       46.5670   26.4460   23.2130 O.3   402  NAP402     -0.1145
@<TRIPOS>BOND
     1    41    39   am
     2    40    39    2
     3    39    38    1
     4    38    37    1
     5    38    42    2
     6    37    36    1
     7    42    43    1
     8    34    33    1
     9    36    35    1
    10    36    44    1
    11    35    33    1
    12    35    30    1
    13    32    31    1
    14    43    44    2
    15    33    31    1
    16    30    29    1
    17    31    29    1
    18    29    28    1
    19    28    27    1
    20    27    24    1
    21    18    17    1
    22    17    16    1
    23    17    19    2
    24    24    25    2
    25    24    23    1
    26    24    26    1
    27    23     1    1
    28    15    16    2
    29    15    14    1
    30    16    22    1
    31    19    20    1
    32     3     1    2
    33     5     4    1
    34     5     6    1
    35    14    13    1
    36     7     6    1
    37     7    12    1
    38    20    21    1
    39    22    13    1
    40    22    21    2
    41     1     4    1
    42     1     2    1
    43    13    12    1
    44     6     8    1
    45    12    10    1
    46     8    10    1
    47     8     9    1
    48    10    11    1
    49    46    45    2
    50    11    45    1
    51    45    48    1
    52    45    47    1
