@<TRIPOS>MOLECULE
4ejn_0R4_A_1.pdb
 43 48 0 0 0
SMALL
GASTEIGER

@<TRIPOS>ATOM
      1  O1        37.4060   46.1000   24.7550 O.2   501  0R4501     -0.2730
      2  C21       37.6080   45.1470   25.5140 C.2   501  0R4501      0.2461
      3  C22       37.9110   45.3590   26.9720 C.3   501  0R4501      0.0968
      4  N5        37.5780   43.8520   25.1510 N.am  501  0R4501     -0.1792
      5  C17       37.3860   43.3700   23.8850 C.ar  501  0R4501      0.0734
      6  C18       36.7520   42.1290   23.7160 C.ar  501  0R4501      0.0166
      7  C19       36.5440   41.6320   22.4240 C.ar  501  0R4501      0.0014
      8  C20       36.9660   42.3530   21.3040 C.ar  501  0R4501      0.0026
      9  C16       37.8090   44.0840   22.7580 C.ar  501  0R4501      0.0191
     10  C15       37.6110   43.5850   21.4670 C.ar  501  0R4501      0.0309
     11  C3        38.0690   44.3530   20.2650 C.2   501  0R4501      0.1333
     12  C2        39.2830   45.0680   20.2480 C.2   501  0R4501      0.0349
     13  C1        39.6940   45.7840   19.1070 C.2   501  0R4501      0.0388
     14  N1        37.2830   44.3380   19.1740 N.2   501  0R4501     -0.3836
     15  C5        37.6280   45.0110   18.0490 C.2   501  0R4501      0.2224
     16  C4        38.8780   45.7790   17.9700 C.2   501  0R4501      0.1774
     17  N2        38.9270   46.3140   16.7150 N.2   501  0R4501     -0.3822
     18  C6        37.8160   45.9400   16.0130 C.2   501  0R4501      0.1955
     19  C23       37.4720   46.3210   14.6110 C.ar  501  0R4501      0.0794
     20  C24       37.7940   47.6850   14.0980 C.ar  501  0R4501      0.1734
     21  N7        38.4030   48.6180   14.8950 N.pl3 501  0R4501     -0.1071
     22  N6        37.4590   47.9820   12.8310 N.ar  501  0R4501     -0.2258
     23  C25       36.8450   47.0960   12.0140 C.ar  501  0R4501      0.1004
     24  C26       36.5250   45.8020   12.4540 C.ar  501  0R4501      0.0209
     25  C27       36.8440   45.4090   13.7480 C.ar  501  0R4501      0.0084
     26  N3        37.1010   45.1460   16.8410 N.pl3 501  0R4501     -0.2143
     27  C7        35.8780   44.6160   16.6130 C.ar  501  0R4501      0.0602
     28  C8        34.8280   45.4280   16.1360 C.ar  501  0R4501      0.0150
     29  C9        33.5310   44.9580   15.9290 C.ar  501  0R4501     -0.0013
     30  C12       35.5150   43.2870   16.9200 C.ar  501  0R4501      0.0150
     31  C11       34.2250   42.8060   16.7360 C.ar  501  0R4501     -0.0013
     32  C10       33.2210   43.6480   16.2480 C.ar  501  0R4501     -0.0005
     33  C13       31.8080   43.1450   16.0250 C.3   501  0R4501      0.1418
     34  N4        31.4140   42.2840   17.1250 N.am  501  0R4501     -0.1968
     35  C14       30.4250   41.4270   16.9210 C.2   501  0R4501      0.2652
     36  O2        29.6700   41.5770   15.9770 O.2   501  0R4501     -0.2684
     37  C28       30.2050   40.2530   17.8160 C.ar  501  0R4501      0.0573
     38  C33       31.2700   39.5110   18.3300 C.ar  501  0R4501      0.0342
     39  C29       28.8870   39.8870   18.1060 C.ar  501  0R4501      0.0047
     40  C30       28.6250   38.7960   18.9300 C.ar  501  0R4501      0.0025
     41  C31       29.6780   38.0520   19.4450 C.ar  501  0R4501      0.0296
     42  C32       30.9880   38.4080   19.1500 C.ar  501  0R4501      0.1403
     43  F1        31.9860   37.6690   19.6790 F     501  0R4501     -0.2042
@<TRIPOS>BOND
     1    23    24   ar
     2    23    22   ar
     3    24    25   ar
     4    22    20   ar
     5    25    19   ar
     6    20    19   ar
     7    20    21    1
     8    19    18    1
     9    29    28   ar
    10    29    32   ar
    11    36    35    2
    12    18    17    2
    13    18    26    1
    14    33    32    1
    15    33    34    1
    16    28    27   ar
    17    32    31   ar
    18    27    26    1
    19    27    30   ar
    20    17    16    2
    21    31    30   ar
    22    26    15    1
    23    35    34   am
    24    35    37    1
    25    37    39   ar
    26    37    38   ar
    27    16    15    1
    28    16    13    1
    29    15    14    2
    30    39    40   ar
    31    38    42   ar
    32    40    41   ar
    33    13    12    2
    34    42    41   ar
    35    42    43    1
    36    14    11    2
    37    12    11    1
    38    11    10    1
    39     8    10   ar
    40     8     7   ar
    41    10     9   ar
    42     7     6   ar
    43     9     5   ar
    44     6     5   ar
    45     5     4    1
    46     1     2    2
    47     4     2   am
    48     2     3    1
