@<TRIPOS>MOLECULE
4ek1_HEM_A_1.pdb
 43 50 0 0 0
SMALL
GASTEIGER

@<TRIPOS>ATOM
      1  CHA       20.4570    2.1230   -4.1570 C.2   501  HEM501      0.0000
      2  CHB       24.2310    0.2920   -1.7440 C.2   501  HEM501      0.0000
      3  CHC       26.0660    4.7370   -1.0320 C.2   501  HEM501      0.0000
      4  CHD       21.7750    6.5500   -2.4370 C.2   501  HEM501      0.0000
      5  C1A       21.3140    1.2060   -3.5870 C.2   501  HEM501      0.0000
      6  C2A       21.2040   -0.2480   -3.6010 C.2   501  HEM501      0.0000
      7  C3A       22.2550   -0.7380   -2.9410 C.2   501  HEM501      0.0000
      8  C4A       23.0580    0.3740   -2.4850 C.2   501  HEM501      0.0000
      9  CMA       22.5240   -2.2420   -2.6850 C.3   501  HEM501      0.0000
     10  CAA       20.0790   -1.0820   -4.2520 C.3   501  HEM501      0.0000
     11  CBA       18.8640   -1.1940   -3.3290 C.3   501  HEM501      0.0000
     12  CGA       17.6980   -1.9210   -3.9570 C.2   501  HEM501      0.0000
     13  O1A       17.7830   -2.2970   -5.1450 O.co2 501  HEM501      0.0000
     14  O2A       16.6480   -2.1450   -3.2930 O.co2 501  HEM501      0.0000
     15  C1B       25.0680    1.3210   -1.3530 C.ar  501  HEM501      0.0000
     16  C2B       26.3410    1.1800   -0.6940 C.ar  501  HEM501      0.0000
     17  C3B       26.8620    2.4060   -0.4980 C.ar  501  HEM501      0.0000
     18  C4B       25.9270    3.3690   -1.0290 C.ar  501  HEM501      0.0000
     19  CMB       26.9530   -0.1840   -0.3090 C.3   501  HEM501      0.0000
     20  CAB       28.2030    2.8370    0.1590 C.2   501  HEM501      0.0000
     21  CBB       29.1550    1.9890    0.5280 C.2   501  HEM501      0.0000
     22  C1C       25.0160    5.6210   -1.2630 C.2   501  HEM501      0.0000
     23  C2C       24.9780    7.0190   -0.9140 C.2   501  HEM501      0.0000
     24  C3C       23.7830    7.5080   -1.2840 C.2   501  HEM501      0.0000
     25  C4C       23.0390    6.4410   -1.8970 C.2   501  HEM501      0.0000
     26  CMC       26.1340    7.7550   -0.2120 C.3   501  HEM501      0.0000
     27  CAC       23.2530    8.9390   -1.1470 C.2   501  HEM501      0.0000
     28  CBC       24.0930    9.9510   -1.3860 C.2   501  HEM501      0.0000
     29  C1D       21.0410    5.5440   -3.0350 C.ar  501  HEM501      0.0000
     30  C2D       19.7640    5.7680   -3.6600 C.ar  501  HEM501      0.0000
     31  C3D       19.3460    4.3980   -4.2040 C.ar  501  HEM501      0.0000
     32  C4D       20.4150    3.4880   -3.8600 C.ar  501  HEM501      0.0000
     33  CMD       19.0440    7.1340   -3.7200 C.3   501  HEM501      0.0000
     34  CAD       18.0650    4.0140   -4.9620 C.3   501  HEM501      0.0000
     35  CBD       18.3350    4.0080   -6.4770 C.3   501  HEM501      0.0000
     36  CGD       17.0290    3.6820   -7.1410 C.2   501  HEM501      0.0000
     37  O1D       16.8700    3.8840   -8.3720 O.co2 501  HEM501      0.0000
     38  O2D       16.1150    3.1890   -6.4440 O.co2 501  HEM501      0.0000
     39  NA        22.4670    1.5440   -2.9280 N.2   501  HEM501      0.0000
     40  NB        24.8640    2.6740   -1.5680 N.ar  501  HEM501      0.0000
     41  NC        23.8270    5.3170   -1.8890 N.2   501  HEM501      0.0000
     42  ND        21.4100    4.2150   -3.2170 N.ar  501  HEM501      0.0000
     43 FE         23.1780    3.4470   -2.4810 Fe    501  HEM501      0.0000
@<TRIPOS>BOND
     1    37    36   ar
     2    36    35    1
     3    36    38   ar
     4    35    34    1
     5    13    12   ar
     6    34    31    1
     7    10     6    1
     8    10    11    1
     9    31    32   ar
    10    31    30   ar
    11     1    32    2
    12     1     5    1
    13    12    11    1
    14    12    14   ar
    15    32    42   ar
    16    33    30    1
    17    30    29   ar
    18     6     5    1
    19     6     7    2
    20     5    39    2
    21    42    29   ar
    22    42    43    1
    23    29     4    2
    24     7     9    1
    25     7     8    1
    26    39     8    1
    27    39    43    1
    28     8     2    2
    29    43    41    1
    30    43    40    1
    31     4    25    1
    32    25    41    2
    33    25    24    1
    34    41    22    1
    35     2    15    1
    36    40    15   ar
    37    40    18   ar
    38    28    27    2
    39    15    16   ar
    40    24    27    1
    41    24    23    2
    42    22     3    2
    43    22    23    1
    44     3    18    1
    45    18    17   ar
    46    23    26    1
    47    16    17   ar
    48    16    19    1
    49    17    20    1
    50    20    21    2
