@<TRIPOS>MOLECULE
4ek1_CAM_A_1.pdb
 11 12 0 0 0
SMALL
GASTEIGER

@<TRIPOS>ATOM
      1  C1        19.0460    1.8560    1.5990 C.3   502  CAM502      0.0282
      2  C2        17.7250    1.7590    0.8650 C.3   502  CAM502      0.1519
      3  O         16.4410    1.8640    1.4420 O.3   502  CAM502     -0.2232
      4  C3        17.9790    1.5430   -0.6080 C.3   502  CAM502      0.0329
      5  C4        19.5130    1.5950   -0.5820 C.3   502  CAM502      0.0026
      6  C5        19.8340    3.0670   -0.2810 C.3   502  CAM502      0.0002
      7  C6        19.6070    3.2270    1.2260 C.3   502  CAM502      0.0024
      8  C7        19.8490    0.9030    0.7360 C.3   502  CAM502      0.0024
      9  C8        19.2870   -0.5190    0.7780 C.3   502  CAM502      0.0001
     10  C9        21.3390    0.9290    1.0770 C.3   502  CAM502      0.0001
     11  C10       19.0000    1.5490    3.0880 C.3   502  CAM502      0.0025
@<TRIPOS>BOND
     1     4     5    1
     2     4     2    1
     3     5     6    1
     4     5     8    1
     5     6     7    1
     6     8     9    1
     7     8    10    1
     8     8     1    1
     9     2     3    1
    10     2     1    1
    11     7     1    1
    12     1    11    1
