@<TRIPOS>MOLECULE
4ek1_MTN_A_1.pdb
 12 12 0 0 0
SMALL
GASTEIGER

@<TRIPOS>ATOM
      1  O1        29.6910  -30.2420    8.2900 O.3   504  MTN504     -0.1175
      2  N1        29.5280  -29.4790    7.1510 N.4   504  MTN504     -0.1311
      3  C1        28.2240  -29.1180    6.6380 C.3   504  MTN504      0.0909
      4  C2        28.5690  -28.2330    5.4730 C.2   504  MTN504     -0.0160
      5  C3        29.8890  -28.2280    5.2620 C.2   504  MTN504     -0.0205
      6  C4        30.4890  -27.5190    4.0670 C.3   504  MTN504      0.0917
      7  S1        30.5930  -28.6310    2.6300 S.3   504  MTN504     -0.0773
      8  C5        30.6290  -28.9710    6.3530 C.3   504  MTN504      0.0886
      9  C6        31.5150  -28.0310    7.1690 C.3   504  MTN504      0.0227
     10  C7        31.4400  -30.1490    5.8200 C.3   504  MTN504      0.0227
     11  C8        27.4780  -30.3590    6.1650 C.3   504  MTN504      0.0230
     12  C9        27.4140  -28.3310    7.6680 C.3   504  MTN504      0.0230
@<TRIPOS>BOND
     1     7     6    1
     2     6     5    1
     3     5     4    2
     4     5     8    1
     5     4     3    1
     6    10     8    1
     7    11     3    1
     8     8     2    1
     9     8     9    1
    10     3     2    1
    11     3    12    1
    12     2     1    1
