@<TRIPOS>MOLECULE
4ek2_DA_A_1.pdb
 22 24 0 0 0
SMALL
GASTEIGER

@<TRIPOS>ATOM
      1  OP3      -37.8520   16.2440  -13.3870 O.3   203  DA203      -0.1145
      2  P        -36.3690   16.3220  -13.4430 P.3   203  DA203       0.5327
      3  OP1      -35.8740   15.3420  -14.4420 O.2   203  DA203      -0.2224
      4  OP2      -35.8840   16.2240  -12.0440 O.3   203  DA203      -0.1145
      5  O5'      -36.0360   17.7980  -13.9870 O.3   203  DA203      -0.2675
      6  C5'      -34.8020   18.1110  -14.6260 C.3   203  DA203       0.1859
      7  C4'      -34.0480   19.1660  -13.8360 C.3   203  DA203       0.1796
      8  O4'      -34.6170   20.4640  -14.1450 O.3   203  DA203      -0.3155
      9  C3'      -34.1120   19.0680  -12.3200 C.3   203  DA203       0.1883
     10  O3'      -32.8510   19.4680  -11.8100 O.3   203  DA203      -0.2202
     11  C2'      -35.2930   19.9870  -11.9370 C.3   203  DA203       0.1151
     12  C1'      -35.2150   21.0790  -13.0130 C.3   203  DA203       0.2873
     13  N9       -36.4280   21.6850  -13.5670 N.pl3 203  DA203      -0.1460
     14  C8       -37.7400   21.2850  -13.5500 C.3   203  DA203       0.3377
     15  N7       -38.5510   22.0930  -14.2000 N.2   203  DA203      -0.2095
     16  C5       -37.7100   23.0860  -14.6840 C.2   203  DA203       0.2526
     17  C6       -37.9170   24.2540  -15.4500 C.2   203  DA203       0.4393
     18  N6       -39.1180   24.6600  -15.9080 N.pl3 203  DA203       0.2180
     19  N1       -36.8320   25.0110  -15.7410 N.2   203  DA203       0.0021
     20  C2       -35.6370   24.6300  -15.3090 C.3   203  DA203       0.5254
     21  N3       -35.3200   23.5600  -14.5810 N.2   203  DA203      -0.0055
     22  C4       -36.4060   22.8330  -14.3080 C.2   203  DA203       0.3518
@<TRIPOS>BOND
     1    18    17    1
     2    19    17    2
     3    19    20    1
     4    17    16    1
     5    20    21    1
     6    16    22    1
     7    16    15    2
     8     6     5    1
     9     6     7    1
    10    21    22    2
    11     3     2    2
    12    22    13    1
    13    15    14    1
    14     8     7    1
    15     8    12    1
    16     5     2    1
    17     7     9    1
    18    13    14    1
    19    13    12    1
    20     2     1    1
    21     2     4    1
    22    12    11    1
    23     9    11    1
    24     9    10    1
