@<TRIPOS>MOLECULE
4ek7_BGC_A_1.pdb
 24 24 0 0 0
SMALL
GASTEIGER

@<TRIPOS>ATOM
      1  C2        35.2460   46.0750   33.1110 C.3   601  BGC601      0.1339
      2  C3        34.6780   45.6970   34.4590 C.3   601  BGC601      0.1141
      3  C4        34.8930   44.2400   34.7070 C.3   601  BGC601      0.1119
      4  C5        36.3670   44.0030   34.6900 C.3   601  BGC601      0.1130
      5  C6        36.8370   42.6090   34.9150 C.3   601  BGC601      0.0730
      6  C1        36.5840   45.4370   32.8110 C.3   601  BGC601      0.1854
      7  O1        36.6150   45.0340   31.4800 O.3   601  BGC601     -0.3649
      8  O2        35.5160   47.4700   33.1050 O.3   601  BGC601     -0.3841
      9  O3        33.3250   46.0620   34.6200 O.3   601  BGC601     -0.3864
     10  O4        34.4130   43.9160   36.0020 O.3   601  BGC601     -0.3865
     11  O5        36.8380   44.2130   33.4030 O.3   601  BGC601     -0.3407
     12  O6        38.1120   42.5060   34.2590 O.3   601  BGC601     -0.3924
     13  H2        34.5340   45.8030   32.3260 H     601  BGC601      0.0671
     14  H3        35.2420   46.2590   35.2090 H     601  BGC601      0.0648
     15  H4        34.4130   43.6540   33.9190 H     601  BGC601      0.0647
     16  H5        36.8720   44.6520   35.4110 H     601  BGC601      0.0647
     17 H6C1       36.1180   41.9170   34.4850 H     601  BGC601      0.0584
     18 H6C2       36.9250   42.4100   35.9810 H     601  BGC601      0.0584
     19  H1        37.3920   46.1430   33.0310 H     601  BGC601      0.0935
     20  HA        37.4910   44.6880   31.2530 H     601  BGC601      0.2126
     21  HB        34.8770   47.9240   33.6650 H     601  BGC601      0.2101
     22  HC        33.0210   46.5840   33.8700 H     601  BGC601      0.2100
     23  HD        34.0830   44.7070   36.4470 H     601  BGC601      0.2100
     24  H6        38.6490   43.2760   34.4660 H     601  BGC601      0.2095
@<TRIPOS>BOND
     1    20     7    1
     2     7     6    1
     3    13     1    1
     4     6    19    1
     5     6     1    1
     6     6    11    1
     7     8     1    1
     8     8    21    1
     9     1     2    1
    10    11     4    1
    11    22     9    1
    12    15     3    1
    13    12    24    1
    14    12     5    1
    15     2     9    1
    16     2     3    1
    17     2    14    1
    18    17     5    1
    19     4     3    1
    20     4     5    1
    21     4    16    1
    22     3    10    1
    23     5    18    1
    24    10    23    1
