@<TRIPOS>MOLECULE
4ek9_EP4_A_1.pdb
 21 23 0 0 0
SMALL
GASTEIGER

@<TRIPOS>ATOM
      1  CG        45.8240   53.2690    9.2590 C.3   501  EP4501      0.0897
      2  N2        44.6520   52.6310    9.8840 N.3   501  EP4501     -0.2682
      3  CE        43.5190   52.8210    8.9750 C.3   501  EP4501      0.0897
      4  C5'       44.9520   51.2040   10.1340 C.3   501  EP4501      0.1049
      5  C4'       43.9850   50.5480   11.1450 C.3   501  EP4501      0.1682
      6  O4'       44.4600   49.1890   11.2980 O.3   501  EP4501     -0.3147
      7  C1'       44.0440   48.7730   12.6180 C.3   501  EP4501      0.3186
      8  N9        44.7650   47.5500   13.0770 N.pl3 501  EP4501     -0.1439
      9  C4        44.2130   46.3200   13.0790 C.2   501  EP4501      0.3518
     10  N3        42.9870   45.8890   12.7050 N.2   501  EP4501     -0.0055
     11  C2        42.6700   44.5130   12.8120 C.3   501  EP4501      0.5254
     12  N1        43.6350   43.6230   13.3160 N.2   501  EP4501      0.0021
     13  C6        44.8420   44.1290   13.6740 C.2   501  EP4501      0.4393
     14  N6        45.8060   43.3100   14.1320 N.pl3 501  EP4501      0.2180
     15  C5        45.1430   45.4530   13.5550 C.2   501  EP4501      0.2526
     16  N7        46.2660   46.1750   13.8310 N.2   501  EP4501     -0.2095
     17  C8        46.0300   47.4620   13.5340 C.3   501  EP4501      0.3377
     18  C2'       44.4390   49.9320   13.4580 C.3   501  EP4501      0.2569
     19  O2'       43.6080   49.8450   14.6440 O.3   501  EP4501     -0.2130
     20  C3'       44.1030   51.1420   12.5600 C.3   501  EP4501      0.2173
     21  O3'       42.8040   51.6030   12.9290 O.3   501  EP4501     -0.2175
@<TRIPOS>BOND
     1     3     2    1
     2     1     2    1
     3     2     4    1
     4     4     5    1
     5     5     6    1
     6     5    20    1
     7     6     7    1
     8    20    21    1
     9    20    18    1
    10     7     8    1
    11     7    18    1
    12    10    11    1
    13    10     9    2
    14    11    12    1
    15     8     9    1
    16     8    17    1
    17     9    15    1
    18    12    13    2
    19    18    19    1
    20    17    16    1
    21    15    13    1
    22    15    16    2
    23    13    14    1
