@<TRIPOS>MOLECULE
4ekc_GDP_A_1.pdb
 28 30 0 0 0
SMALL
GASTEIGER

@<TRIPOS>ATOM
      1  PB       -11.7340   10.2500   26.3480 P.3   400  GDP400      0.5373
      2  O1B      -12.8330    9.3150   26.7850 O.3   400  GDP400     -0.1143
      3  O2B      -12.1370   11.6950   26.2390 O.2   400  GDP400     -0.2221
      4  O3B      -10.4250   10.0420   27.0520 O.3   400  GDP400     -0.1143
      5  O3A      -11.4360    9.8130   24.8250 O.3   400  GDP400     -0.2261
      6  PA       -10.6990   10.8240   23.8060 P.3   400  GDP400      0.2231
      7  O1A      -11.7470   11.5340   22.9870 O.2   400  GDP400     -0.5169
      8  O2A       -9.7050   11.6410   24.5950 O.3   400  GDP400     -0.4370
      9  O5'       -9.8810    9.8590   22.7990 O.3   400  GDP400     -0.3111
     10  C5'       -8.9430    8.8940   23.2850 C.3   400  GDP400      0.1813
     11  C4'       -7.8170    8.5570   22.2930 C.3   400  GDP400      0.1799
     12  O4'       -8.2420    7.4960   21.4300 O.3   400  GDP400     -0.3326
     13  C3'       -7.3550    9.7000   21.3910 C.3   400  GDP400      0.2158
     14  O3'       -5.9230    9.7800   21.3980 O.3   400  GDP400     -0.2175
     15  C2'       -7.8580    9.3610   20.0000 C.3   400  GDP400      0.2310
     16  O2'       -6.8700    9.6250   18.9980 O.3   400  GDP400     -0.2158
     17  C1'       -8.1980    7.8770   20.0510 C.3   400  GDP400      0.2293
     18  N9        -9.5030    7.5560   19.4050 N.pl3 400  GDP400     -0.2354
     19  C8       -10.7150    8.0610   19.7210 C.3   400  GDP400      0.2246
     20  N7       -11.6820    7.5280   18.9260 N.2   400  GDP400     -0.2322
     21  C5       -11.0940    6.6600   18.0820 C.2   400  GDP400      0.2182
     22  C6       -11.5210    5.7530   16.9840 C.1   400  GDP400      0.2372
     23  O6       -12.7190    5.6680   16.6390 O.2   400  GDP400     -0.2069
     24  N1       -10.5830    5.0170   16.3660 N.2   400  GDP400     -0.2485
     25  C2        -9.2770    5.0810   16.7120 C.1   400  GDP400      0.2531
     26  N2        -8.3690    4.3210   16.0550 N.pl3 400  GDP400     -0.0226
     27  N3        -8.8180    5.8880   17.7040 N.2   400  GDP400     -0.3074
     28  C4        -9.6590    6.6820   18.4090 C.2   400  GDP400      0.2300
@<TRIPOS>BOND
     1    26    25    1
     2    24    25    2
     3    24    22    2
     4    23    22    2
     5    25    27    2
     6    22    21    1
     7    27    28    2
     8    21    28    1
     9    21    20    2
    10    28    18    1
    11    20    19    1
    12    16    15    1
    13    18    19    1
    14    18    17    1
    15    15    17    1
    16    15    13    1
    17    17    12    1
    18    13    14    1
    19    13    11    1
    20    12    11    1
    21    11    10    1
    22     9    10    1
    23     9     6    1
    24     7     6    2
    25     6     8    1
    26     6     5    1
    27     5     1    1
    28     3     1    2
    29     1     2    1
    30     1     4    1
