@<TRIPOS>MOLECULE
4ekd_GDP_A_1.pdb
 28 30 0 0 0
SMALL
GASTEIGER

@<TRIPOS>ATOM
      1  PB       -31.4320   17.5740  -19.6120 P.3   401  GDP401      0.5373
      2  O1B      -30.7360   18.1930  -18.4210 O.3   401  GDP401     -0.1143
      3  O2B      -31.9820   16.1780  -19.4030 O.3   401  GDP401     -0.1143
      4  O3B      -32.3720   18.5290  -20.2330 O.2   401  GDP401     -0.2221
      5  O3A      -30.3670   17.3430  -20.8000 O.3   401  GDP401     -0.2261
      6  PA       -30.6500   16.1110  -21.8220 P.3   401  GDP401      0.2231
      7  O1A      -30.4270   14.8500  -21.0240 O.3   401  GDP401     -0.4370
      8  O2A      -31.9570   16.3760  -22.5500 O.2   401  GDP401     -0.5169
      9  O5'      -29.4460   16.1620  -22.8870 O.3   401  GDP401     -0.3111
     10  C5'      -29.0150   17.4360  -23.3720 C.3   401  GDP401      0.1813
     11  C4'      -28.6220   17.3620  -24.8410 C.3   401  GDP401      0.1799
     12  O4'      -27.1970   17.3240  -24.9160 O.3   401  GDP401     -0.3326
     13  C3'      -29.1080   16.1130  -25.5770 C.3   401  GDP401      0.2158
     14  O3'      -29.2800   16.3700  -26.9800 O.3   401  GDP401     -0.2175
     15  C2'      -27.9850   15.1270  -25.3710 C.3   401  GDP401      0.2310
     16  O2'      -27.8590   14.2080  -26.4360 O.3   401  GDP401     -0.2158
     17  C1'      -26.7760   16.0250  -25.3600 C.3   401  GDP401      0.2293
     18  N9       -25.7440   15.5540  -24.4310 N.pl3 401  GDP401     -0.2354
     19  C8       -25.8960   15.2160  -23.1470 C.3   401  GDP401      0.2246
     20  N7       -24.6970   14.8680  -22.6150 N.2   401  GDP401     -0.2322
     21  C5       -23.7710   14.9980  -23.5730 C.2   401  GDP401      0.2182
     22  C6       -22.3120   14.7940  -23.6850 C.1   401  GDP401      0.2372
     23  O6       -21.6440   14.4090  -22.7000 O.2   401  GDP401     -0.2069
     24  N1       -21.7430   15.0510  -24.8710 N.2   401  GDP401     -0.2485
     25  C2       -22.4560   15.4780  -25.9450 C.1   401  GDP401      0.2531
     26  N2       -21.8220   15.7210  -27.1260 N.pl3 401  GDP401     -0.0226
     27  N3       -23.7990   15.6760  -25.9090 N.2   401  GDP401     -0.3074
     28  C4       -24.4780   15.4570  -24.7670 C.2   401  GDP401      0.2300
@<TRIPOS>BOND
     1    26    25    1
     2    14    13    1
     3    16    15    1
     4    25    27    2
     5    25    24    2
     6    27    28    2
     7    13    15    1
     8    13    11    1
     9    15    17    1
    10    17    12    1
    11    17    18    1
    12    12    11    1
    13    24    22    2
    14    11    10    1
    15    28    18    1
    16    28    21    1
    17    18    19    1
    18    22    21    1
    19    22    23    2
    20    21    20    2
    21    10     9    1
    22    19    20    1
    23     9     6    1
    24     8     6    2
    25     6     7    1
    26     6     5    1
    27     5     1    1
    28     4     1    2
    29     1     3    1
    30     1     2    1
