@<TRIPOS>MOLECULE
4eke_D1I_A_1.pdb
 26 28 0 0 0
SMALL
GASTEIGER

@<TRIPOS>ATOM
      1  N1        34.0200   23.6700   28.7350 N.am  901  D1I901     -0.1781
      2  C2        33.2910   24.1980   29.7450 C.1   901  D1I901      0.2771
      3  O2        32.0630   24.1480   29.7990 O.2   901  D1I901     -0.1925
      4  N3        33.8990   24.9500   30.7170 N.2   901  D1I901     -0.2839
      5  C4        35.3310   24.8250   30.7920 C.2   901  D1I901      0.2870
      6  C5        36.0440   24.4570   29.6610 C.2   901  D1I901      0.0638
      7  O5        36.0380   25.7220   31.5790 O.2   901  D1I901     -0.4548
      8  C6        35.4380   23.7520   28.7040 C.2   901  D1I901      0.0810
      9  C7        37.3090   24.7000   30.0110 C.3   901  D1I901      0.0772
     10  C8        37.3120   25.4490   31.1540 C.3   901  D1I901      0.1731
     11  C9        38.6270   25.9820   31.8180 C.3   901  D1I901      0.0440
     12  C1'       33.2750   22.8820   27.7560 C.3   901  D1I901      0.2400
     13  C10       38.5290   27.5060   32.2400 C.3   901  D1I901      0.0037
     14  C11       38.6750   27.7410   33.7750 C.3   901  D1I901      0.0001
     15  C12       39.6980   26.7960   34.4580 C.3   901  D1I901      0.0000
     16  C13       40.0800   27.3380   35.8490 C.3   901  D1I901      0.0000
     17  C2'       33.6900   23.0390   26.3120 C.3   901  D1I901      0.2320
     18  O2'       33.9220   24.4180   25.9970 O.3   901  D1I901     -0.2157
     19  C3'       32.5590   22.4200   25.4650 C.3   901  D1I901      0.2190
     20  O3'       32.9110   22.3730   24.1090 O.3   901  D1I901     -0.2174
     21  C4'       32.3220   20.9940   25.9170 C.3   901  D1I901      0.2144
     22  O4'       31.1980   20.4600   25.2050 O.3   901  D1I901     -0.2176
     23  C5'       32.1250   20.8660   27.4440 C.3   901  D1I901      0.1828
     24  O5'       33.2190   21.4640   28.1430 O.3   901  D1I901     -0.3318
     25  C6'       32.1580   19.4050   27.8750 C.3   901  D1I901      0.2142
     26  O6'       33.2000   18.6870   27.2470 O.3   901  D1I901     -0.2176
@<TRIPOS>BOND
     1    20    19    1
     2    22    21    1
     3    19    21    1
     4    19    17    1
     5    21    23    1
     6    18    17    1
     7    17    12    1
     8    26    25    1
     9    23    25    1
    10    23    24    1
    11    12    24    1
    12    12     1    1
    13     8     1    1
    14     8     6    2
    15     1     2   am
    16     6     9    1
    17     6     5    1
    18     2     3    2
    19     2     4    2
    20     9    10    1
    21     4     5    2
    22     5     7    1
    23    10     7    1
    24    10    11    1
    25    11    13    1
    26    13    14    1
    27    14    15    1
    28    15    16    1
