@<TRIPOS>MOLECULE
4ekg_0QJ_A_1.pdb
 37 40 0 0 0
SMALL
GASTEIGER

@<TRIPOS>ATOM
      1  C2        44.0570   46.0530   13.2430 C.3   500  0QJ500      0.5254
      2  C4        45.4740   47.9780   13.1910 C.2   500  0QJ500      0.3518
      3  C5        46.5490   47.2170   13.3950 C.2   500  0QJ500      0.2526
      4  C6        46.4040   45.8920   13.5310 C.2   500  0QJ500      0.4393
      5  C8        47.2090   49.2740   13.2390 C.3   500  0QJ500      0.3377
      6  CBA       48.1740   52.8370   -0.5350 C.3   500  0QJ500      0.0044
      7  CAZ       46.8080   53.4890   -0.6960 C.3   500  0QJ500      0.0189
      8  CBB       46.0880   52.8260   -1.8690 C.3   500  0QJ500      0.0044
      9  CBC       47.0140   54.9550   -1.0570 C.3   500  0QJ500      0.0044
     10  CAY       46.0020   53.3370    0.4640 C.ar  500  0QJ500     -0.0227
     11  CBD       45.3850   54.4450    1.0840 C.ar  500  0QJ500     -0.0030
     12  CBE       44.5800   54.2750    2.2170 C.ar  500  0QJ500      0.0163
     13  CAX       45.7690   52.0520    0.9910 C.ar  500  0QJ500     -0.0030
     14  CAW       44.9580   51.8820    2.1170 C.ar  500  0QJ500      0.0163
     15  CAV       44.3620   52.9860    2.7480 C.ar  500  0QJ500      0.0749
     16  NAU       43.5640   52.7540    3.8160 N.am  500  0QJ500     -0.1610
     17  CAT       43.4430   53.6530    4.8070 C.2   500  0QJ500      0.3435
     18  OBF       44.0970   54.7040    4.8310 O.2   500  0QJ500     -0.2488
     19  NAS       42.5700   53.3370    5.7810 N.am  500  0QJ500     -0.1869
     20  CAR       42.3630   54.1560    6.9880 C.3   500  0QJ500      0.1183
     21  CAQ       43.7560   54.3900    7.5890 C.3   500  0QJ500      0.0408
     22  CAP       43.8820   53.7920    8.9850 C.3   500  0QJ500      0.0740
     23  NAN       44.9260   52.7350    9.1080 N.3   500  0QJ500     -0.2693
     24  CAO       45.9800   52.7020    8.0890 C.3   500  0QJ500      0.0897
     25  CAM       45.5260   52.8000   10.4430 C.3   500  0QJ500      0.1049
     26  CAL       44.6280   52.0010   11.4010 C.3   500  0QJ500      0.1682
     27  OBG       45.2670   50.7450   11.5740 O.3   500  0QJ500     -0.3147
     28  CAJ       44.5640   52.6290   12.7810 C.3   500  0QJ500      0.2173
     29  OAK       43.1830   52.8610   13.0850 O.3   500  0QJ500     -0.2175
     30  CAH       45.1490   51.5400   13.6950 C.3   500  0QJ500      0.2569
     31  OAI       44.4180   51.4450   14.9390 O.3   500  0QJ500     -0.2130
     32  CAG       44.9150   50.3200   12.8730 C.3   500  0QJ500      0.3186
     33  N9        45.8870   49.2430   13.1100 N.pl3 500  0QJ500     -0.1439
     34  N7        47.6160   48.0230   13.4210 N.2   500  0QJ500     -0.2095
     35  N3        44.2340   47.4360   13.1120 N.2   500  0QJ500     -0.0055
     36  N1        45.2060   45.2880   13.4620 N.2   500  0QJ500      0.0021
     37  N6        47.5120   45.1810   13.7260 N.pl3 500  0QJ500      0.2180
@<TRIPOS>BOND
     1     8     7    1
     2     9     7    1
     3     7     6    1
     4     7    10    1
     5    10    13   ar
     6    10    11   ar
     7    13    14   ar
     8    11    12   ar
     9    14    15   ar
    10    12    15   ar
    11    15    16    1
    12    16    17   am
    13    17    18    2
    14    17    19   am
    15    19    20    1
    16    20    21    1
    17    21    22    1
    18    24    23    1
    19    22    23    1
    20    23    25    1
    21    25    26    1
    22    26    27    1
    23    26    28    1
    24    27    32    1
    25    28    29    1
    26    28    30    1
    27    32    33    1
    28    32    30    1
    29    33     2    1
    30    33     5    1
    31    35     2    2
    32    35     1    1
    33     2     3    1
    34     5    34    1
    35     1    36    1
    36     3    34    2
    37     3     4    1
    38    36     4    2
    39     4    37    1
    40    30    31    1
