@<TRIPOS>MOLECULE
4eki_0QK_A_1.pdb
 39 42 0 0 0
SMALL
GASTEIGER

@<TRIPOS>ATOM
      1  C2        43.2670   45.3050   13.1980 C.3   501  0QK501      0.5253
      2  C4        44.6630   47.2180   13.1130 C.2   501  0QK501      0.3328
      3  C5        45.7520   46.4610   13.2450 C.2   501  0QK501      0.1717
      4  C6        45.6210   45.1300   13.3640 C.2   501  0QK501      0.4216
      5  CBI       46.0590   53.9200   -1.0250 C.3   501  0QK501      0.0044
      6  CBH       46.5340   52.8090   -0.0990 C.3   501  0QK501      0.0189
      7  CBJ       47.8670   53.2330    0.5290 C.3   501  0QK501      0.0044
      8  CBK       46.7260   51.5920   -0.9990 C.3   501  0QK501      0.0044
      9  CBE       45.5950   52.5780    0.9430 C.ar  501  0QK501     -0.0227
     10  CBF       45.3850   51.3010    1.4870 C.ar  501  0QK501     -0.0030
     11  CBG       44.4460   51.1370    2.5140 C.ar  501  0QK501      0.0163
     12  CBD       44.8480   53.6600    1.4630 C.ar  501  0QK501     -0.0030
     13  CBC       43.9130   53.4830    2.4900 C.ar  501  0QK501      0.0163
     14  CBB       43.7000   52.2120    3.0390 C.ar  501  0QK501      0.0749
     15  NAZ       42.7840   51.9780    4.0180 N.am  501  0QK501     -0.1610
     16  CAY       42.6410   52.8300    5.0590 C.2   501  0QK501      0.3435
     17  OBA       43.3660   53.8380    5.1570 O.2   501  0QK501     -0.2488
     18  NAX       41.6620   52.5350    5.9820 N.am  501  0QK501     -0.1869
     19  CAW       41.5090   53.2900    7.2450 C.3   501  0QK501      0.1183
     20  CAV       43.0040   53.5020    7.6360 C.3   501  0QK501      0.0408
     21  CAT       43.3560   53.2100    9.0830 C.3   501  0QK501      0.0739
     22  NAS       44.3800   52.1620    9.3560 N.3   501  0QK501     -0.2718
     23  CAU       45.6910   52.1550    8.6740 C.3   501  0QK501      0.0577
     24  CBM       46.4000   50.8050    8.9390 C.3   501  0QK501      0.0173
     25  CBL       46.6450   53.2880    9.1160 C.3   501  0QK501      0.0173
     26  CAR       44.6420   52.2650   10.8050 C.3   501  0QK501      0.1048
     27  CAN       43.6600   51.4040   11.5950 C.3   501  0QK501      0.1682
     28  OAO       44.2090   50.0820   11.5550 O.3   501  0QK501     -0.3148
     29  CAM       43.6650   51.8500   13.0420 C.3   501  0QK501      0.2173
     30  OAQ       42.3210   51.9980   13.4600 O.3   501  0QK501     -0.2175
     31  CAL       44.3310   50.6990   13.7870 C.3   501  0QK501      0.2569
     32  OAP       43.6970   50.4530   15.0480 O.3   501  0QK501     -0.2130
     33  CAK       44.0590   49.5500   12.8750 C.3   501  0QK501      0.3173
     34  NAG       45.0660   48.4880   13.0300 N.pl3 501  0QK501     -0.1631
     35  CAH       46.4020   48.5390   13.0940 C.3   501  0QK501      0.2319
     36  CAI       46.8180   47.2780   13.2270 C.2   501  0QK501      0.0394
     37  N3        43.4260   46.6820   13.0940 N.2   501  0QK501     -0.0072
     38  N1        44.4220   44.5290   13.3340 N.2   501  0QK501      0.0007
     39  NAJ       46.7390   44.4080   13.4920 N.pl3 501  0QK501      0.2163
@<TRIPOS>BOND
     1     5     6    1
     2     8     6    1
     3     6     7    1
     4     6     9    1
     5     9    12   ar
     6     9    10   ar
     7    12    13   ar
     8    10    11   ar
     9    13    14   ar
    10    11    14   ar
    11    14    15    1
    12    15    16   am
    13    16    17    2
    14    16    18   am
    15    18    19    1
    16    19    20    1
    17    20    21    1
    18    23    24    1
    19    23    25    1
    20    23    22    1
    21    21    22    1
    22    22    26    1
    23    26    27    1
    24    28    27    1
    25    28    33    1
    26    27    29    1
    27    33    34    1
    28    33    31    1
    29    34    35    1
    30    34     2    1
    31    29    30    1
    32    29    31    1
    33    35    36    1
    34    37     2    2
    35    37     1    1
    36     2     3    1
    37     1    38    1
    38    36     3    2
    39     3     4    1
    40    38     4    2
    41     4    39    1
    42    31    32    1
