@<TRIPOS>MOLECULE
4ekk_ANP_A_1.pdb
 31 33 0 0 0
SMALL
GASTEIGER

@<TRIPOS>ATOM
      1  PG         9.9990    4.5870   23.1380 P.3   501  ANP501      0.4884
      2  O1G       10.5760    3.4490   23.9150 O.3   501  ANP501     -0.1240
      3  O2G        8.5230    4.9470   23.5980 O.3   501  ANP501     -0.1240
      4  O3G       10.9330    5.8640   23.2170 O.2   501  ANP501     -0.2331
      5  PB        10.3870    4.9140   20.0290 P.3   501  ANP501      0.4669
      6  O1B        9.1250    5.4390   19.4260 O.2   501  ANP501     -0.2351
      7  O2B       11.3540    6.1100   20.4170 O.3   501  ANP501     -0.1253
      8  N3B        9.9280    4.0730   21.4800 N.3   501  ANP501     -0.0163
      9  PA        12.2810    2.7860   19.0080 P.3   501  ANP501      0.2220
     10  O1A       13.4800    3.3860   18.3450 O.2   501  ANP501     -0.5170
     11  O2A       12.6620    2.2900   20.4680 O.3   501  ANP501     -0.4370
     12  O3A       11.1150    3.8660   19.0800 O.3   501  ANP501     -0.2360
     13  O5'       11.7460    1.5370   18.1810 O.3   501  ANP501     -0.3111
     14  C5'       10.6460    0.7150   18.5760 C.3   501  ANP501      0.1813
     15  C4'       11.0140   -0.7830   18.5980 C.3   501  ANP501      0.1821
     16  O4'       11.4980   -1.1950   17.3320 O.3   501  ANP501     -0.3135
     17  C3'       12.0830   -1.1540   19.6330 C.3   501  ANP501      0.2184
     18  O3'       11.4860   -1.4170   20.8880 O.3   501  ANP501     -0.2174
     19  C2'       12.6960   -2.4250   19.0140 C.3   501  ANP501      0.2570
     20  O2'       11.9840   -3.5950   19.3850 O.3   501  ANP501     -0.2130
     21  C1'       12.5310   -2.1530   17.5090 C.3   501  ANP501      0.3186
     22  N9        13.8190   -1.5800   16.9970 N.pl3 501  ANP501     -0.1439
     23  C8        14.2460   -0.2460   16.9380 C.3   501  ANP501      0.3377
     24  N7        15.4450   -0.0020   16.4410 N.2   501  ANP501     -0.2095
     25  C5        15.8410   -1.2910   16.1510 C.2   501  ANP501      0.2526
     26  C6        17.0520   -1.7680   15.5830 C.2   501  ANP501      0.4393
     27  N6        17.9780   -0.8290   15.2710 N.pl3 501  ANP501      0.2180
     28  N1        17.2430   -3.0870   15.3790 N.2   501  ANP501      0.0021
     29  C2        16.2280   -3.9040   15.7420 C.3   501  ANP501      0.5254
     30  N3        15.0380   -3.5740   16.2870 N.2   501  ANP501     -0.0055
     31  C4        14.8730   -2.2530   16.4810 C.2   501  ANP501      0.3518
@<TRIPOS>BOND
     1    27    26    1
     2    28    26    2
     3    28    29    1
     4    26    25    1
     5    29    30    1
     6    25    24    2
     7    25    31    1
     8    30    31    2
     9    24    23    1
    10    31    22    1
    11    23    22    1
    12    22    21    1
    13    16    21    1
    14    16    15    1
    15    21    19    1
    16    13    14    1
    17    13     9    1
    18    10     9    2
    19    14    15    1
    20    15    17    1
    21     9    12    1
    22     9    11    1
    23    19    20    1
    24    19    17    1
    25    12     5    1
    26     6     5    2
    27    17    18    1
    28     5     7    1
    29     5     8    1
    30     8     1    1
    31     1     4    2
    32     1     3    1
    33     1     2    1
