@<TRIPOS>MOLECULE
4ekl_0RF_A_1.pdb
 32 35 0 0 0
SMALL
GASTEIGER

@<TRIPOS>ATOM
      1  N1        26.1470    7.5890    8.0150 N.2   501  0RF501     -0.0407
      2  C2        25.1600    7.9790    7.1710 C.3   501  0RF501      0.3909
      3  N3        24.0210    7.2970    6.9590 N.2   501  0RF501     -0.2243
      4  C4        23.9010    6.0920    7.5630 C.2   501  0RF501      0.0772
      5  C5        24.8660    5.6290    8.4410 C.3   501  0RF501      0.1434
      6  C6        26.0400    6.4140    8.6620 C.2   501  0RF501      0.3019
      7  C7        22.7300    5.1360    7.4100 C.3   501  0RF501      0.1879
      8  C8        22.9610    4.1540    8.5900 C.3   501  0RF501      0.0397
      9  C9        24.4760    4.2580    9.0140 C.3   501  0RF501      0.0198
     10  N10       27.1420    6.1680    9.4410 N.pl3 501  0RF501     -0.1908
     11  C11       25.3100    3.1230    8.3060 C.3   501  0RF501      0.0011
     12  O12       21.4930    5.8140    7.4390 O.3   501  0RF501     -0.2170
     13  C13       28.2950    7.0940    9.3590 C.3   501  0RF501      0.2236
     14  C14       28.6420    7.6690   10.7190 C.3   501  0RF501      0.1443
     15  N15       28.7460    6.5550   11.7180 N.am  501  0RF501     -0.2708
     16  C16       27.4960    5.7990   11.8070 C.3   501  0RF501      0.1443
     17  C17       27.2910    5.0920   10.4760 C.3   501  0RF501      0.2236
     18  C18       29.8900    6.2380   12.3930 C.2   501  0RF501      0.2309
     19  C19       29.9500    4.9860   13.2930 C.3   501  0RF501      0.1162
     20  O20       30.9420    6.8670   12.2480 O.2   501  0RF501     -0.2745
     21  C21       30.1590    3.7470   12.4600 C.ar  501  0RF501     -0.0124
     22  C22       31.0950    5.0640   14.3390 C.3   501  0RF501      0.1021
     23  N23       30.8550    6.2210   15.2380 N.3   501  0RF501     -0.2186
     24  C24       29.3690    2.6180   12.7260 C.ar  501  0RF501     -0.0029
     25  C25       29.5950    1.4610   11.9500 C.ar  501  0RF501      0.0111
     26  C26       30.6020    1.4750   10.9550 C.ar  501  0RF501      0.0577
     27  C27       31.3930    2.6080   10.7030 C.ar  501  0RF501      0.0111
     28  C28       31.1720    3.7590   11.4620 C.ar  501  0RF501     -0.0029
     29 CL1        30.9000    0.0750   10.0030 Cl    501  0RF501     -0.0822
     30  C29       32.0110    6.7560   15.9950 C.3   501  0RF501      0.0729
     31  C30       31.4680    7.7290   17.0900 C.3   501  0RF501      0.0188
     32  C31       32.9040    5.6170   16.5740 C.3   501  0RF501      0.0188
@<TRIPOS>BOND
     1     3     2    1
     2     3     4    2
     3     2     1    1
     4     7    12    1
     5     7     4    1
     6     7     8    1
     7     4     5    1
     8     1     6    2
     9    11     9    1
    10     5     6    1
    11     5     9    1
    12     8     9    1
    13     6    10    1
    14    13    10    1
    15    13    14    1
    16    10    17    1
    17    29    26    1
    18    17    16    1
    19    27    26   ar
    20    27    28   ar
    21    14    15    1
    22    26    25   ar
    23    28    21   ar
    24    15    16    1
    25    15    18   am
    26    25    24   ar
    27    20    18    2
    28    18    19    1
    29    21    24   ar
    30    21    19    1
    31    19    22    1
    32    22    23    1
    33    23    30    1
    34    30    32    1
    35    30    31    1
