@<TRIPOS>MOLECULE
4ekq_NPO_A_1.pdb
 10 10 0 0 0
SMALL
GASTEIGER

@<TRIPOS>ATOM
      1  C1         3.4130    8.7730    1.2760 C.ar  202  NPO202      0.1431
      2  C2         3.3990    9.8630    2.1260 C.ar  202  NPO202      0.0274
      3  C3         4.4060   10.7720    1.9970 C.ar  202  NPO202      0.0437
      4  C4         5.3170   10.7100    0.9090 C.ar  202  NPO202      0.1958
      5  C5         5.2920    9.6750    0.0230 C.ar  202  NPO202      0.0437
      6  C6         4.3290    8.6880    0.2300 C.ar  202  NPO202      0.0274
      7  OH         6.2560   11.7040    0.7430 O.3   202  NPO202     -0.2866
      8  N1         2.4660    7.7790    1.4260 N.pl3 202  NPO202      0.0577
      9  O2         1.6170    7.7950    2.3010 O.2   202  NPO202     -0.1261
     10  O3         2.5050    6.7290    0.6040 O.2   202  NPO202     -0.1261
@<TRIPOS>BOND
     1     5     6   ar
     2     5     4   ar
     3     6     1   ar
     4    10     8    2
     5     7     4    1
     6     4     3   ar
     7     1     8    1
     8     1     2   ar
     9     8     9    2
    10     3     2   ar
