@<TRIPOS>MOLECULE
4ekv_BTN_A_1.pdb
 16 17 0 0 0
SMALL
GASTEIGER

@<TRIPOS>ATOM
      1  C11        9.7200   -3.4680   13.9520 C.2   201  BTN201      0.3649
      2  O11        9.5810   -2.3530   14.4890 O.co2 201  BTN201     -0.2457
      3  O12        8.7440   -4.2460   13.9930 O.co2 201  BTN201     -0.2457
      4  C10       11.0160   -3.8670   13.2550 C.3   201  BTN201      0.1141
      5  C9        11.7300   -2.6700   12.6140 C.3   201  BTN201      0.0118
      6  C8        11.0430   -2.1910   11.3300 C.3   201  BTN201      0.0015
      7  C7        11.7740   -0.9980   10.7120 C.3   201  BTN201      0.0129
      8  C2        11.0600   -0.4730    9.4530 C.3   201  BTN201      0.0729
      9  S1        11.0850   -1.5770    8.1750 S.3   201  BTN201     -0.1369
     10  C6        10.5130   -0.2560    7.0800 C.3   201  BTN201      0.0848
     11  C5        11.2240    1.0210    7.4790 C.3   201  BTN201      0.1509
     12  N1        12.4920    1.1300    6.7730 N.2   201  BTN201     -0.1859
     13  C3        13.5060    1.0140    7.6230 C.1   201  BTN201      0.2386
     14  O3        14.8490    1.1100    7.2660 O.2   201  BTN201     -0.2023
     15  N2        13.0910    0.7960    8.8630 N.2   201  BTN201     -0.1860
     16  C4        11.6430    0.8390    8.9340 C.3   201  BTN201      0.1500
@<TRIPOS>BOND
     1    12    11    1
     2    12    13    2
     3    10    11    1
     4    10     9    1
     5    14    13    2
     6    11    16    1
     7    13    15    2
     8     9     8    1
     9    15    16    1
    10    16     8    1
    11     8     7    1
    12     7     6    1
    13     6     5    1
    14     5     4    1
    15     4     1    1
    16     1     3   ar
    17     1     2   ar
