@<TRIPOS>MOLECULE
4eky_D1J_A_1.pdb
 24 25 0 0 0
SMALL
GASTEIGER

@<TRIPOS>ATOM
      1  N1        34.0700   23.5550   28.8790 N.am  901  D1J901     -0.1948
      2  C2        33.3470   24.4250   29.7750 C.1   901  D1J901      0.2808
      3  O2        32.1060   24.5280   29.7210 O.2   901  D1J901     -0.1922
      4  N3        34.0940   25.1710   30.7540 N.2   901  D1J901     -0.2452
      5  C4        35.5070   25.0420   30.8350 C.1   901  D1J901      0.2209
      6  O4        36.1110   25.6820   31.6980 O.2   901  D1J901     -0.2082
      7  C5        36.2060   24.1880   29.9420 C.2   901  D1J901      0.1281
      8  C6        35.4960   23.4670   28.9620 C.3   901  D1J901      0.1529
      9  C7        37.5140   24.0310   30.0060 C.1   901  D1J901     -0.0912
     10  C8        38.8320   23.8610   30.0360 C.2   901  D1J901      0.0415
     11  C9        39.6230   24.1000   31.1490 C.2   901  D1J901      0.0037
     12  C1'       33.3180   22.7990   27.8380 C.3   901  D1J901      0.2364
     13  C10       40.1540   23.0990   31.9620 C.2   901  D1J901     -0.0252
     14  C11       41.1790   23.4410   32.8570 C.3   901  D1J901      0.0307
     15  C2'       33.7730   23.0840   26.3540 C.3   901  D1J901      0.2317
     16  O2'       33.9980   24.5050   26.1660 O.3   901  D1J901     -0.2157
     17  C3'       32.7090   22.4520   25.3680 C.3   901  D1J901      0.2190
     18  O3'       33.0690   22.5010   23.9910 O.3   901  D1J901     -0.2174
     19  C4'       32.3770   21.0130   25.8070 C.3   901  D1J901      0.2144
     20  O4'       31.2330   20.5270   25.0800 O.3   901  D1J901     -0.2176
     21  C5'       32.1510   20.8630   27.3630 C.3   901  D1J901      0.1828
     22  O5'       33.2720   21.3920   28.0560 O.3   901  D1J901     -0.3321
     23  C6'       32.1250   19.3740   27.8540 C.3   901  D1J901      0.2142
     24  O6'       33.1970   18.6010   27.2460 O.3   901  D1J901     -0.2176
@<TRIPOS>BOND
     1    18    17    1
     2    20    19    1
     3    17    19    1
     4    17    15    1
     5    19    21    1
     6    16    15    1
     7    15    12    1
     8    24    23    1
     9    21    23    1
    10    21    22    1
    11    12    22    1
    12    12     1    1
    13     1     8    1
    14     1     2   am
    15     8     7    1
    16     3     2    2
    17     2     4    2
    18     7     9    2
    19     7     5    1
    20     9    10    2
    21    10    11    1
    22     4     5    2
    23     5     6    2
    24    11    13    2
    25    13    14    1
