@<TRIPOS>MOLECULE
4el0_D1K_A_1.pdb
 24 26 0 0 0
SMALL
GASTEIGER

@<TRIPOS>ATOM
      1  N1        34.1150   23.5090   28.8320 N.am  901  D1K901     -0.2110
      2  C2        33.4930   24.1610   29.8630 C.1   901  D1K901      0.2150
      3  O2        32.2660   24.2820   29.9480 O.2   901  D1K901     -0.2062
      4  N3        34.2580   24.7410   30.8480 N.2   901  D1K901     -0.1613
      5  C4        35.5710   24.2100   30.9890 C.3   901  D1K901      0.2328
      6  C5        36.2260   23.8810   29.7780 C.3   901  D1K901      0.0748
      7  O5        36.3880   25.1840   31.5140 O.3   901  D1K901     -0.3364
      8  C6        35.5310   23.3600   28.7730 C.3   901  D1K901      0.1097
      9  C7        37.5340   23.9080   30.0980 C.3   901  D1K901      0.0359
     10  C8        37.5890   24.5380   31.2840 C.3   901  D1K901      0.1175
     11  C9        38.9010   24.8720   31.9550 C.3   901  D1K901      0.0296
     12  C1'       33.2510   22.9110   27.7980 C.3   901  D1K901      0.2353
     13  C10       39.5960   23.6930   32.6340 C.3   901  D1K901      0.0025
     14  C11       41.0530   24.1780   32.9320 C.3   901  D1K901      0.0001
     15  C2'       33.7420   23.1320   26.3880 C.3   901  D1K901      0.2317
     16  O2'       34.0300   24.5130   26.1740 O.3   901  D1K901     -0.2157
     17  C3'       32.6530   22.5410   25.4430 C.3   901  D1K901      0.2190
     18  O3'       33.0610   22.6080   24.1280 O.3   901  D1K901     -0.2174
     19  C4'       32.3800   21.0800   25.8260 C.3   901  D1K901      0.2144
     20  O4'       31.2260   20.6490   25.0680 O.3   901  D1K901     -0.2176
     21  C5'       32.1410   20.9210   27.4000 C.3   901  D1K901      0.1828
     22  O5'       33.2190   21.4700   28.1290 O.3   901  D1K901     -0.3321
     23  C6'       32.1570   19.4740   27.8990 C.3   901  D1K901      0.2142
     24  O6'       33.1850   18.6820   27.2410 O.3   901  D1K901     -0.2176
@<TRIPOS>BOND
     1    18    17    1
     2    20    19    1
     3    17    19    1
     4    17    15    1
     5    19    21    1
     6    16    15    1
     7    15    12    1
     8    24    23    1
     9    21    23    1
    10    21    22    1
    11    12    22    1
    12    12     1    1
    13     8     1    1
    14     8     6    1
    15     1     2   am
    16     6     9    1
    17     6     5    1
    18     2     3    2
    19     2     4    2
    20     9    10    1
    21     4     5    1
    22     5     7    1
    23    10     7    1
    24    10    11    1
    25    11    13    1
    26    13    14    1
