@<TRIPOS>MOLECULE
4el5_D1M_A_1.pdb
 21 22 0 0 0
SMALL
GASTEIGER

@<TRIPOS>ATOM
      1  N1        34.0970   23.5080   28.8070 N.am  901  D1M901     -0.1760
      2  C2        33.4940   24.3630   29.7650 C.1   901  D1M901      0.2845
      3  O2        32.2810   24.5700   29.7880 O.2   901  D1M901     -0.1918
      4  N3        34.3190   25.0370   30.6860 N.2   901  D1M901     -0.2446
      5  C4        35.6730   24.8070   30.7000 C.1   901  D1M901      0.2253
      6  O4        36.3040   25.4480   31.5220 O.2   901  D1M901     -0.2079
      7  C5        36.2930   23.9010   29.8070 C.2   901  D1M901      0.1532
      8  C6        35.5090   23.2790   28.8380 C.2   901  D1M901      0.1005
      9  C7        37.7090   23.6930   29.9160 C.1   901  D1M901     -0.0371
     10  C8        38.8770   23.5610   30.0590 C.1   901  D1M901     -0.0084
     11  C1'       33.2130   22.8510   27.8510 C.3   901  D1M901      0.2401
     12  C2'       33.6980   23.1810   26.3430 C.3   901  D1M901      0.2320
     13  O2'       33.8760   24.5750   26.1550 O.3   901  D1M901     -0.2157
     14  C3'       32.6530   22.5760   25.4220 C.3   901  D1M901      0.2190
     15  O3'       33.0970   22.6460   24.0540 O.3   901  D1M901     -0.2174
     16  C4'       32.4640   21.0920   25.8560 C.3   901  D1M901      0.2144
     17  O4'       31.3330   20.5960   25.1590 O.3   901  D1M901     -0.2176
     18  C5'       32.2310   20.8620   27.4180 C.3   901  D1M901      0.1828
     19  O5'       33.2810   21.4310   28.1410 O.3   901  D1M901     -0.3318
     20  C6'       32.1090   19.2830   27.7460 C.3   901  D1M901      0.2142
     21  O6'       33.3190   18.6990   27.2360 O.3   901  D1M901     -0.2176
@<TRIPOS>BOND
     1    15    14    1
     2    17    16    1
     3    14    16    1
     4    14    12    1
     5    16    18    1
     6    13    12    1
     7    12    11    1
     8    21    20    1
     9    18    20    1
    10    18    19    1
    11    11    19    1
    12    11     1    1
    13     1     8    1
    14     1     2   am
    15     8     7    2
    16     2     3    2
    17     2     4    2
    18     7     9    1
    19     7     5    1
    20     9    10    3
    21     4     5    2
    22     5     6    2
