@<TRIPOS>MOLECULE
4elb_34R_C_1.pdb
 39 43 0 0 0
SMALL
GASTEIGER

@<TRIPOS>ATOM
      1  O30       12.3990  -30.7090   41.4290 O.2   203  34R203     -0.2731
      2  C16       13.3440  -30.8080   40.6650 C.2   203  34R203      0.2452
      3  C15       13.4740  -32.0090   39.7790 C.3   203  34R203      0.0918
      4  C14       14.3250  -33.0110   40.1810 C.3   203  34R203      0.0391
      5  C13       14.0120  -34.4380   39.8620 C.ar  203  34R203      0.0150
      6  C10       12.9120  -35.0510   40.4520 C.ar  203  34R203      0.1683
      7  O11       12.1200  -34.3360   41.3160 O.3   203  34R203     -0.4687
      8  C12       12.4360  -34.2800   42.6610 C.3   203  34R203      0.2526
      9  C07       12.6190  -36.3800   40.1570 C.ar  203  34R203      0.1718
     10  O08       11.5260  -36.9850   40.7330 O.3   203  34R203     -0.4684
     11  C09       11.1700  -38.2770   40.3880 C.3   203  34R203      0.2526
     12  C06       13.4350  -37.0830   39.2720 C.ar  203  34R203      0.0361
     13  C05       14.5400  -36.4670   38.6900 C.ar  203  34R203     -0.0147
     14  C04       15.4060  -37.2370   37.7390 C.3   203  34R203      0.0584
     15  C03       16.8770  -37.0210   37.9570 C.2   203  34R203      0.0500
     16  C32       17.3980  -36.6640   39.2110 C.2   203  34R203      0.1118
     17  N33       18.7260  -36.4830   39.3560 N.2   203  34R203     -0.1675
     18  C34       19.5590  -36.6430   38.3270 C.1   203  34R203      0.1877
     19  N35       20.9670  -36.4510   38.4970 N.pl3 203  34R203     -0.0345
     20  N36       19.0950  -36.9840   37.1250 N.2   203  34R203     -0.3170
     21  C02       17.7860  -37.1820   36.8930 C.2   203  34R203      0.2297
     22  N01       17.3510  -37.5510   35.5760 N.pl3 203  34R203     -0.0924
     23  C31       14.8250  -35.1390   38.9800 C.ar  203  34R203     -0.0050
     24  N17       14.3430  -29.7790   40.6250 N.am  203  34R203     -0.1740
     25  N18       15.4150  -29.8890   39.7650 N.2   203  34R203     -0.1736
     26  C19       16.4840  -29.1600   39.9410 C.2   203  34R203      0.1176
     27  C22       16.6490  -28.4230   41.1880 C.ar  203  34R203      0.0187
     28  C40       17.9140  -28.0030   41.5820 C.ar  203  34R203      0.0013
     29  C38       18.0650  -27.3070   42.7660 C.ar  203  34R203      0.0000
     30  C37       16.9660  -27.0320   43.5460 C.ar  203  34R203     -0.0003
     31  C23       15.7080  -27.4510   43.1540 C.ar  203  34R203     -0.0022
     32  C21       15.5520  -28.1480   41.9560 C.ar  203  34R203      0.0034
     33  C20       14.2010  -28.6150   41.5160 C.3   203  34R203      0.1435
     34  C24       13.4190  -27.5250   40.8430 C.ar  203  34R203      0.0018
     35  C25       13.7720  -26.1910   41.0010 C.ar  203  34R203     -0.0023
     36  C26       13.0300  -25.2030   40.3660 C.ar  203  34R203     -0.0003
     37  C27       11.9390  -25.5530   39.5790 C.ar  203  34R203     -0.0000
     38  C28       11.5870  -26.8850   39.4220 C.ar  203  34R203     -0.0003
     39  C29       12.3290  -27.8700   40.0570 C.ar  203  34R203     -0.0023
@<TRIPOS>BOND
     1    22    21    1
     2    21    20    2
     3    21    15    1
     4    20    18    2
     5    14    15    1
     6    14    13    1
     7    15    16    2
     8    18    19    1
     9    18    17    2
    10    13    23   ar
    11    13    12   ar
    12    23     5   ar
    13    16    17    1
    14    12     9   ar
    15    38    37   ar
    16    38    39   ar
    17    37    36   ar
    18    25    26    2
    19    25    24    1
    20     3     4    1
    21     3     2    1
    22     5     4    1
    23     5     6   ar
    24    26    27    1
    25    39    34   ar
    26     9     6   ar
    27     9    10    1
    28    36    35   ar
    29    11    10    1
    30     6     7    1
    31    24     2   am
    32    24    33    1
    33     2     1    2
    34    34    35   ar
    35    34    33    1
    36    27    28   ar
    37    27    32   ar
    38     7     8    1
    39    33    32    1
    40    28    29   ar
    41    32    31   ar
    42    29    30   ar
    43    31    30   ar
