@<TRIPOS>MOLECULE
4elb_34S_A_1.pdb
 39 43 0 0 0
SMALL
GASTEIGER

@<TRIPOS>ATOM
      1  O30       23.1210  -27.1500    0.0530 O.2   203  34S203     -0.2681
      2  C16       22.5250  -27.9420   -0.6590 C.2   203  34S203      0.2684
      3  N17       23.2520  -28.9450   -1.3600 N.am  203  34S203     -0.1705
      4  N18       22.5960  -29.8290   -2.1530 N.2   203  34S203     -0.1734
      5  C19       23.3330  -30.6340   -3.0480 C.2   203  34S203      0.1176
      6  C22       24.7290  -30.2780   -3.3260 C.ar  203  34S203      0.0187
      7  C40       25.3710  -30.7560   -4.5200 C.ar  203  34S203      0.0013
      8  C38       26.6820  -30.4170   -4.7740 C.ar  203  34S203      0.0000
      9  C37       27.3700  -29.6250   -3.8910 C.ar  203  34S203     -0.0003
     10  C23       26.7520  -29.1660   -2.7430 C.ar  203  34S203     -0.0022
     11  C21       25.3870  -29.5190   -2.4790 C.ar  203  34S203      0.0034
     12  C20       24.7010  -29.0200   -1.2250 C.3   203  34S203      0.1439
     13  C24       25.0300  -29.8990   -0.0340 C.ar  203  34S203      0.0018
     14  C25       25.5980  -31.1470   -0.2310 C.ar  203  34S203     -0.0023
     15  C26       25.8980  -31.9490    0.8620 C.ar  203  34S203     -0.0003
     16  C27       25.6280  -31.5020    2.1490 C.ar  203  34S203     -0.0000
     17  C28       25.0610  -30.2530    2.3450 C.ar  203  34S203     -0.0003
     18  C29       24.7610  -29.4510    1.2530 C.ar  203  34S203     -0.0023
     19  C15       21.0430  -27.8570   -0.7900 C.2   203  34S203      0.0598
     20  C14       20.3980  -28.4640   -1.8330 C.2   203  34S203      0.0078
     21  C13       18.9630  -28.1500   -2.1030 C.ar  203  34S203      0.0369
     22  C10       18.3280  -27.1370   -1.3930 C.ar  203  34S203      0.1723
     23  O11       19.0250  -26.4250   -0.4400 O.3   203  34S203     -0.4684
     24  C12       19.0070  -26.8560    0.8790 C.3   203  34S203      0.2526
     25  C07       16.9930  -26.8430   -1.6430 C.ar  203  34S203      0.1721
     26  O08       16.3660  -25.8400   -0.9410 O.3   203  34S203     -0.4684
     27  C09       15.0790  -25.4750   -1.2890 C.3   203  34S203      0.2526
     28  C06       16.2920  -27.5590   -2.6000 C.ar  203  34S203      0.0361
     29  C05       16.9230  -28.5730   -3.3100 C.ar  203  34S203     -0.0144
     30  C04       16.1640  -29.3380   -4.3400 C.3   203  34S203      0.0584
     31  C03       16.3590  -30.8030   -4.1420 C.2   203  34S203      0.0500
     32  C32       16.9280  -31.2980   -2.9680 C.2   203  34S203      0.1118
     33  N33       17.0870  -32.6240   -2.8290 N.2   203  34S203     -0.1675
     34  C34       16.7110  -33.4710   -3.7900 C.1   203  34S203      0.1877
     35  N35       16.8950  -34.8760   -3.6100 N.pl3 203  34S203     -0.0345
     36  N36       16.1640  -33.0240   -4.9210 N.2   203  34S203     -0.3170
     37  C02       15.9740  -31.7080   -5.1300 C.2   203  34S203      0.2297
     38  N01       15.3920  -31.2560   -6.3360 N.pl3 203  34S203     -0.0924
     39  C31       18.2580  -28.8660   -3.0620 C.ar  203  34S203     -0.0007
@<TRIPOS>BOND
     1    38    37    1
     2    37    36    2
     3    37    31    1
     4    36    34    2
     5     8     7   ar
     6     8     9   ar
     7     7     6   ar
     8    30    31    1
     9    30    29    1
    10    31    32    2
    11     9    10   ar
    12    34    35    1
    13    34    33    2
    14     6     5    1
    15     6    11   ar
    16    29    39   ar
    17    29    28   ar
    18    39    21   ar
    19     5     4    2
    20    32    33    1
    21    10    11   ar
    22    28    25   ar
    23    11    12    1
    24     4     3    1
    25    21    20    1
    26    21    22   ar
    27    20    19    2
    28    25    22   ar
    29    25    26    1
    30    22    23    1
    31     3    12    1
    32     3     2   am
    33    27    26    1
    34    12    13    1
    35    19     2    1
    36     2     1    2
    37    23    24    1
    38    14    13   ar
    39    14    15   ar
    40    13    18   ar
    41    15    16   ar
    42    18    17   ar
    43    16    17   ar
