@<TRIPOS>MOLECULE
4ele_31I_A_1.pdb
 36 39 0 0 0
SMALL
GASTEIGER

@<TRIPOS>ATOM
      1  O30       22.9780  -27.6870   -0.4530 O.2   203  31I203     -0.2686
      2  C16       22.6950  -28.5550   -1.2900 C.2   203  31I203      0.2636
      3  N17       23.7070  -29.6150   -1.6370 N.am  203  31I203     -0.2008
      4  N18       23.4070  -30.5520   -2.5340 N.3   203  31I203     -0.1227
      5  C19       24.3760  -31.2140   -3.1260 C.3   203  31I203      0.1378
      6  C25       25.7670  -30.6270   -3.1670 C.ar  203  31I203     -0.0053
      7  C26       26.7000  -30.8580   -4.2000 C.ar  203  31I203     -0.0031
      8  C27       27.9760  -30.2620   -4.1450 C.ar  203  31I203     -0.0003
      9  C28       28.3230  -29.4360   -3.0620 C.ar  203  31I203     -0.0003
     10  C29       27.3930  -29.2030   -2.0260 C.ar  203  31I203     -0.0029
     11  C24       26.1100  -29.7980   -2.0790 C.ar  203  31I203     -0.0053
     12  C20       24.9980  -29.6240   -1.0020 C.3   203  31I203      0.1155
     13  C11       25.0850  -30.7130    0.0430 C.3   203  31I203      0.0240
     14  C08       25.6640  -31.9500   -0.5800 C.3   203  31I203      0.0021
     15  C01       25.9840  -30.2630    1.1810 C.3   203  31I203      0.0021
     16  C15       21.3010  -28.5490   -1.9760 C.2   203  31I203      0.0594
     17  C14       20.1410  -28.5840   -1.1940 C.2   203  31I203      0.0078
     18  C13       18.7700  -28.3040   -1.8070 C.ar  203  31I203      0.0369
     19  C10       18.0050  -27.2550   -1.3120 C.ar  203  31I203      0.1723
     20  O11       18.4880  -26.4850   -0.2920 O.3   203  31I203     -0.4684
     21  C12       17.8700  -25.3120    0.0060 C.3   203  31I203      0.2526
     22  C07       16.7430  -26.9830   -1.8570 C.ar  203  31I203      0.1721
     23  O08       15.9790  -25.9250   -1.3560 O.3   203  31I203     -0.4684
     24  C09       14.6550  -25.7590   -1.7760 C.3   203  31I203      0.2526
     25  C06       16.2500  -27.7800   -2.9080 C.ar  203  31I203      0.0361
     26  C05       17.0120  -28.8360   -3.4020 C.ar  203  31I203     -0.0144
     27  C04       16.4510  -29.6870   -4.5550 C.3   203  31I203      0.0584
     28  C03       16.5010  -31.2050   -4.2600 C.2   203  31I203      0.0500
     29  C32       16.8520  -31.6600   -3.0330 C.2   203  31I203      0.1118
     30  N33       16.8920  -32.9930   -2.7900 N.2   203  31I203     -0.1675
     31  C34       16.5730  -33.8930   -3.7950 C.1   203  31I203      0.1877
     32  N35       16.6130  -35.3160   -3.5470 N.pl3 203  31I203     -0.0345
     33  N36       16.2230  -33.4380   -5.0220 N.2   203  31I203     -0.3170
     34  C02       16.1800  -32.1210   -5.2690 C.2   203  31I203      0.2297
     35  N01       15.8090  -31.6820   -6.5590 N.pl3 203  31I203     -0.0924
     36  C31       18.2750  -29.1030   -2.8580 C.ar  203  31I203     -0.0007
@<TRIPOS>BOND
     1    35    34    1
     2    34    33    2
     3    34    28    1
     4    33    31    2
     5    27    28    1
     6    27    26    1
     7    28    29    2
     8     7     8   ar
     9     7     6   ar
    10     8     9   ar
    11    31    32    1
    12    31    30    2
    13    26    25   ar
    14    26    36   ar
    15     6     5    1
    16     6    11   ar
    17     5     4    1
    18     9    10   ar
    19    29    30    1
    20    25    22   ar
    21    36    18   ar
    22     4     3    1
    23    11    10   ar
    24    11    12    1
    25    16     2    1
    26    16    17    2
    27    22    23    1
    28    22    19   ar
    29    18    19   ar
    30    18    17    1
    31    24    23    1
    32     3     2   am
    33     3    12    1
    34    19    20    1
    35     2     1    2
    36    12    13    1
    37    14    13    1
    38    20    21    1
    39    13    15    1
