@<TRIPOS>MOLECULE
4elf_35I_A_1.pdb
 39 42 0 0 0
SMALL
GASTEIGER

@<TRIPOS>ATOM
      1  O01       23.2270  -28.2740   -0.6260 O.2   203  35I203     -0.2682
      2  C02       22.8000  -29.0390   -1.4580 C.2   203  35I203      0.2681
      3  N03       23.6710  -29.9550   -2.1110 N.am  203  35I203     -0.1748
      4  N04       23.1480  -30.8060   -3.0350 N.2   203  35I203     -0.1737
      5  C05       24.0010  -31.4500   -3.9580 C.2   203  35I203      0.1176
      6  C06       25.4080  -31.0170   -4.0250 C.ar  203  35I203      0.0183
      7  C07       26.2050  -31.3270   -5.1930 C.ar  203  35I203      0.0013
      8  C08       27.5180  -30.9130   -5.2350 C.ar  203  35I203      0.0000
      9  C09       28.0680  -30.2150   -4.1760 C.ar  203  35I203     -0.0003
     10  C10       27.2930  -29.9140   -3.0430 C.ar  203  35I203     -0.0026
     11  C11       25.9420  -30.3360   -3.0020 C.ar  203  35I203     -0.0008
     12  C12       25.0900  -30.0270   -1.7900 C.3   203  35I203      0.1219
     13  C13       25.3430  -31.1450   -0.7670 C.3   203  35I203      0.0352
     14  C14       26.5700  -31.0400    0.1180 C.3   203  35I203      0.1054
     15  C15       26.5410  -31.6420    1.5120 C.3   203  35I203      0.3978
     16  F16       27.1340  -32.8450    1.4340 F     203  35I203     -0.1700
     17  F17       25.2870  -31.7820    1.9770 F     203  35I203     -0.1700
     18  F18       27.2200  -30.8160    2.3330 F     203  35I203     -0.1700
     19  C19       21.3270  -29.0580   -1.8570 C.2   203  35I203      0.0598
     20  C20       20.4530  -28.1010   -1.3570 C.2   203  35I203      0.0078
     21  C21       18.9760  -27.9780   -1.8170 C.ar  203  35I203      0.0369
     22  C22       18.2080  -26.9800   -1.2680 C.ar  203  35I203      0.1723
     23  O23       18.7400  -26.1270   -0.2900 O.3   203  35I203     -0.4684
     24  C24       18.6430  -26.5200    1.0550 C.3   203  35I203      0.2526
     25  C25       16.8680  -26.8180   -1.6520 C.ar  203  35I203      0.1721
     26  O26       16.1070  -25.8160   -1.0810 O.3   203  35I203     -0.4684
     27  C27       14.8780  -25.5130   -1.6230 C.3   203  35I203      0.2526
     28  C28       16.3070  -27.6760   -2.6110 C.ar  203  35I203      0.0361
     29  C29       17.0570  -28.6930   -3.1770 C.ar  203  35I203     -0.0144
     30  C30       16.3660  -29.6020   -4.2500 C.3   203  35I203      0.0584
     31  C31       16.4370  -31.1080   -4.0120 C.2   203  35I203      0.0500
     32  C32       16.9020  -31.6640   -2.8120 C.2   203  35I203      0.1118
     33  N33       16.9430  -33.0140   -2.6760 N.2   203  35I203     -0.1675
     34  C34       16.5340  -33.8430   -3.6800 C.1   203  35I203      0.1877
     35  N35       16.6010  -35.2510   -3.5030 N.pl3 203  35I203     -0.0345
     36  N36       16.0860  -33.3350   -4.8470 N.2   203  35I203     -0.3170
     37  C37       16.0140  -32.0020   -5.0410 C.2   203  35I203      0.2297
     38  N38       15.5150  -31.4860   -6.2820 N.pl3 203  35I203     -0.0924
     39  C39       18.4160  -28.8420   -2.7860 C.ar  203  35I203     -0.0007
@<TRIPOS>BOND
     1    38    37    1
     2     8     7   ar
     3     8     9   ar
     4     7     6   ar
     5    37    36    2
     6    37    31    1
     7    36    34    2
     8    30    31    1
     9    30    29    1
    10     9    10   ar
    11     6     5    1
    12     6    11   ar
    13    31    32    2
    14     5     4    2
    15    34    35    1
    16    34    33    2
    17    29    39   ar
    18    29    28   ar
    19    10    11   ar
    20     4     3    1
    21    11    12    1
    22    32    33    1
    23    39    21   ar
    24    28    25   ar
    25     3    12    1
    26     3     2   am
    27    19     2    1
    28    19    20    2
    29    21    20    1
    30    21    22   ar
    31    12    13    1
    32    25    22   ar
    33    25    26    1
    34    27    26    1
    35     2     1    2
    36    22    23    1
    37    13    14    1
    38    23    24    1
    39    14    15    1
    40    16    15    1
    41    15    17    1
    42    15    18    1
