@<TRIPOS>MOLECULE
4elg_52I_B_1.pdb
 37 40 0 0 0
SMALL
GASTEIGER

@<TRIPOS>ATOM
      1  C10       12.7400   -7.8960    0.8190 C.ar  204  52I204      0.1723
      2  C12       13.1890  -10.1170   -0.0180 C.3   204  52I204      0.2526
      3  N01       11.8950   -2.8630    5.9870 N.pl3 204  52I204     -0.0924
      4  C02       12.3450   -2.5960    4.6420 C.2   204  52I204      0.2297
      5  C03       12.6120   -3.6550    3.7360 C.2   204  52I204      0.0500
      6  C04       12.4300   -5.1170    4.1700 C.3   204  52I204      0.0584
      7  C05       12.5420   -6.0950    2.9800 C.ar  204  52I204     -0.0144
      8  C06       11.4200   -6.8200    2.5690 C.ar  204  52I204      0.0361
      9  C07       11.5130   -7.7240    1.4840 C.ar  204  52I204      0.1721
     10  O08       10.4010   -8.4380    1.0750 O.3   204  52I204     -0.4684
     11  C09        9.1410   -8.0690    1.5180 C.3   204  52I204      0.2526
     12  O11       12.8400   -8.7860   -0.2540 O.3   204  52I204     -0.4684
     13  C13       13.8670   -7.1740    1.2310 C.ar  204  52I204      0.0369
     14  C31       13.7740   -6.2710    2.3150 C.ar  204  52I204     -0.0007
     15  C32       13.0480   -3.3380    2.4380 C.2   204  52I204      0.1118
     16  N33       13.1910   -2.0180    2.1150 N.2   204  52I204     -0.1675
     17  C34       12.9320   -1.0190    2.9880 C.1   204  52I204      0.1877
     18  N35       13.1050    0.3730    2.5820 N.pl3 204  52I204     -0.0345
     19  N36       12.5140   -1.3040    4.2360 N.2   204  52I204     -0.3170
     20  C14       15.1950   -7.3690    0.5000 C.2   204  52I204      0.0078
     21  O30       17.8080   -8.1460   -0.3870 O.2   204  52I204     -0.2686
     22  C16       17.7220   -7.1860    0.3610 C.2   204  52I204      0.2636
     23  N17       18.8890   -6.3360    0.5970 N.am  204  52I204     -0.2008
     24  N18       18.7710   -5.2730    1.4320 N.3   204  52I204     -0.1227
     25  C19       19.9920   -4.6180    1.8020 C.3   204  52I204      0.1378
     26  C25       20.9210   -4.4440    0.6440 C.ar  204  52I204     -0.0053
     27  C26       21.7150   -3.2790    0.4930 C.ar  204  52I204     -0.0031
     28  C27       22.5670   -3.1670   -0.6080 C.ar  204  52I204     -0.0003
     29  C28       22.6350   -4.1970   -1.5550 C.ar  204  52I204     -0.0003
     30  C29       21.8500   -5.3440   -1.4030 C.ar  204  52I204     -0.0029
     31  C24       20.9860   -5.4550   -0.2830 C.ar  204  52I204     -0.0053
     32  C20       20.1240   -6.6540   -0.0660 C.3   204  52I204      0.1155
     33  C21       20.8930   -7.7120    0.7680 C.3   204  52I204      0.0259
     34  C15       16.3880   -6.8740    1.0530 C.2   204  52I204      0.0594
     35  C22       21.3140   -9.0250    0.0590 C.3   204  52I204      0.0020
     36  C23       20.3320  -10.1670    0.2570 C.3   204  52I204      0.0001
     37  C37       22.7720   -9.4210    0.3080 C.3   204  52I204      0.0001
@<TRIPOS>BOND
     1    29    30   ar
     2    29    28   ar
     3    30    31   ar
     4    28    27   ar
     5    21    22    2
     6    31    32    1
     7    31    26   ar
     8    12     2    1
     9    12     1    1
    10    32    23    1
    11    32    33    1
    12    35    36    1
    13    35    37    1
    14    35    33    1
    15    22    23   am
    16    22    34    1
    17    27    26   ar
    18    20    34    2
    19    20    13    1
    20    23    24    1
    21    26    25    1
    22     1    13   ar
    23     1     9   ar
    24    10     9    1
    25    10    11    1
    26    13    14   ar
    27    24    25    1
    28     9     8   ar
    29    16    15    1
    30    16    17    2
    31    14     7   ar
    32    15     5    2
    33     8     7   ar
    34    18    17    1
    35     7     6    1
    36    17    19    2
    37     5     6    1
    38     5     4    1
    39    19     4    2
    40     4     3    1
