@<TRIPOS>MOLECULE
4elg_52J_A_1.pdb
 37 40 0 0 0
SMALL
GASTEIGER

@<TRIPOS>ATOM
      1  N01       15.2950  -31.4430   -6.4220 N.pl3 201  52J201     -0.0924
      2  C02       15.7020  -31.9100   -5.0520 C.2   201  52J201      0.2297
      3  C03       15.9830  -30.9750   -4.0540 C.2   201  52J201      0.0500
      4  C04       15.8760  -29.5210   -4.3530 C.3   201  52J201      0.0584
      5  C05       16.5530  -28.6570   -3.2320 C.ar  201  52J201     -0.0144
      6  C06       15.8450  -27.5350   -2.6840 C.ar  201  52J201      0.0361
      7  C07       16.4330  -26.7480   -1.6850 C.ar  201  52J201      0.1721
      8  O08       15.7490  -25.6850   -1.1690 O.3   201  52J201     -0.4684
      9  C09       14.3230  -25.6180   -1.3360 C.3   201  52J201      0.2526
     10  C10       17.7190  -27.0530   -1.2170 C.ar  201  52J201      0.1723
     11  O11       18.2970  -26.2730   -0.2290 O.3   201  52J201     -0.4684
     12  C12       18.4240  -26.7910    1.0960 C.3   201  52J201      0.2526
     13  C13       18.4210  -28.1520   -1.7530 C.ar  201  52J201      0.0369
     14  O30       22.6790  -28.1570   -0.8110 O.2   201  52J201     -0.2686
     15  C31       17.8140  -28.9600   -2.7800 C.ar  201  52J201     -0.0007
     16  C32       16.3700  -31.4550   -2.7470 C.2   201  52J201      0.1118
     17  N33       16.4490  -32.8000   -2.5370 N.2   201  52J201     -0.1675
     18  C34       16.1700  -33.6630   -3.5300 C.1   201  52J201      0.1877
     19  N35       16.2620  -35.0790   -3.2800 N.pl3 201  52J201     -0.0345
     20  N36       15.7970  -33.2330   -4.7880 N.2   201  52J201     -0.3170
     21  C14       19.8500  -28.4900   -1.2310 C.2   201  52J201      0.0078
     22  C15       20.8800  -28.8180   -2.1310 C.2   201  52J201      0.0594
     23  C16       22.2880  -28.9090   -1.6470 C.2   201  52J201      0.2636
     24  N17       23.1740  -29.8990   -2.1840 N.am  201  52J201     -0.2008
     25  N18       22.7540  -30.7600   -3.1300 N.3   201  52J201     -0.1227
     26  C19       23.5440  -30.7190   -4.3280 C.3   201  52J201      0.1378
     27  C20       24.5240  -29.9840   -1.7210 C.3   201  52J201      0.1155
     28  C21       24.6470  -31.1550   -0.7480 C.3   201  52J201      0.0259
     29  C22       25.9790  -31.2800    0.0740 C.3   201  52J201      0.0020
     30  C23       26.0720  -30.3060    1.2180 C.3   201  52J201      0.0001
     31  C24       25.4770  -30.1780   -2.8510 C.ar  201  52J201     -0.0053
     32  C25       25.0010  -30.5310   -4.0970 C.ar  201  52J201     -0.0053
     33  C26       25.9030  -30.7170   -5.1780 C.ar  201  52J201     -0.0031
     34  C27       27.2890  -30.5420   -4.9800 C.ar  201  52J201     -0.0003
     35  C28       27.7630  -30.1920   -3.7400 C.ar  201  52J201     -0.0003
     36  C29       26.8500  -30.0050   -2.6510 C.ar  201  52J201     -0.0029
     37  C37       26.3490  -32.7890    0.4760 C.3   201  52J201      0.0001
@<TRIPOS>BOND
     1     1     2    1
     2    33    34   ar
     3    33    32   ar
     4     2    20    2
     5     2     3    1
     6    34    35   ar
     7    20    18    2
     8     4     3    1
     9     4     5    1
    10    26    32    1
    11    26    25    1
    12    32    31   ar
    13     3    16    2
    14    35    36   ar
    15    18    19    1
    16    18    17    2
    17     5    15   ar
    18     5     6   ar
    19    25    24    1
    20    31    36   ar
    21    31    27    1
    22    15    13   ar
    23    16    17    1
    24     6     7   ar
    25    24    27    1
    26    24    23   am
    27    22    23    1
    28    22    21    2
    29    13    21    1
    30    13    10   ar
    31    27    28    1
    32     7    10   ar
    33     7     8    1
    34    23    14    2
    35     9     8    1
    36    10    11    1
    37    28    29    1
    38    11    12    1
    39    29    37    1
    40    29    30    1
