@<TRIPOS>MOLECULE
4elh_53J_D_1.pdb
 37 40 0 0 0
SMALL
GASTEIGER

@<TRIPOS>ATOM
      1  C10       13.2940   40.0250   -1.6200 C.ar  204  53J204      0.1723
      2  C12       13.9290   42.2500   -0.9820 C.3   204  53J204      0.2526
      3  C13       14.1650   39.1920   -2.3460 C.ar  204  53J204      0.0369
      4  C14       15.6770   39.2470   -2.1200 C.2   204  53J204      0.0078
      5  C15       16.2210   39.3320   -0.8660 C.2   204  53J204      0.0594
      6  C16       17.7280   39.4390   -0.7130 C.2   204  53J204      0.2636
      7  C19       18.7800   36.7280   -3.0110 C.3   204  53J204      0.1378
      8  N01       11.3510   35.3330   -6.5770 N.pl3 204  53J204     -0.0924
      9  C02       11.7670   34.8700   -5.3000 C.2   204  53J204      0.2297
     10  C03       11.9510   35.7840   -4.2660 C.2   204  53J204      0.0500
     11  C04       11.6930   37.2650   -4.5720 C.3   204  53J204      0.0584
     12  C05       12.2550   38.2280   -3.5220 C.ar  204  53J204     -0.0144
     13  C06       11.3870   39.0580   -2.8030 C.ar  204  53J204      0.0361
     14  C07       11.9030   39.9590   -1.8490 C.ar  204  53J204      0.1721
     15  O08       11.0110   40.7800   -1.1300 O.3   204  53J204     -0.4684
     16  C09        9.8030   41.1480   -1.7290 C.3   204  53J204      0.2526
     17  O11       13.8010   40.9020   -0.6760 O.3   204  53J204     -0.4684
     18  N17       18.5740   38.5090   -1.4190 N.am  204  53J204     -0.2008
     19  N18       17.9930   37.5640   -2.1990 N.3   204  53J204     -0.1227
     20  C20       20.0210   38.5800   -1.2870 C.3   204  53J204      0.1155
     21  C21       20.3030   37.7790   -0.0460 C.3   204  53J204      0.0259
     22  C22       21.5140   37.1510    0.2080 C.3   204  53J204      0.0020
     23  C23       22.5520   37.7890    1.0910 C.3   204  53J204      0.0001
     24  C24       20.7770   37.9820   -2.4560 C.ar  204  53J204     -0.0053
     25  C25       20.1800   37.1090   -3.2590 C.ar  204  53J204     -0.0053
     26  C26       20.8940   36.5330   -4.3680 C.ar  204  53J204     -0.0031
     27  C27       22.2090   36.8900   -4.6020 C.ar  204  53J204     -0.0003
     28  C28       22.8350   37.7980   -3.7710 C.ar  204  53J204     -0.0003
     29  C29       22.1430   38.3500   -2.7020 C.ar  204  53J204     -0.0029
     30  O30       18.2140   40.3050    0.0010 O.2   204  53J204     -0.2686
     31  C31       13.6470   38.2960   -3.3000 C.ar  204  53J204     -0.0007
     32  C32       12.3630   35.3090   -2.9980 C.2   204  53J204      0.1118
     33  N33       12.5690   33.9760   -2.8340 N.2   204  53J204     -0.1675
     34  C34       12.3780   33.1160   -3.8530 C.1   204  53J204      0.1877
     35  N35       12.5970   31.7100   -3.6530 N.pl3 204  53J204     -0.0345
     36  N36       11.9870   33.5480   -5.0680 N.2   204  53J204     -0.3170
     37  C37       21.6120   35.6530   -0.0570 C.3   204  53J204      0.0001
@<TRIPOS>BOND
     1     8     9    1
     2     9    36    2
     3     9    10    1
     4    36    34    2
     5    27    26   ar
     6    27    28   ar
     7    11    10    1
     8    11    12    1
     9    26    25   ar
    10    10    32    2
    11    34    35    1
    12    34    33    2
    13    28    29   ar
    14    12    31   ar
    15    12    13   ar
    16    31     3   ar
    17    25     7    1
    18    25    24   ar
    19     7    19    1
    20    32    33    1
    21    13    14   ar
    22    29    24   ar
    23    24    20    1
    24     3     4    1
    25     3     1   ar
    26    19    18    1
    27     4     5    2
    28    14     1   ar
    29    14    15    1
    30    16    15    1
    31     1    17    1
    32    18    20    1
    33    18     6   am
    34    20    21    1
    35     2    17    1
    36     5     6    1
    37     6    30    2
    38    37    22    1
    39    21    22    1
    40    22    23    1
