@<TRIPOS>MOLECULE
4elh_53I_A_1.pdb
 37 40 0 0 0
SMALL
GASTEIGER

@<TRIPOS>ATOM
      1  O30       21.7780  -26.2860    0.7110 O.2   202  53I202     -0.2686
      2  C16       21.5530  -26.9550   -0.3260 C.2   202  53I202      0.2636
      3  N17       22.5600  -27.9280   -0.7920 N.am  202  53I202     -0.2008
      4  N18       22.3380  -28.6820   -1.9090 N.3   202  53I202     -0.1227
      5  C19       23.3590  -29.5490   -2.3760 C.3   202  53I202      0.1378
      6  C25       24.3170  -30.0680   -1.3890 C.ar  202  53I202     -0.0053
      7  C26       25.0190  -31.3040   -1.6220 C.ar  202  53I202     -0.0031
      8  C27       25.9290  -31.7920   -0.6500 C.ar  202  53I202     -0.0003
      9  C28       26.1490  -31.0900    0.5150 C.ar  202  53I202     -0.0003
     10  C29       25.4670  -29.8950    0.7440 C.ar  202  53I202     -0.0029
     11  C24       24.5270  -29.3880   -0.2610 C.ar  202  53I202     -0.0053
     12  C20       23.7850  -28.0870   -0.0010 C.3   202  53I202      0.1155
     13  C21       24.7550  -26.9260   -0.1140 C.3   202  53I202      0.0259
     14  C22       24.7470  -25.9260   -1.0460 C.3   202  53I202      0.0020
     15  C23       24.6210  -24.4680   -0.6000 C.3   202  53I202      0.0001
     16  C37       25.5550  -26.1650   -2.3260 C.3   202  53I202      0.0001
     17  C15       20.2190  -26.7350   -1.0880 C.2   202  53I202      0.0594
     18  C14       19.5120  -27.8360   -1.5070 C.2   202  53I202      0.0078
     19  C13       18.0880  -27.7500   -1.9420 C.ar  202  53I202      0.0369
     20  C10       17.2030  -26.7650   -1.4690 C.ar  202  53I202      0.1723
     21  O11       17.6330  -25.7980   -0.5310 O.3   202  53I202     -0.4684
     22  C12       17.2350  -24.4800   -0.6250 C.3   202  53I202      0.2526
     23  C07       15.8850  -26.7550   -1.9170 C.ar  202  53I202      0.1721
     24  O08       14.9590  -25.7930   -1.4710 O.3   202  53I202     -0.4684
     25  C09       13.6120  -25.8290   -1.9380 C.3   202  53I202      0.2526
     26  C06       15.4490  -27.7420   -2.8530 C.ar  202  53I202      0.0361
     27  C05       16.3320  -28.7280   -3.3200 C.ar  202  53I202     -0.0144
     28  C04       15.8280  -29.7440   -4.3180 C.3   202  53I202      0.0584
     29  C03       16.0930  -31.2070   -4.0490 C.2   202  53I202      0.0500
     30  C32       16.5600  -31.7680   -2.8320 C.2   202  53I202      0.1118
     31  N33       16.7380  -33.1480   -2.7640 N.2   202  53I202     -0.1675
     32  C34       16.4650  -33.9390   -3.8140 C.1   202  53I202      0.1877
     33  N35       16.6500  -35.3570   -3.7720 N.pl3 202  53I202     -0.0345
     34  N36       16.0290  -33.4120   -4.9770 N.2   202  53I202     -0.3170
     35  C02       15.8310  -32.0740   -5.1140 C.2   202  53I202      0.2297
     36  N01       15.3520  -31.5480   -6.3540 N.pl3 202  53I202     -0.0924
     37  C31       17.6400  -28.7370   -2.8830 C.ar  202  53I202     -0.0007
@<TRIPOS>BOND
     1    36    35    1
     2    35    34    2
     3    35    29    1
     4    34    32    2
     5    28    29    1
     6    28    27    1
     7    29    30    2
     8    32    33    1
     9    32    31    2
    10    27    37   ar
    11    27    26   ar
    12    37    19   ar
    13    26    23   ar
    14    30    31    1
    15     5     4    1
    16     5     6    1
    17    16    14    1
    18    19    18    1
    19    19    20   ar
    20    25    24    1
    21    23    24    1
    22    23    20   ar
    23     4     3    1
    24     7     6   ar
    25     7     8   ar
    26    18    17    2
    27    20    21    1
    28     6    11   ar
    29    17     2    1
    30    14    15    1
    31    14    13    1
    32     3     2   am
    33     3    12    1
    34     8     9   ar
    35    22    21    1
    36     2     1    2
    37    11    12    1
    38    11    10   ar
    39    13    12    1
    40     9    10   ar
