@<TRIPOS>MOLECULE
4elm_FUC_C_1.pdb
 10 10 0 0 0
SMALL
GASTEIGER

@<TRIPOS>ATOM
      1  C1        47.4620  -40.2240   48.8610 C.3   506  FUC506      0.1776
      2  C2        46.4410  -40.0190   47.7310 C.3   506  FUC506      0.2141
      3  C3        45.0290  -39.8240   48.2920 C.3   506  FUC506      0.2172
      4  C4        45.0190  -38.6910   49.3220 C.3   506  FUC506      0.2116
      5  C5        46.0410  -39.0510   50.4090 C.3   506  FUC506      0.1483
      6  C6        46.0270  -38.0890   51.5980 C.3   506  FUC506      0.0349
      7  O2        46.4380  -41.1220   46.8510 O.3   506  FUC506     -0.2176
      8  O3        44.1100  -39.5930   47.2480 O.3   506  FUC506     -0.2175
      9  O4        45.3370  -37.4520   48.7130 O.3   506  FUC506     -0.2177
     10  O5        47.3410  -39.1800   49.8330 O.3   506  FUC506     -0.3508
@<TRIPOS>BOND
     1     7     2    1
     2     8     3    1
     3     2     3    1
     4     2     1    1
     5     3     4    1
     6     9     4    1
     7     1    10    1
     8     4     5    1
     9    10     5    1
    10     5     6    1
