@<TRIPOS>MOLECULE
4elm_SGF_A_1.pdb
 36 36 0 0 0
SMALL
GASTEIGER

@<TRIPOS>ATOM
      1  C17       31.2740  -17.9710  -12.0800 C.3   305  SGF305      0.0000
      2  C16       30.6200  -19.3050  -11.6940 C.3   305  SGF305      0.0000
      3  C15       31.5270  -20.1250  -10.7730 C.3   305  SGF305      0.0000
      4  C14       30.7130  -21.1470   -9.9730 C.3   305  SGF305      0.0000
      5  C13       31.6250  -22.1670   -9.2850 C.3   305  SGF305      0.0000
      6  C12       31.1960  -23.5980   -9.6120 C.3   305  SGF305      0.0000
      7  C11       32.3650  -24.3940  -10.1920 C.3   305  SGF305      0.0000
      8  C10       31.8640  -25.5830  -11.0120 C.3   305  SGF305      0.0000
      9  C9        32.3880  -26.9000  -10.4410 C.3   305  SGF305      0.0000
     10  C8        32.6470  -27.9130  -11.5550 C.3   305  SGF305      0.0000
     11  C7        34.1430  -28.1990  -11.6930 C.3   305  SGF305      0.0003
     12  C6        34.3920  -29.4490  -12.5400 C.3   305  SGF305      0.0047
     13  C5        34.9290  -29.0780  -13.9250 C.3   305  SGF305      0.0258
     14  C4        34.3860  -29.8980  -14.9050 C.2   305  SGF305     -0.0282
     15  C3        34.2550  -29.4280  -16.2050 C.2   305  SGF305      0.0031
     16  C2        33.6570  -30.3490  -17.2690 C.3   305  SGF305      0.1936
     17  O1        32.7000  -29.6230  -18.0460 O.3   305  SGF305     -0.2167
     18  C1        34.7530  -30.9010  -18.1950 C.3   305  SGF305      0.1558
     19  C         34.3180  -32.2250  -18.8370 C.3   305  SGF305      0.1667
     20  O         33.1320  -32.1110  -19.6440 O.3   305  SGF305     -0.3269
     21  C43       33.5310  -32.2000  -21.0080 C.3   305  SGF305      0.2695
     22  C44       32.5620  -33.0450  -21.8370 C.3   305  SGF305      0.2397
     23  O3        32.5060  -34.3760  -21.3250 O.3   305  SGF305     -0.2149
     24  O6        33.6160  -30.8620  -21.5580 O.3   305  SGF305     -0.3256
     25  C47       34.2440  -30.8910  -22.8610 C.3   305  SGF305      0.1835
     26  C48       34.5230  -29.4620  -23.3470 C.3   305  SGF305      0.2142
     27  O7        35.6120  -28.9080  -22.6040 O.3   305  SGF305     -0.2176
     28  C46       33.3360  -31.6680  -23.8290 C.3   305  SGF305      0.2135
     29  O5        32.1050  -30.9650  -24.0100 O.3   305  SGF305     -0.2176
     30  C45       33.0500  -33.0820  -23.2870 C.3   305  SGF305      0.2111
     31  O4        32.0770  -33.7420  -24.1050 O.3   305  SGF305     -0.2382
     32  S         32.5970  -34.9360  -24.7140 S.3   305  SGF305     -0.0001
     33  O10       31.5630  -35.5060  -25.6390 O.2   305  SGF305     -0.3452
     34  O9        33.8200  -34.6120  -25.5220 O.2   305  SGF305     -0.3452
     35  O8        32.9320  -35.9470  -23.6490 O.3   305  SGF305     -0.2682
     36  N         36.0040  -31.1290  -17.4520 N.3   305  SGF305     -0.1272
@<TRIPOS>BOND
     1    33    32    2
     2    34    32    2
     3    32    31    1
     4    32    35    1
     5    31    30    1
     6    29    28    1
     7    28    30    1
     8    28    25    1
     9    26    25    1
    10    26    27    1
    11    30    22    1
    12    25    24    1
    13    22    23    1
    14    22    21    1
    15    24    21    1
    16    21    20    1
    17    20    19    1
    18    19    18    1
    19    18    36    1
    20    18    16    1
    21    17    16    1
    22    16    15    1
    23    15    14    2
    24    14    13    1
    25    13    12    1
    26    12    11    1
    27     1     2    1
    28     2     3    1
    29    11    10    1
    30    10     9    1
    31     8     9    1
    32     8     7    1
    33     3     4    1
    34     7     6    1
    35     4     5    1
    36     6     5    1
