@<TRIPOS>MOLECULE
4em5_BG6_A_1.pdb
 16 16 0 0 0
SMALL
GASTEIGER

@<TRIPOS>ATOM
      1  C1        24.1920    4.1930   28.2060 C.3   601  BG6601      0.3024
      2  C2        25.4850    4.3180   29.0270 C.3   601  BG6601      0.2434
      3  O1        23.5740    5.4800   28.0540 O.3   601  BG6601     -0.1869
      4  O5        23.2510    3.2350   28.7440 O.3   601  BG6601     -0.3237
      5  C3        25.4080    3.6000   30.3820 C.3   601  BG6601      0.2199
      6  O2        26.5680    3.8060   28.2480 O.3   601  BG6601     -0.2148
      7  C4        24.0410    3.8400   31.0400 C.3   601  BG6601      0.2143
      8  O3        26.4800    4.0160   31.2390 O.3   601  BG6601     -0.2174
      9  C5        22.9030    3.2940   30.1510 C.3   601  BG6601      0.1808
     10  O4        24.0060    3.3400   32.3840 O.3   601  BG6601     -0.2176
     11  C6        21.5910    4.0620   30.3140 C.3   601  BG6601      0.1859
     12  O6        20.5870    3.4710   29.4930 O.3   601  BG6601     -0.2675
     13  P         19.0080    3.7750   29.6310 P.3   601  BG6601      0.5327
     14  O1P       18.7070    4.4020   28.2870 O.2   601  BG6601     -0.2224
     15  O2P       18.5260    2.3580   29.8480 O.3   601  BG6601     -0.1145
     16  O3P       18.6730    4.7140   30.7770 O.3   601  BG6601     -0.1145
@<TRIPOS>BOND
     1     3     1    1
     2     1     4    1
     3     1     2    1
     4     6     2    1
     5    14    13    2
     6     4     9    1
     7     2     5    1
     8    12    13    1
     9    12    11    1
    10    13    15    1
    11    13    16    1
    12     9    11    1
    13     9     7    1
    14     5     7    1
    15     5     8    1
    16     7    10    1
