@<TRIPOS>MOLECULE
4em7_0RA_A_1.pdb
 20 22 0 0 0
SMALL
GASTEIGER

@<TRIPOS>ATOM
      1  C1        12.1830   27.0230    8.3150 C.ar  301  0RA301     -0.0003
      2  C2        11.6610   27.6750    9.4080 C.ar  301  0RA301     -0.0043
      3  C3        11.9550   29.0040    9.6230 C.ar  301  0RA301     -0.0216
      4  C4        12.7720   29.6770    8.7380 C.ar  301  0RA301     -0.0042
      5  C5        13.3050   29.0350    7.6380 C.ar  301  0RA301      0.0012
      6  C6        12.9980   27.7050    7.4400 C.ar  301  0RA301      0.0000
      7  C7        14.1520   29.7240    6.6900 C.2   301  0RA301      0.0206
      8  C8        15.1430   29.0550    6.0000 C.2   301  0RA301      0.0116
      9  C9        15.8770   29.8020    5.0930 C.2   301  0RA301      0.0641
     10  C10       16.9480   29.5280    4.2050 C.2   301  0RA301      0.0314
     11  C11       17.2660   30.6980    3.5480 C.2   301  0RA301      0.1103
     12  N1        16.4250   31.6680    4.0070 N.2   301  0RA301     -0.1922
     13  C12       15.5810   31.1410    4.9430 C.1   301  0RA301      0.0353
     14  N2        14.6440   31.8290    5.5890 N.2   301  0RA301     -0.1922
     15  C13       13.9620   31.0650    6.4450 C.2   301  0RA301      0.1095
     16  C14       11.3960   29.6880   10.7810 C.3   301  0RA301      0.0382
     17  C15       10.0870   29.5430   11.0140 C.3   301  0RA301      0.1187
     18  C16        9.6050   30.2860   12.2350 C.2   301  0RA301      0.3652
     19  O1         9.9430   31.4990   12.3150 O.co2 301  0RA301     -0.2456
     20  O2         8.9040   29.5960   13.0250 O.co2 301  0RA301     -0.2456
@<TRIPOS>BOND
     1    11    12    1
     2    11    10    2
     3    12    13    2
     4    10     9    1
     5    13     9    1
     6    13    14    2
     7     9     8    2
     8    14    15    1
     9     8     7    1
    10    15     7    2
    11     7     5    1
    12     6     5   ar
    13     6     1   ar
    14     5     4   ar
    15     1     2   ar
    16     4     3   ar
    17     2     3   ar
    18     3    16    1
    19    16    17    1
    20    17    18    1
    21    18    19   ar
    22    18    20   ar
