@<TRIPOS>MOLECULE
4em9_KNA_A_1.pdb
 11 10 0 0 0
SMALL
GASTEIGER

@<TRIPOS>ATOM
      1  C1        12.4610    3.5220   13.7400 C.2   501  KNA501      0.3649
      2  O1        12.2010    3.8640   12.5750 O.co2 501  KNA501     -0.2457
      3  C2        13.1770    4.5510   14.5760 C.3   501  KNA501      0.1141
      4  O2        12.2040    2.4210   14.2630 O.co2 501  KNA501     -0.2457
      5  C3        14.3340    5.0970   13.7920 C.3   501  KNA501      0.0118
      6  C4        15.6220    5.2180   14.5870 C.3   501  KNA501      0.0006
      7  C5        16.4890    6.3430   14.0270 C.3   501  KNA501      0.0000
      8  C6        17.4160    5.8630   12.9080 C.3   501  KNA501      0.0000
      9  C7        16.7780    6.0130   11.5310 C.3   501  KNA501      0.0000
     10  C8        17.6150    6.9180   10.6570 C.3   501  KNA501      0.0000
     11  C9        18.7880    6.1410   10.1350 C.3   501  KNA501      0.0000
@<TRIPOS>BOND
     1    11    10    1
     2    10     9    1
     3     9     8    1
     4     2     1   ar
     5     8     7    1
     6     1     4   ar
     7     1     3    1
     8     5     3    1
     9     5     6    1
    10     7     6    1
