@<TRIPOS>MOLECULE
4em9_TCE_B_1.pdb
 16 15 0 0 0
SMALL
GASTEIGER

@<TRIPOS>ATOM
      1  O16       44.4070  -20.2970   46.5240 O.co2 502  TCE502     -0.2456
      2  C14       43.3020  -20.7300   46.3890 C.2   502  TCE502      0.3652
      3  O15       42.6890  -21.4220   47.4480 O.co2 502  TCE502     -0.2456
      4  C5        42.6660  -20.7880   44.9860 C.3   502  TCE502      0.1187
      5  C2        41.1510  -21.0500   45.1100 C.3   502  TCE502      0.0333
      6  P         40.5800  -22.1030   43.6610 P.3   502  TCE502     -0.0779
      7  C3        39.0420  -21.3450   42.9170 C.3   502  TCE502      0.0333
      8  C6        39.1000  -19.8240   43.0600 C.3   502  TCE502      0.1187
      9  C8        38.2180  -19.1750   41.9840 C.2   502  TCE502      0.3652
     10  O10       37.0800  -19.5000   41.8680 O.co2 502  TCE502     -0.2456
     11  O9        38.7840  -18.2710   41.0770 O.co2 502  TCE502     -0.2456
     12  C1        40.1980  -23.8550   44.2590 C.3   502  TCE502      0.0333
     13  C4        40.0210  -24.7980   43.0360 C.3   502  TCE502      0.1187
     14  C11       38.6120  -24.6010   42.4290 C.2   502  TCE502      0.3652
     15  O12       37.9220  -25.5450   42.1930 O.co2 502  TCE502     -0.2456
     16  O13       38.1780  -23.3050   42.0800 O.co2 502  TCE502     -0.2456
@<TRIPOS>BOND
     1    11     9   ar
     2    10     9   ar
     3     9     8    1
     4    16    14   ar
     5    15    14   ar
     6    14    13    1
     7     7     8    1
     8     7     6    1
     9    13    12    1
    10     6    12    1
    11     6     5    1
    12     4     5    1
    13     4     2    1
    14     2     1   ar
    15     2     3   ar
