@<TRIPOS>MOLECULE
4ema_BRL_A_1.pdb
 25 27 0 0 0
SMALL
GASTEIGER

@<TRIPOS>ATOM
      1  S1        12.5520    7.6380   40.9370 S.3   601  BRL601      0.0093
      2  O2        10.8840    8.2680   39.1200 O.2   601  BRL601     -0.2017
      3  O4        15.0890    7.1020   38.2970 O.2   601  BRL601     -0.2125
      4  O13       15.4480    5.0860   46.3090 O.3   601  BRL601     -0.4736
      5  N3        12.9620    7.6850   38.5090 N.2   601  BRL601     -0.2557
      6  N16       15.3730    6.7310   48.8810 N.pl3 601  BRL601     -0.2879
      7  N18       14.7040    8.8600   49.4270 N.ar  601  BRL601     -0.2292
      8  C2        12.0110    7.9070   39.3980 C.1   601  BRL601      0.2450
      9  C4        14.1320    7.3170   39.0120 C.1   601  BRL601      0.2022
     10  C5        14.2220    7.1630   40.5080 C.3   601  BRL601      0.1865
     11  C6        14.5350    5.7050   40.8450 C.3   601  BRL601      0.0562
     12  C7        14.8140    5.5390   42.3310 C.ar  601  BRL601     -0.0199
     13  C8        16.0350    5.8750   42.8560 C.ar  601  BRL601     -0.0011
     14  C9        16.2540    5.7260   44.2000 C.ar  601  BRL601      0.0366
     15  C10       15.2540    5.2490   45.0090 C.ar  601  BRL601      0.1386
     16  C11       14.0400    4.9090   44.4870 C.ar  601  BRL601      0.0366
     17  C12       13.8160    5.0560   43.1470 C.ar  601  BRL601     -0.0011
     18  C14       16.3800    5.9670   46.7670 C.3   601  BRL601      0.2267
     19  C15       16.4000    5.8930   48.2850 C.3   601  BRL601      0.1396
     20  C16       14.1130    6.2160   49.4130 C.3   601  BRL601      0.1137
     21  C17       15.6200    8.0200   48.9620 C.ar  601  BRL601      0.1318
     22  C19       14.9170   10.1400   49.5220 C.ar  601  BRL601      0.1003
     23  C20       16.1190   10.6690   49.1410 C.ar  601  BRL601      0.0208
     24  C21       17.0960    9.8360   48.6590 C.ar  601  BRL601      0.0045
     25  C22       16.8400    8.4930   48.5670 C.ar  601  BRL601      0.0343
@<TRIPOS>BOND
     1     3     9    2
     2     5     9    2
     3     5     8    2
     4     9    10    1
     5     2     8    2
     6     8     1    1
     7    10    11    1
     8    10     1    1
     9    11    12    1
    10    12    13   ar
    11    12    17   ar
    12    13    14   ar
    13    17    16   ar
    14    14    15   ar
    15    16    15   ar
    16    15     4    1
    17     4    18    1
    18    18    19    1
    19    19     6    1
    20    25    24   ar
    21    25    21   ar
    22    24    23   ar
    23     6    21    1
    24     6    20    1
    25    21     7   ar
    26    23    22   ar
    27     7    22   ar
