@<TRIPOS>MOLECULE
4emd_C5P_A_1.pdb
 21 22 0 0 0
SMALL
GASTEIGER

@<TRIPOS>ATOM
      1  O3P       17.2430  -13.4200   -3.8180 O.3   401  C5P401     -0.1145
      2  P         17.3360  -14.9300   -3.7440 P.3   401  C5P401      0.5327
      3  O1P       17.9960  -15.4700   -2.4970 O.3   401  C5P401     -0.1145
      4  O2P       16.0170  -15.6330   -3.8900 O.2   401  C5P401     -0.2224
      5  O5'       18.3180  -15.4270   -4.9390 O.3   401  C5P401     -0.2675
      6  C5'       18.7860  -16.7790   -4.9940 C.3   401  C5P401      0.1859
      7  C4'       19.8970  -16.9020   -5.9830 C.3   401  C5P401      0.1801
      8  O4'       19.4580  -16.6850   -7.3400 O.3   401  C5P401     -0.3320
      9  C3'       21.0080  -15.8960   -5.7470 C.3   401  C5P401      0.2158
     10  O3'       21.9680  -16.3170   -4.7860 O.3   401  C5P401     -0.2175
     11  C2'       21.6100  -15.7750   -7.1230 C.3   401  C5P401      0.2319
     12  O2'       22.4620  -16.8790   -7.3310 O.3   401  C5P401     -0.2157
     13  C1'       20.4150  -15.9300   -8.0420 C.3   401  C5P401      0.2400
     14  N1        19.8080  -14.6270   -8.3690 N.am  401  C5P401     -0.1778
     15  C2        20.4330  -13.8150   -9.2780 C.1   401  C5P401      0.2756
     16  N3        19.9080  -12.6070   -9.6320 N.2   401  C5P401     -0.3024
     17  C4        18.7680  -12.1760   -9.0990 C.2   401  C5P401      0.2346
     18  C5        18.0680  -12.9940   -8.1840 C.2   401  C5P401      0.0687
     19  C6        18.6120  -14.2380   -7.8300 C.2   401  C5P401      0.0836
     20  O2        21.5070  -14.1860   -9.7650 O.2   401  C5P401     -0.1925
     21  N4        18.2880  -10.9590   -9.4790 N.pl3 401  C5P401     -0.0921
@<TRIPOS>BOND
     1    20    15    2
     2    16    15    2
     3    16    17    2
     4    21    17    1
     5    15    14   am
     6    17    18    1
     7    14    13    1
     8    14    19    1
     9    18    19    2
    10    13     8    1
    11    13    11    1
    12     8     7    1
    13    12    11    1
    14    11     9    1
    15     7     9    1
    16     7     6    1
    17     9    10    1
    18     6     5    1
    19     5     2    1
    20     4     2    2
    21     1     2    1
    22     2     3    1
