@<TRIPOS>MOLECULE
4emf_M7G_A_1.pdb
 29 31 0 0 0
SMALL
GASTEIGER

@<TRIPOS>ATOM
      1  PA        -6.0820  -21.3320  -21.6960 P.3   304  M7G304      0.2231
      2  O1A       -7.3790  -22.0970  -21.9020 O.3   304  M7G304     -0.4370
      3  O2A       -5.7330  -20.2010  -22.5810 O.2   304  M7G304     -0.5169
      4  O3A       -4.8800  -22.4190  -21.6680 O.3   304  M7G304     -0.2261
      5  O5'       -6.0280  -21.0190  -20.1080 O.3   304  M7G304     -0.3111
      6  PB        -4.1330  -23.2600  -22.8240 P.3   304  M7G304      0.5373
      7  O1B       -4.4320  -22.6630  -24.1840 O.2   304  M7G304     -0.2221
      8  O2B       -2.6890  -23.1200  -22.4910 O.3   304  M7G304     -0.1143
      9  O3B       -4.6720  -24.6590  -22.6530 O.3   304  M7G304     -0.1143
     10  C5'       -4.8520  -20.5280  -19.4610 C.3   304  M7G304      0.1813
     11  C4'       -4.5140  -21.2830  -18.1860 C.3   304  M7G304      0.1799
     12  O4'       -5.7480  -21.6040  -17.5590 O.3   304  M7G304     -0.3326
     13  C3'       -3.8140  -22.6120  -18.4780 C.3   304  M7G304      0.2158
     14  O3'       -3.1960  -23.1630  -17.2830 O.3   304  M7G304     -0.2175
     15  C2'       -4.9950  -23.4680  -18.8290 C.3   304  M7G304      0.2310
     16  O2'       -4.6930  -24.8110  -18.4820 O.3   304  M7G304     -0.2158
     17  C1'       -6.0450  -22.9560  -17.8740 C.3   304  M7G304      0.2287
     18  N9        -7.4150  -22.9460  -18.3650 N.pl3 304  M7G304     -0.2454
     19  C8        -7.6890  -23.5620  -19.6610 C.3   304  M7G304      0.1735
     20  N7        -9.1230  -23.2650  -19.6190 N.3   304  M7G304     -0.2343
     21  CM7       -9.8190  -23.7670  -20.8400 C.3   304  M7G304      0.0924
     22  C5        -9.5530  -22.6140  -18.5180 C.3   304  M7G304      0.2475
     23  C6       -10.8400  -22.1250  -18.0160 C.1   304  M7G304      0.2145
     24  O6       -11.8750  -22.2950  -18.6940 O.2   304  M7G304     -0.2115
     25  N1       -10.8170  -21.5190  -16.8010 N.2   304  M7G304     -0.2526
     26  C2        -9.6800  -21.3380  -16.0710 C.1   304  M7G304      0.2525
     27  N2        -9.6650  -20.7400  -14.8620 N.pl3 304  M7G304     -0.0226
     28  N3        -8.4930  -21.7860  -16.4780 N.2   304  M7G304     -0.3118
     29  C4        -8.3860  -22.3930  -17.6790 C.2   304  M7G304      0.2086
@<TRIPOS>BOND
     1     7     6    2
     2     6     9    1
     3     6     8    1
     4     6     4    1
     5     3     1    2
     6     2     1    1
     7     1     4    1
     8     1     5    1
     9    21    20    1
    10     5    10    1
    11    19    20    1
    12    19    18    1
    13    20    22    1
    14    10    11    1
    15    15    16    1
    16    15    13    1
    17    15    17    1
    18    24    23    2
    19    22    23    1
    20    22    29    1
    21    13    11    1
    22    13    14    1
    23    18    17    1
    24    18    29    1
    25    11    12    1
    26    23    25    2
    27    17    12    1
    28    29    28    2
    29    25    26    2
    30    28    26    2
    31    26    27    1
