@<TRIPOS>MOLECULE
4emr_MGP_A_1.pdb
 33 35 0 0 0
SMALL
GASTEIGER

@<TRIPOS>ATOM
      1  PA       -15.5330  -16.1350   -5.0460 P.3   301  MGP301      0.2189
      2  O1A      -15.4690  -17.6200   -4.7220 O.2   301  MGP301     -0.5170
      3  O2A      -14.8290  -15.0580   -4.3620 O.3   301  MGP301     -0.4371
      4  O3A      -17.0570  -15.6620   -5.0840 O.3   301  MGP301     -0.2700
      5  O5'      -15.0760  -15.8790   -6.5540 O.3   301  MGP301     -0.3112
      6  PB       -18.0860  -15.3040   -3.9230 P.3   301  MGP301      0.2277
      7  O1B      -17.5510  -15.2160   -2.5060 O.3   301  MGP301     -0.4368
      8  O2B      -18.7950  -14.0690   -4.4180 O.2   301  MGP301     -0.5168
      9  O3B      -18.9640  -16.6540   -3.9980 O.3   301  MGP301     -0.2258
     10  PC       -20.5000  -16.9010   -4.5510 P.3   301  MGP301      0.5373
     11  O1C      -20.6030  -18.3800   -4.2180 O.3   301  MGP301     -0.1143
     12  O2C      -20.4230  -16.7570   -6.0790 O.2   301  MGP301     -0.2221
     13  O3C      -21.6160  -16.1230   -3.7680 O.3   301  MGP301     -0.1143
     14  C5'      -15.3230  -14.6970   -7.4000 C.3   301  MGP301      0.1813
     15  C4'      -16.1700  -14.8600   -8.6490 C.3   301  MGP301      0.1799
     16  O4'      -15.8090  -16.0990   -9.3170 O.3   301  MGP301     -0.3326
     17  C3'      -17.6740  -14.8040   -8.2940 C.3   301  MGP301      0.2158
     18  O3'      -18.4940  -14.3670   -9.4330 O.3   301  MGP301     -0.2175
     19  C2'      -17.9630  -16.2550   -8.0890 C.3   301  MGP301      0.2310
     20  O2'      -19.3470  -16.5730   -8.3570 O.3   301  MGP301     -0.2158
     21  C1'      -16.9960  -16.8840   -9.0870 C.3   301  MGP301      0.2287
     22  N9       -16.3930  -18.0950   -8.5170 N.pl3 301  MGP301     -0.2454
     23  C8       -16.6260  -18.7650   -7.3800 C.3   301  MGP301      0.1735
     24  N7       -15.7650  -19.8260   -7.2980 N.3   301  MGP301     -0.2343
     25  CM7      -15.7540  -20.7990   -6.1450 C.3   301  MGP301      0.0924
     26  C5       -14.9900  -19.7500   -8.4000 C.3   301  MGP301      0.2475
     27  C6       -13.9170  -20.5760   -8.9370 C.1   301  MGP301      0.2145
     28  O6       -13.5400  -21.5660   -8.2890 O.2   301  MGP301     -0.2115
     29  N1       -13.3780  -20.2250  -10.1240 N.2   301  MGP301     -0.2526
     30  C2       -13.8000  -19.1300  -10.8500 C.1   301  MGP301      0.2525
     31  N2       -13.2090  -18.8580  -12.0240 N.pl3 301  MGP301     -0.0226
     32  N3       -14.8190  -18.3420  -10.4320 N.2   301  MGP301     -0.3118
     33  C4       -15.4060  -18.6190   -9.2140 C.2   301  MGP301      0.2086
@<TRIPOS>BOND
     1    31    30    1
     2    30    32    2
     3    30    29    2
     4    32    33    2
     5    29    27    2
     6    18    17    1
     7    16    21    1
     8    16    15    1
     9    33    22    1
    10    33    26    1
    11    21    22    1
    12    21    19    1
    13    27    26    1
    14    27    28    2
    15    15    17    1
    16    15    14    1
    17    22    23    1
    18    26    24    1
    19    20    19    1
    20    17    19    1
    21    14     5    1
    22    23    24    1
    23    24    25    1
    24     5     1    1
    25    12    10    2
    26     4     1    1
    27     4     6    1
    28     1     2    2
    29     1     3    1
    30    10    11    1
    31    10     9    1
    32    10    13    1
    33     8     6    2
    34     9     6    1
    35     6     7    1
