@<TRIPOS>MOLECULE
4emt_C2E_A_1.pdb
 46 52 0 0 0
SMALL
GASTEIGER

@<TRIPOS>ATOM
      1  P1        54.4070   16.8200   76.6630 P.3   401  C2E401      0.2141
      2  O2P       55.7250   17.6500   76.8540 O.3   401  C2E401     -0.4373
      3  O1P       54.7330   15.3540   76.4060 O.2   401  C2E401     -0.5172
      4  O5'       53.6820   17.4840   75.4520 O.3   401  C2E401     -0.3114
      5  C5'       53.2490   18.8080   75.5500 C.3   401  C2E401      0.1812
      6  C4'       52.3350   19.2720   74.5340 C.3   401  C2E401      0.1771
      7  O4'       52.9910   19.2280   73.1670 O.3   401  C2E401     -0.3327
      8  C3'       51.1520   18.4060   74.4030 C.3   401  C2E401      0.1857
      9  O3'       50.1980   18.8080   75.3300 O.3   401  C2E401     -0.3112
     10  C2'       50.7350   18.6470   73.0270 C.3   401  C2E401      0.2282
     11  O2'       50.0610   19.8750   72.9400 O.3   401  C2E401     -0.2159
     12  C1'       52.0240   18.7300   72.2940 C.3   401  C2E401      0.2292
     13  N9        52.4090   17.3980   71.6920 N.pl3 401  C2E401     -0.2354
     14  C8        52.9980   16.3730   72.3370 C.3   401  C2E401      0.2246
     15  N7        53.1980   15.3570   71.4860 N.2   401  C2E401     -0.2322
     16  C5        52.7140   15.7280   70.2780 C.2   401  C2E401      0.2182
     17  C6        52.6290   15.1370   69.0150 C.1   401  C2E401      0.2372
     18  O6        53.0740   13.8950   68.7780 O.2   401  C2E401     -0.2069
     19  N1        52.0760   15.8180   68.0090 N.2   401  C2E401     -0.2485
     20  C2        51.6200   17.0670   68.1900 C.1   401  C2E401      0.2531
     21  N2        51.0530   17.7430   67.1080 N.pl3 401  C2E401     -0.0226
     22  N3        51.6850   17.6660   69.3770 N.2   401  C2E401     -0.3074
     23  C4        52.2270   17.0220   70.4160 C.2   401  C2E401      0.2300
     24  P11       49.2220   17.6990   75.9800 P.3   401  C2E401      0.2141
     25  O21       48.1010   18.4490   76.6470 O.3   401  C2E401     -0.4373
     26  O11       48.7260   16.7040   75.0090 O.2   401  C2E401     -0.5172
     27  O5A       49.9880   16.9250   77.1150 O.3   401  C2E401     -0.3114
     28  C5A       50.6030   17.6780   78.1970 C.3   401  C2E401      0.1812
     29  C4A       51.5170   16.8800   79.1150 C.3   401  C2E401      0.1771
     30  O4A       50.7610   15.8920   79.7400 O.3   401  C2E401     -0.3327
     31  C3A       52.4910   16.1540   78.3560 C.3   401  C2E401      0.1857
     32  O3A       53.5960   17.0510   78.0030 O.3   401  C2E401     -0.3112
     33  C2A       52.8650   15.1610   79.2480 C.3   401  C2E401      0.2282
     34  O2A       53.6950   15.6710   80.2480 O.3   401  C2E401     -0.2159
     35  C1A       51.5450   14.7610   79.8210 C.3   401  C2E401      0.2292
     36  N91       50.9530   13.6400   79.0890 N.pl3 401  C2E401     -0.2354
     37  C81       50.2750   13.6730   77.9250 C.3   401  C2E401      0.2246
     38  N71       49.9310   12.4290   77.5740 N.2   401  C2E401     -0.2322
     39  C51       50.3940   11.5840   78.5240 C.2   401  C2E401      0.2182
     40  C61       50.3550   10.2050   78.7190 C.1   401  C2E401      0.2372
     41  O61       49.7390    9.3560   77.8350 O.2   401  C2E401     -0.2069
     42  N11       50.9470    9.6920   79.8020 N.2   401  C2E401     -0.2485
     43  C21       51.5510   10.5010   80.6870 C.1   401  C2E401      0.2531
     44  N21       52.1640    9.8940   81.8290 N.pl3 401  C2E401     -0.0226
     45  N31       51.6280   11.8160   80.5510 N.2   401  C2E401     -0.3074
     46  C41       51.0540   12.3560   79.4730 C.2   401  C2E401      0.2300
@<TRIPOS>BOND
     1    21    20    1
     2    19    20    2
     3    19    17    2
     4    20    22    2
     5    18    17    2
     6    17    16    1
     7    22    23    2
     8    16    23    1
     9    16    15    2
    10    23    13    1
    11    15    14    1
    12    13    12    1
    13    13    14    1
    14    12    10    1
    15    12     7    1
    16    11    10    1
    17    10     8    1
    18     7     6    1
    19     8     6    1
    20     8     9    1
    21     6     5    1
    22    26    24    2
    23     9    24    1
    24     4     5    1
    25     4     1    1
    26    24    25    1
    27    24    27    1
    28     3     1    2
    29     1     2    1
    30     1    32    1
    31    27    28    1
    32    38    37    1
    33    38    39    2
    34    41    40    2
    35    37    36    1
    36    32    31    1
    37    28    29    1
    38    31    29    1
    39    31    33    1
    40    39    40    1
    41    39    46    1
    42    40    42    2
    43    36    46    1
    44    36    35    1
    45    29    30    1
    46    33    35    1
    47    33    34    1
    48    46    45    2
    49    30    35    1
    50    42    43    2
    51    45    43    2
    52    43    44    1
