@<TRIPOS>MOLECULE
4emv_0R9_A_1.pdb
 32 35 0 0 0
SMALL
GASTEIGER

@<TRIPOS>ATOM
      1  C1        19.3020   34.4080    1.7060 C.3   301  0R9301      0.0253
      2  C2        19.1460   32.9100    1.7140 C.3   301  0R9301      0.1156
      3  N3        18.0210   32.5050    2.5230 N.am  301  0R9301     -0.1997
      4  C4        18.1310   31.3880    3.3110 C.2   301  0R9301      0.2916
      5  O5        19.1160   30.6600    3.3010 O.2   301  0R9301     -0.2659
      6  C6        17.0040   31.1430    4.1680 C.2   301  0R9301      0.1800
      7  C7        16.7720   30.0420    4.9680 C.3   301  0R9301      0.1038
      8  C8        15.5430   30.2160    5.6570 C.2   301  0R9301      0.0767
      9  C9        14.7890   29.4870    6.5670 C.2   301  0R9301      0.0910
     10  C10       13.5940   30.0230    7.0240 C.2   301  0R9301      0.0395
     11  C11       13.2400   31.2540    6.5240 C.2   301  0R9301      0.1120
     12  N12       13.9170   32.0040    5.6490 N.2   301  0R9301     -0.1825
     13  C13       15.0540   31.4390    5.2500 C.1   301  0R9301      0.0849
     14  N14       15.9390   31.9860    4.3590 N.2   301  0R9301     -0.3500
     15  C15       12.6860   29.3700    7.9540 C.ar  301  0R9301      0.0224
     16  C16       12.0730   30.0370    9.0020 C.ar  301  0R9301      0.0098
     17  C17       11.1950   29.3530    9.8230 C.ar  301  0R9301      0.0989
     18  C18       10.9700   28.0210    9.5560 C.ar  301  0R9301      0.1054
     19  N19       11.5330   27.3320    8.5620 N.ar  301  0R9301     -0.2421
     20  C20       12.3670   28.0370    7.7900 C.ar  301  0R9301      0.0989
     21  C21       10.4890   29.9760   10.9660 C.2   301  0R9301      0.3893
     22  O22       10.6020   31.2200   11.1350 O.co2 301  0R9301     -0.2405
     23  O23        9.8040   29.1960   11.6870 O.co2 301  0R9301     -0.2405
     24  N24       15.2480   28.2520    7.0210 N.ar  301  0R9301     -0.2278
     25  C25       15.5640   27.1720    6.2460 C.ar  301  0R9301      0.1019
     26  C26       15.8980   26.1700    7.1260 C.ar  301  0R9301      0.0455
     27  C27       15.7540   26.7510    8.4080 C.ar  301  0R9301      0.1740
     28  N28       15.3580   28.0230    8.3400 N.ar  301  0R9301     -0.1611
     29  C29       15.9800   26.1310    9.7180 C.3   301  0R9301      0.4366
     30  F30       16.3130   24.8190    9.5880 F     301  0R9301     -0.1643
     31  F31       16.9730   26.7430   10.4120 F     301  0R9301     -0.1643
     32  F32       14.8670   26.1980   10.4970 F     301  0R9301     -0.1643
@<TRIPOS>BOND
     1     1     2    1
     2     2     3    1
     3     3     4   am
     4     5     4    2
     5     4     6    1
     6     6    14    2
     7     6     7    1
     8    14    13    2
     9     7     8    1
    10    13    12    2
    11    13     8    1
    12    12    11    1
    13     8     9    2
    14    25    24   ar
    15    25    26   ar
    16    11    10    2
    17     9    24    1
    18     9    10    1
    19    24    28   ar
    20    10    15    1
    21    26    27   ar
    22    20    15   ar
    23    20    19   ar
    24    15    16   ar
    25    28    27   ar
    26    27    29    1
    27    19    18   ar
    28    16    17   ar
    29    18    17   ar
    30    30    29    1
    31    29    31    1
    32    29    32    1
    33    17    21    1
    34    21    22   ar
    35    21    23   ar
