@<TRIPOS>MOLECULE
4emy_PLP_A_1.pdb
 16 16 0 0 0
SMALL
GASTEIGER

@<TRIPOS>ATOM
      1  N1        48.0540   62.5690  161.7760 N.2   501  PLP501     -0.2505
      2  C2        48.4100   61.2950  162.1850 C.2   501  PLP501      0.0679
      3  C2A       47.7240   60.0970  161.6000 C.3   501  PLP501      0.0499
      4  C3        49.4160   61.1120  163.1300 C.3   501  PLP501      0.1987
      5  O3        49.7610   59.8560  163.5290 O.3   501  PLP501     -0.2162
      6  C4        50.0660   62.1910  163.6920 C.3   501  PLP501      0.1228
      7  C4A       50.5240   62.0230  165.1150 C.2   501  PLP501      0.2141
      8  O4A       51.6950   61.7330  165.3750 O.2   501  PLP501     -0.2879
      9  C5        49.7100   63.4720  163.2710 C.2   501  PLP501      0.0147
     10  C6        48.7000   63.6590  162.3190 C.2   501  PLP501      0.0926
     11  C5A       50.4140   64.6660  163.8970 C.3   501  PLP501      0.1780
     12  O4P       50.6200   65.7270  162.9920 O.3   501  PLP501     -0.2656
     13  P         51.2800   67.0580  163.5830 P.3   501  PLP501      0.5329
     14  O1P       50.1510   67.8690  164.1610 O.3   501  PLP501     -0.1145
     15  O2P       52.0070   67.7610  162.4580 O.2   501  PLP501     -0.2224
     16  O3P       52.2530   66.7310  164.6880 O.3   501  PLP501     -0.1145
@<TRIPOS>BOND
     1     3     2    1
     2     1     2    2
     3     1    10    1
     4     2     4    1
     5    10     9    2
     6    15    13    2
     7    12    13    1
     8    12    11    1
     9     4     5    1
    10     4     6    1
    11     9     6    1
    12     9    11    1
    13    13    14    1
    14    13    16    1
    15     6     7    1
    16     7     8    2
