@<TRIPOS>MOLECULE
4en4_GT1_A_1.pdb
 17 17 0 0 0
SMALL
GASTEIGER

@<TRIPOS>ATOM
      1  O1        30.8400    6.2650   38.4880 O.3   410  GT1410     -0.2856
      2  C4        29.7020    5.9710   39.2460 C.ar  410  GT1410      0.2072
      3  C6        29.3920    4.6850   39.6210 C.ar  410  GT1410      0.0473
      4  C1        30.1990    3.6360   39.3380 C.3   410  GT1410      0.1717
      5  O3        30.8760    3.4780   40.6690 O.3   410  GT1410     -0.3462
      6  C3        31.9640    2.4880   40.5220 C.3   410  GT1410      0.1746
      7  C2        28.1970    4.3740   40.4190 C.ar  410  GT1410      0.0285
      8  C5        27.9620    2.9220   40.7560 C.3   410  GT1410      0.1816
      9  O2        26.8980    2.5420   41.5810 O.3   410  GT1410     -0.2653
     10  C8        27.4510    5.4400   40.7480 C.ar  410  GT1410      0.0966
     11  N1        27.7520    6.7310   40.3770 N.ar  410  GT1410     -0.2452
     12  C7        28.8620    6.9520   39.6330 C.ar  410  GT1410      0.0979
     13  C9        29.1120    8.3960   39.2800 C.3   410  GT1410      0.0555
     14  P1        26.6860    0.9650   41.7490 P.3   410  GT1410      0.5329
     15  O4        25.9730    0.4220   40.4570 O.2   410  GT1410     -0.2224
     16  O5        28.0710    0.2000   41.9590 O.3   410  GT1410     -0.1145
     17  O6        25.6700    0.6510   42.8810 O.3   410  GT1410     -0.1145
@<TRIPOS>BOND
     1     1     2    1
     2     2     3   ar
     3     2    12   ar
     4    13    12    1
     5     4     3    1
     6     4     5    1
     7     3     7   ar
     8    12    11   ar
     9    11    10   ar
    10     7    10   ar
    11     7     8    1
    12    15    14    2
    13     6     5    1
    14     8     9    1
    15     9    14    1
    16    14    16    1
    17    14    17    1
