@<TRIPOS>MOLECULE
4en4_GT0_A_1.pdb
 13 13 0 0 0
SMALL
GASTEIGER

@<TRIPOS>ATOM
      1  C8        28.7310    8.1240   39.5880 C.ar  405  GT0405      0.0967
      2  N1        29.6260    8.8260   38.7490 N.ar  405  GT0405     -0.2452
      3  C7        30.5670    8.1510   37.9620 C.ar  405  GT0405      0.0979
      4  C4        30.6380    6.7330   38.0080 C.ar  405  GT0405      0.2072
      5  C6        29.7430    6.0070   38.8580 C.ar  405  GT0405      0.0474
      6  C2        28.7760    6.7140   39.6590 C.ar  405  GT0405      0.0312
      7  C1        29.8430    4.4610   38.9000 C.3   405  GT0405      0.1717
      8  O3        30.3720    4.0110   40.1770 O.3   405  GT0405     -0.3462
      9  C3        31.7940    4.2420   40.2820 C.3   405  GT0405      0.1746
     10  C5        27.7890    5.9660   40.5820 C.3   405  GT0405      0.2100
     11  O2        26.9230    6.8900   41.2710 O.3   405  GT0405     -0.2151
     12  C9        31.4980    8.9620   37.0800 C.3   405  GT0405      0.0555
     13  O1        31.5700    6.0480   37.2300 O.3   405  GT0405     -0.2856
@<TRIPOS>BOND
     1    12     3    1
     2    13     4    1
     3     3     4   ar
     4     3     2   ar
     5     4     5   ar
     6     2     1   ar
     7     5     7    1
     8     5     6   ar
     9     7     8    1
    10     1     6   ar
    11     6    10    1
    12     8     9    1
    13    10    11    1
