@<TRIPOS>MOLECULE
4en4_ATP_A_1.pdb
 31 33 0 0 0
SMALL
GASTEIGER

@<TRIPOS>ATOM
      1  PG        27.2680    0.5990   46.2770 P.3   404  ATP404      0.5373
      2  O1G       28.3810    0.2040   45.3790 O.2   404  ATP404     -0.2221
      3  O2G       27.7620    1.1300   47.7110 O.3   404  ATP404     -0.1143
      4  O3G       26.3930    1.8190   45.6860 O.3   404  ATP404     -0.1143
      5  PB        26.6460   -2.1760   46.3700 P.3   404  ATP404      0.2277
      6  O1B       27.9720   -2.3950   45.7500 O.2   404  ATP404     -0.5168
      7  O2B       25.9310   -3.1620   47.2080 O.3   404  ATP404     -0.4368
      8  O3B       26.2550   -0.6240   46.5690 O.3   404  ATP404     -0.2258
      9  PA        25.8660   -3.4700   43.9320 P.3   404  ATP404      0.2189
     10  O1A       25.2100   -3.1470   42.6460 O.2   404  ATP404     -0.5170
     11  O2A       26.9270   -4.4850   44.0910 O.3   404  ATP404     -0.4371
     12  O3A       25.7270   -2.3130   45.0500 O.3   404  ATP404     -0.2700
     13  O5'       24.6690   -4.3610   44.5470 O.3   404  ATP404     -0.3112
     14  C5'       23.3800   -3.8020   44.8280 C.3   404  ATP404      0.1813
     15  C4'       22.2680   -4.6800   44.2580 C.3   404  ATP404      0.1821
     16  O4'       22.3780   -4.7690   42.8290 O.3   404  ATP404     -0.3135
     17  C3'       22.4000   -6.1180   44.7630 C.3   404  ATP404      0.2184
     18  O3'       21.6850   -6.2260   46.0010 O.3   404  ATP404     -0.2174
     19  C2'       21.6090   -6.8580   43.6870 C.3   404  ATP404      0.2570
     20  O2'       20.2090   -6.7370   43.9470 O.3   404  ATP404     -0.2130
     21  C1'       21.9840   -6.0910   42.4150 C.3   404  ATP404      0.3186
     22  N9        23.1620   -6.6610   41.7230 N.pl3 404  ATP404     -0.1439
     23  C8        24.2650   -5.9950   41.3980 C.3   404  ATP404      0.3377
     24  N7        25.0770   -6.7840   40.7010 N.2   404  ATP404     -0.2095
     25  C5        24.4880   -7.9710   40.5830 C.2   404  ATP404      0.2526
     26  C6        24.8430   -9.1750   39.9860 C.2   404  ATP404      0.4393
     27  N6        25.9860   -9.2940   39.3250 N.pl3 404  ATP404      0.2180
     28  N1        23.9970  -10.2170   40.0720 N.2   404  ATP404      0.0021
     29  C2        22.8520  -10.1060   40.7080 C.3   404  ATP404      0.5254
     30  N3        22.4770   -8.9840   41.2810 N.2   404  ATP404     -0.0055
     31  C4        23.2710   -7.8940   41.2410 C.2   404  ATP404      0.3518
@<TRIPOS>BOND
     1    27    26    1
     2    26    28    2
     3    26    25    1
     4    28    29    1
     5    25    24    2
     6    25    31    1
     7    24    23    1
     8    29    30    1
     9    31    30    2
    10    31    22    1
    11    23    22    1
    12    22    21    1
    13    21    16    1
    14    21    19    1
    15    10     9    2
    16    16    15    1
    17    19    20    1
    18    19    17    1
    19     9    11    1
    20     9    13    1
    21     9    12    1
    22    15    17    1
    23    15    14    1
    24    13    14    1
    25    17    18    1
    26    12     5    1
    27     2     1    2
    28     4     1    1
    29     6     5    2
    30     1     8    1
    31     1     3    1
    32     5     8    1
    33     5     7    1
