@<TRIPOS>MOLECULE
4en6_GAL_B_1.pdb
 11 11 0 0 0
SMALL
GASTEIGER

@<TRIPOS>ATOM
      1  C1        51.1250   56.5090    6.1080 C.3   702  GAL702      0.1777
      2  C2        50.8200   56.9900    4.6930 C.3   702  GAL702      0.2141
      3  C3        52.0480   57.6060    4.0360 C.3   702  GAL702      0.2173
      4  C4        52.6800   58.6630    4.9530 C.3   702  GAL702      0.2142
      5  C5        52.9090   58.0820    6.3480 C.3   702  GAL702      0.1810
      6  C6        53.4420   59.1180    7.3180 C.3   702  GAL702      0.2141
      7  O2        50.3600   55.9050    3.9000 O.3   702  GAL702     -0.2176
      8  O3        51.6200   58.2280    2.8150 O.3   702  GAL702     -0.2175
      9  O4        51.8310   59.8010    5.0390 O.3   702  GAL702     -0.2176
     10  O5        51.6650   57.5860    6.8870 O.3   702  GAL702     -0.3481
     11  O6        53.3970   58.6380    8.6520 O.3   702  GAL702     -0.2176
@<TRIPOS>BOND
     1     8     3    1
     2     7     2    1
     3     3     2    1
     4     3     4    1
     5     2     1    1
     6     4     9    1
     7     4     5    1
     8     1    10    1
     9     5    10    1
    10     5     6    1
    11     6    11    1
