@<TRIPOS>MOLECULE
4en6_SIA_B_1.pdb
 20 20 0 0 0
SMALL
GASTEIGER

@<TRIPOS>ATOM
      1  C1        51.8300   59.2940    0.7200 C.2   701  SIA701      0.3914
      2  C2        52.5340   58.4690    1.8010 C.3   701  SIA701      0.2203
      3  C3        53.0470   57.1470    1.2040 C.3   701  SIA701      0.0760
      4  C4        54.1390   57.4150    0.1600 C.3   701  SIA701      0.1773
      5  C5        55.2380   58.3320    0.7220 C.3   701  SIA701      0.1552
      6  C6        54.5800   59.5980    1.2920 C.3   701  SIA701      0.1710
      7  C7        55.5700   60.6190    1.8370 C.3   701  SIA701      0.2134
      8  C8        54.8050   61.7260    2.5670 C.3   701  SIA701      0.2173
      9  C9        55.7460   62.8290    3.0360 C.3   701  SIA701      0.2175
     10  C10       57.4660   58.5250   -0.2150 C.2   701  SIA701      0.2420
     11  C11       58.3380   58.8320   -1.4260 C.3   701  SIA701      0.0964
     12  N5        56.1510   58.6850   -0.3520 N.am  701  SIA701     -0.2020
     13  O1A       50.9160   58.7510    0.0540 O.co2 701  SIA701     -0.2430
     14  O1B       52.1510   60.4980    0.5710 O.co2 701  SIA701     -0.2430
     15  O4        54.7060   56.1860   -0.2680 O.3   701  SIA701     -0.2211
     16  O6        53.6300   59.2450    2.3190 O.3   701  SIA701     -0.3429
     17  O7        56.4680   59.9850    2.7320 O.3   701  SIA701     -0.2176
     18  O8        53.8290   62.2800    1.6990 O.3   701  SIA701     -0.2175
     19  O9        56.2000   63.5730    1.9170 O.3   701  SIA701     -0.2175
     20  O10       57.9900   58.1530    0.8310 O.2   701  SIA701     -0.2733
@<TRIPOS>BOND
     1    11    10    1
     2    12    10   am
     3    12     5    1
     4    15     4    1
     5    10    20    2
     6    13     1   ar
     7     4     5    1
     8     4     3    1
     9    14     1   ar
    10     1     2    1
    11     5     6    1
    12     3     2    1
    13     6     7    1
    14     6    16    1
    15    18     8    1
    16     2    16    1
    17     7     8    1
    18     7    17    1
    19    19     9    1
    20     8     9    1
