@<TRIPOS>MOLECULE
4en7_GAL_B_1.pdb
 11 11 0 0 0
SMALL
GASTEIGER

@<TRIPOS>ATOM
      1  C1        51.1320   56.6550    6.1450 C.3   702  GAL702      0.1777
      2  C2        50.8520   57.1020    4.7200 C.3   702  GAL702      0.2141
      3  C3        52.0820   57.6900    4.0480 C.3   702  GAL702      0.2173
      4  C4        52.7630   58.7320    4.9470 C.3   702  GAL702      0.2142
      5  C5        52.9460   58.2000    6.3710 C.3   702  GAL702      0.1810
      6  C6        53.4500   59.2830    7.3010 C.3   702  GAL702      0.2141
      7  O2        50.3890   56.0000    3.9580 O.3   702  GAL702     -0.2176
      8  O3        51.6430   58.3250    2.8360 O.3   702  GAL702     -0.2175
      9  O4        51.9960   59.9280    4.9740 O.3   702  GAL702     -0.2176
     10  O5        51.6850   57.7390    6.9020 O.3   702  GAL702     -0.3481
     11  O6        54.0010   58.7260    8.4850 O.3   702  GAL702     -0.2176
@<TRIPOS>BOND
     1     8     3    1
     2     7     2    1
     3     3     2    1
     4     3     4    1
     5     2     1    1
     6     4     9    1
     7     4     5    1
     8     1    10    1
     9     5    10    1
    10     5     6    1
    11     6    11    1
