@<TRIPOS>MOLECULE
4en7_SIA_B_1.pdb
 20 20 0 0 0
SMALL
GASTEIGER

@<TRIPOS>ATOM
      1  C1        51.8490   59.4890    0.7870 C.2   701  SIA701      0.3914
      2  C2        52.5570   58.6240    1.8400 C.3   701  SIA701      0.2203
      3  C3        53.0960   57.3360    1.1940 C.3   701  SIA701      0.0760
      4  C4        54.2170   57.6520    0.1940 C.3   701  SIA701      0.1773
      5  C5        55.2790   58.5570    0.8230 C.3   701  SIA701      0.1552
      6  C6        54.6010   59.7930    1.4220 C.3   701  SIA701      0.1710
      7  C7        55.5900   60.7540    2.0570 C.3   701  SIA701      0.2134
      8  C8        54.8300   61.9130    2.7000 C.3   701  SIA701      0.2173
      9  C9        55.7850   63.0120    3.1630 C.3   701  SIA701      0.2175
     10  C10       57.4990   58.5560   -0.1310 C.2   701  SIA701      0.2420
     11  C11       58.4470   59.0260   -1.2280 C.3   701  SIA701      0.0964
     12  N5        56.2300   58.9530   -0.2010 N.am  701  SIA701     -0.2020
     13  O1A       50.9440   58.9700    0.0930 O.co2 701  SIA701     -0.2430
     14  O1B       52.1620   60.6990    0.6860 O.co2 701  SIA701     -0.2430
     15  O4        54.8230   56.4470   -0.2500 O.3   701  SIA701     -0.2211
     16  O6        53.6310   59.3910    2.4060 O.3   701  SIA701     -0.3429
     17  O7        56.3390   60.0680    3.0490 O.3   701  SIA701     -0.2176
     18  O8        53.9060   62.4450    1.7660 O.3   701  SIA701     -0.2175
     19  O9        56.3690   63.6500    2.0370 O.3   701  SIA701     -0.2175
     20  O10       57.9210   57.8410    0.7740 O.2   701  SIA701     -0.2733
@<TRIPOS>BOND
     1    11    10    1
     2    15     4    1
     3    12    10   am
     4    12     5    1
     5    10    20    2
     6    13     1   ar
     7     4     5    1
     8     4     3    1
     9    14     1   ar
    10     1     2    1
    11     5     6    1
    12     3     2    1
    13     6     7    1
    14     6    16    1
    15    18     8    1
    16     2    16    1
    17    19     9    1
    18     7     8    1
    19     7    17    1
    20     8     9    1
