@<TRIPOS>MOLECULE
4en8_SIA_B_1.pdb
 20 20 0 0 0
SMALL
GASTEIGER

@<TRIPOS>ATOM
      1  C1        52.4590   59.8450    0.8820 C.2   701  SIA701      0.3914
      2  C2        53.3240   58.9850    1.8090 C.3   701  SIA701      0.2203
      3  C3        53.9290   57.8040    1.0300 C.3   701  SIA701      0.0760
      4  C4        55.0370   58.2360    0.0760 C.3   701  SIA701      0.1773
      5  C5        56.0230   59.1650    0.7590 C.3   701  SIA701      0.1552
      6  C6        55.2420   60.3290    1.3420 C.3   701  SIA701      0.1710
      7  C7        56.1340   61.4190    1.9060 C.3   701  SIA701      0.2134
      8  C8        55.3310   62.3740    2.7740 C.3   701  SIA701      0.2173
      9  C9        56.1950   63.5620    3.2150 C.3   701  SIA701      0.2175
     10  C10       58.2500   59.2580   -0.1640 C.2   701  SIA701      0.2420
     11  C11       59.0430   59.2810   -1.4590 C.3   701  SIA701      0.0964
     12  N5        56.9790   59.6400   -0.2180 N.am  701  SIA701     -0.2020
     13  O1A       51.5600   59.3000    0.1990 O.co2 701  SIA701     -0.2430
     14  O1B       52.6550   61.0810    0.8610 O.co2 701  SIA701     -0.2430
     15  O4        55.7280   57.0910   -0.3860 O.3   701  SIA701     -0.2211
     16  O6        54.3550   59.8370    2.3560 O.3   701  SIA701     -0.3429
     17  O7        57.1960   60.8590    2.6560 O.3   701  SIA701     -0.2176
     18  O8        54.2160   62.8350    2.0300 O.3   701  SIA701     -0.2175
     19  O9        56.5580   64.3340    2.0850 O.3   701  SIA701     -0.2175
     20  O10       58.7920   58.9020    0.8760 O.2   701  SIA701     -0.2733
@<TRIPOS>BOND
     1    11    10    1
     2    15     4    1
     3    12    10   am
     4    12     5    1
     5    10    20    2
     6     4     5    1
     7     4     3    1
     8    13     1   ar
     9     5     6    1
    10    14     1   ar
    11     1     2    1
    12     3     2    1
    13     6     7    1
    14     6    16    1
    15     2    16    1
    16     7    17    1
    17     7     8    1
    18    18     8    1
    19    19     9    1
    20     8     9    1
