@<TRIPOS>MOLECULE
4en8_BGC_B_1.pdb
 12 12 0 0 0
SMALL
GASTEIGER

@<TRIPOS>ATOM
      1  C2        47.0980   62.9280    6.0950 C.3   703  BGC703      0.2434
      2  C3        48.3360   62.0840    5.7400 C.3   703  BGC703      0.2199
      3  C4        48.3350   60.6780    6.3650 C.3   703  BGC703      0.2144
      4  C5        46.9660   60.0240    6.2740 C.3   703  BGC703      0.1836
      5  C6        46.8980   58.7620    7.1140 C.3   703  BGC703      0.2142
      6  C1        45.8340   62.0960    5.9500 C.3   703  BGC703      0.3024
      7  O1        44.7540   62.8270    6.4180 O.3   703  BGC703     -0.1869
      8  O2        47.0160   64.0700    5.2460 O.3   703  BGC703     -0.2148
      9  O3        49.5040   62.7710    6.1600 O.3   703  BGC703     -0.2174
     10  O4        49.2600   59.8360    5.6550 O.3   703  BGC703     -0.2176
     11  O5        45.9490   60.9200    6.7570 O.3   703  BGC703     -0.3236
     12  O6        45.8460   57.9140    6.6810 O.3   703  BGC703     -0.2176
@<TRIPOS>BOND
     1     8     1    1
     2    10     3    1
     3     2     1    1
     4     2     9    1
     5     2     3    1
     6     6     1    1
     7     6     7    1
     8     6    11    1
     9     4     3    1
    10     4    11    1
    11     4     5    1
    12    12     5    1
