@<TRIPOS>MOLECULE
4en8_GAL_B_1.pdb
 11 11 0 0 0
SMALL
GASTEIGER

@<TRIPOS>ATOM
      1  C1        50.6220   59.9470    5.8920 C.3   702  GAL702      0.1777
      2  C2        50.9420   59.6310    7.3680 C.3   702  GAL702      0.2141
      3  C3        52.4660   59.4620    7.5730 C.3   702  GAL702      0.2173
      4  C4        53.0460   58.4690    6.5620 C.3   702  GAL702      0.2142
      5  C5        52.6830   58.9540    5.1730 C.3   702  GAL702      0.1810
      6  C6        53.1830   58.0730    4.0550 C.3   702  GAL702      0.2141
      7  O2        50.4620   60.6900    8.1880 O.3   702  GAL702     -0.2176
      8  O3        52.7270   59.0000    8.8880 O.3   702  GAL702     -0.2175
      9  O4        52.4780   57.1850    6.7720 O.3   702  GAL702     -0.2176
     10  O5        51.2520   58.9930    5.0340 O.3   702  GAL702     -0.3481
     11  O6        52.5370   58.5030    2.8410 O.3   702  GAL702     -0.2176
@<TRIPOS>BOND
     1    11     6    1
     2     6     5    1
     3    10     5    1
     4    10     1    1
     5     5     4    1
     6     1     2    1
     7     4     9    1
     8     4     3    1
     9     2     3    1
    10     2     7    1
    11     3     8    1
