@<TRIPOS>MOLECULE
4en9_SIA_B_1.pdb
 20 20 0 0 0
SMALL
GASTEIGER

@<TRIPOS>ATOM
      1  C1        52.0280   58.9020    1.0110 C.2   701  SIA701      0.3914
      2  C2        52.8390   58.1510    2.0640 C.3   701  SIA701      0.2203
      3  C3        53.5320   56.9320    1.4210 C.3   701  SIA701      0.0760
      4  C4        54.6030   57.3780    0.4170 C.3   701  SIA701      0.1773
      5  C5        55.5550   58.3900    1.0540 C.3   701  SIA701      0.1552
      6  C6        54.7340   59.5480    1.6220 C.3   701  SIA701      0.1710
      7  C7        55.6110   60.6220    2.2340 C.3   701  SIA701      0.2134
      8  C8        54.7340   61.6600    2.9240 C.3   701  SIA701      0.2173
      9  C9        55.5770   62.8370    3.4140 C.3   701  SIA701      0.2175
     10  C10       57.7450   58.4910    0.0370 C.2   701  SIA701      0.2420
     11  C11       58.3270   58.0940   -1.3070 C.3   701  SIA701      0.0964
     12  N5        56.4770   58.8910    0.0540 N.am  701  SIA701     -0.2020
     13  O1A       51.1900   58.2670    0.3360 O.co2 701  SIA701     -0.2430
     14  O1B       52.2120   60.1350    0.8730 O.co2 701  SIA701     -0.2430
     15  O4        55.3390   56.2530   -0.0370 O.3   701  SIA701     -0.2211
     16  O6        53.8110   59.0560    2.6120 O.3   701  SIA701     -0.3429
     17  O7        56.4870   60.0310    3.1780 O.3   701  SIA701     -0.2176
     18  O8        53.7340   62.1170    2.0220 O.3   701  SIA701     -0.2175
     19  O9        56.2140   63.4590    2.3120 O.3   701  SIA701     -0.2175
     20  O10       58.4460   58.4430    1.0450 O.2   701  SIA701     -0.2733
@<TRIPOS>BOND
     1    11    10    1
     2    15     4    1
     3    10    12   am
     4    10    20    2
     5    12     5    1
     6    13     1   ar
     7     4     5    1
     8     4     3    1
     9    14     1   ar
    10     1     2    1
    11     5     6    1
    12     3     2    1
    13     6     7    1
    14     6    16    1
    15    18     8    1
    16     2    16    1
    17     7     8    1
    18     7    17    1
    19    19     9    1
    20     8     9    1
