@<TRIPOS>MOLECULE
4ene_DMU_A_1.pdb
 33 34 0 0 0
SMALL
GASTEIGER

@<TRIPOS>ATOM
      1  C1       -65.1840    8.2850   22.6880 C.3   503  DMU503      0.2404
      2  C2       -64.0940    8.0910   23.7090 C.3   503  DMU503      0.2167
      3  C3       -62.8500    8.7510   23.1280 C.3   503  DMU503      0.1804
      4  C4       -62.5530    8.4170   21.6460 C.3   503  DMU503      0.1803
      5  O5       -63.6920    8.1340   20.8270 O.3   503  DMU503     -0.3257
      6  C6       -64.7610    7.4630   21.4850 C.3   503  DMU503      0.2695
      7  O7       -63.0480   10.1590   23.2610 O.3   503  DMU503     -0.3257
      8  O16      -64.3230    6.1670   21.8950 O.3   503  DMU503     -0.3286
      9  C18      -63.8080    5.4430   20.7820 C.3   503  DMU503      0.1449
     10  C19      -63.9910    3.9790   21.1030 C.3   503  DMU503      0.0322
     11  C22      -63.9820    3.1790   19.8170 C.3   503  DMU503      0.0026
     12  C25      -64.2760    1.7330   20.1840 C.3   503  DMU503      0.0001
     13  C28      -64.8790    0.9680   19.0150 C.3   503  DMU503      0.0000
     14  C31      -63.8380    0.6980   17.9320 C.3   503  DMU503      0.0000
     15  C34      -64.3480   -0.3750   16.9770 C.3   503  DMU503      0.0000
     16  C37      -63.2780   -1.4100   16.6410 C.3   503  DMU503      0.0000
     17  C40      -63.9120   -2.7810   16.4080 C.3   503  DMU503      0.0000
     18  C43      -64.7280   -3.2360   17.6050 C.3   503  DMU503      0.0000
     19  O49      -65.2640    9.6820   22.3480 O.3   503  DMU503     -0.2149
     20  O55      -63.9180    6.6890   23.9480 O.3   503  DMU503     -0.2175
     21  C57      -61.4770    7.3560   21.4200 C.3   503  DMU503      0.2141
     22  O61      -61.4480    7.0790   20.0160 O.3   503  DMU503     -0.2176
     23  C5       -61.1460   11.0110   22.1250 C.3   503  DMU503      0.2406
     24  C7       -60.7860   12.3520   21.5160 C.3   503  DMU503      0.2198
     25  C8       -61.3190   13.3560   22.5060 C.3   503  DMU503      0.2144
     26  C9       -62.8050   13.1220   22.8000 C.3   503  DMU503      0.1835
     27  O1       -63.3470   12.1040   21.9530 O.3   503  DMU503     -0.3256
     28  C10      -62.6610   10.8500   22.0800 C.3   503  DMU503      0.2695
     29  O2       -60.5660   13.1020   23.7010 O.3   503  DMU503     -0.2176
     30  O3       -60.7150   10.9040   23.4970 O.3   503  DMU503     -0.2149
     31  O4       -61.4120   12.5170   20.2390 O.3   503  DMU503     -0.2174
     32  C11      -63.6150   14.4180   22.6940 C.3   503  DMU503      0.2142
     33  O6       -63.3670   15.2320   23.8580 O.3   503  DMU503     -0.2176
@<TRIPOS>BOND
     1    17    16    1
     2    17    18    1
     3    16    15    1
     4    15    14    1
     5    14    13    1
     6    13    12    1
     7    11    12    1
     8    11    10    1
     9    22    21    1
    10    31    24    1
    11     9    10    1
    12     9     8    1
    13     5     6    1
    14     5     4    1
    15    21     4    1
    16     6     8    1
    17     6     1    1
    18    24    23    1
    19    24    25    1
    20     4     3    1
    21    27    28    1
    22    27    26    1
    23    28    23    1
    24    28     7    1
    25    23    30    1
    26    19     1    1
    27    25    26    1
    28    25    29    1
    29     1     2    1
    30    32    26    1
    31    32    33    1
    32     3     7    1
    33     3     2    1
    34     2    20    1
