@<TRIPOS>MOLECULE
4ene_MAL_B_1.pdb
 23 24 0 0 0
SMALL
GASTEIGER

@<TRIPOS>ATOM
      1  C1       -34.5770   18.5230   36.5680 C.3   502  MAL502      0.2695
      2  C2       -33.6720   19.2390   37.5820 C.3   502  MAL502      0.2406
      3  C3       -34.3580   20.4250   38.2510 C.3   502  MAL502      0.2198
      4  C4       -34.8120   21.3970   37.1920 C.3   502  MAL502      0.2144
      5  C5       -35.8180   20.6820   36.3000 C.3   502  MAL502      0.1835
      6  C6       -36.2750   21.5970   35.1620 C.3   502  MAL502      0.2142
      7  O1       -35.4400   17.5820   37.2420 O.3   502  MAL502     -0.3257
      8  O2       -33.2350   18.3100   38.5850 O.3   502  MAL502     -0.2149
      9  O3       -33.4720   21.1250   39.1260 O.3   502  MAL502     -0.2174
     10  O4       -35.4040   22.5250   37.8510 O.3   502  MAL502     -0.2176
     11  O5       -35.3090   19.4520   35.7390 O.3   502  MAL502     -0.3256
     12  O6       -35.7850   22.9330   35.3430 O.3   502  MAL502     -0.2176
     13  C1'      -36.7940   13.8260   36.0300 C.3   502  MAL502      0.3023
     14  C2'      -36.0860   13.8390   37.3830 C.3   502  MAL502      0.2433
     15  C3'      -35.4500   15.2010   37.6910 C.3   502  MAL502      0.2168
     16  C4'      -35.5880   16.2910   36.6120 C.3   502  MAL502      0.1804
     17  C5'      -36.8960   16.2390   35.8080 C.3   502  MAL502      0.1804
     18  C6'      -36.6360   16.5340   34.3290 C.3   502  MAL502      0.2141
     19  O1'      -37.5990   12.6380   35.8950 O.3   502  MAL502     -0.1869
     20  O2'      -37.0040   13.4720   38.4300 O.3   502  MAL502     -0.2148
     21  O3'      -34.0500   14.9850   37.8910 O.3   502  MAL502     -0.2175
     22  O5'      -37.6090   14.9950   35.9280 O.3   502  MAL502     -0.3237
     23  O6'      -36.5220   17.9470   34.1240 O.3   502  MAL502     -0.2176
@<TRIPOS>BOND
     1    23    18    1
     2    18    17    1
     3     6    12    1
     4     6     5    1
     5    11     5    1
     6    11     1    1
     7    17    22    1
     8    17    16    1
     9    19    13    1
    10    22    13    1
    11    13    14    1
    12     5     4    1
    13     1     7    1
    14     1     2    1
    15    16     7    1
    16    16    15    1
    17     4    10    1
    18     4     3    1
    19    14    15    1
    20    14    20    1
    21     2     3    1
    22     2     8    1
    23    15    21    1
    24     3     9    1
