@<TRIPOS>MOLECULE
4eng_CTR_A_1.pdb
 34 36 0 0 0
SMALL
GASTEIGER

@<TRIPOS>ATOM
      1  C1A        0.1410    9.5620   -6.2440 C.3   211  CTR211      0.2695
      2  C2A       -0.8770   10.3400   -7.0560 C.3   211  CTR211      0.2406
      3  C3A       -1.1610    9.6080   -8.3660 C.3   211  CTR211      0.2198
      4  C4A        0.1550    9.3880   -9.1150 C.3   211  CTR211      0.2144
      5  C5A        1.1510    8.6900   -8.2170 C.3   211  CTR211      0.1835
      6  C6A        2.4760    8.4410   -8.8670 C.3   211  CTR211      0.2142
      7  O2A       -2.0930   10.4890   -6.3500 O.3   211  CTR211     -0.2149
      8  O3A       -2.1180   10.3430   -9.0770 O.3   211  CTR211     -0.2174
      9  O4A       -0.0360    8.5950  -10.2970 O.3   211  CTR211     -0.2176
     10  O5A        1.3500    9.4780   -7.0230 O.3   211  CTR211     -0.3256
     11  O6A        3.2270    9.5950   -9.0940 O.3   211  CTR211     -0.2176
     12  C1B        2.3330    9.6290   -1.4810 C.3   211  CTR211      0.2695
     13  C2B        3.2240    9.4260   -2.7070 C.3   211  CTR211      0.2404
     14  C3B        2.5220   10.0970   -3.8960 C.3   211  CTR211      0.2167
     15  C4B        1.0750    9.6030   -3.9730 C.3   211  CTR211      0.1804
     16  C5B        0.3030    9.8470   -2.7180 C.3   211  CTR211      0.1803
     17  C6B       -1.1220    9.4190   -2.6760 C.3   211  CTR211      0.2141
     18  O2B        4.4100   10.1640   -2.4330 O.3   211  CTR211     -0.2149
     19  O3B        3.2020    9.7430   -5.0660 O.3   211  CTR211     -0.2175
     20  O4B        0.4400   10.2970   -5.0810 O.3   211  CTR211     -0.3257
     21  O5B        1.0230    9.1020   -1.6900 O.3   211  CTR211     -0.3257
     22  O6B       -1.2950    8.0740   -3.0180 O.3   211  CTR211     -0.2176
     23  C1C        2.7680    8.7920    3.6040 C.3   211  CTR211      0.3023
     24  C2C        1.6580    8.0090    2.9740 C.3   211  CTR211      0.2433
     25  C3C        2.0630    7.7450    1.4840 C.3   211  CTR211      0.2168
     26  C4C        2.2820    9.1130    0.8750 C.3   211  CTR211      0.1804
     27  C5C        3.2820    9.9310    1.6380 C.3   211  CTR211      0.1804
     28  C6C        3.6420   11.2830    1.0990 C.3   211  CTR211      0.2141
     29  O1C        2.4300    9.0400    4.9940 O.3   211  CTR211     -0.1869
     30  O2C        1.6460    6.7160    3.6270 O.3   211  CTR211     -0.2148
     31  O3C        1.0210    6.9990    0.9180 O.3   211  CTR211     -0.2175
     32  O4C        2.9020    8.9140   -0.4540 O.3   211  CTR211     -0.3257
     33  O5C        2.8930   10.0840    3.0080 O.3   211  CTR211     -0.3237
     34  O6C        2.4990   12.1080    1.2240 O.3   211  CTR211     -0.2176
@<TRIPOS>BOND
     1     9     4    1
     2     4     3    1
     3     4     5    1
     4    11     6    1
     5     8     3    1
     6     6     5    1
     7     3     2    1
     8     5    10    1
     9     2     7    1
    10     2     1    1
    11    10     1    1
    12     1    20    1
    13    20    15    1
    14    19    14    1
    15    15    14    1
    16    15    16    1
    17    14    13    1
    18    22    17    1
    19    16    17    1
    20    16    21    1
    21    13    18    1
    22    13    12    1
    23    21    12    1
    24    12    32    1
    25    32    26    1
    26    26    25    1
    27    26    27    1
    28    31    25    1
    29    28    34    1
    30    28    27    1
    31    25    24    1
    32    27    33    1
    33    24    23    1
    34    24    30    1
    35    33    23    1
    36    23    29    1
