@<TRIPOS>MOLECULE
4enh_HEM_A_1.pdb
 43 50 0 0 0
SMALL
GASTEIGER

@<TRIPOS>ATOM
      1  CHA        1.8330   30.8530  -27.4580 C.2   601  HEM601      0.0000
      2  CHB       -2.6190   28.9730  -26.8950 C.2   601  HEM601      0.0000
      3  CHC       -0.8110   24.5570  -27.7990 C.2   601  HEM601      0.0000
      4  CHD        3.6080   26.6090  -28.0880 C.2   601  HEM601      0.0000
      5  C1A        0.3420   30.7320  -27.3470 C.2   601  HEM601      0.0000
      6  C2A       -0.5700   31.8660  -26.9590 C.2   601  HEM601      0.0000
      7  C3A       -1.7710   31.3160  -26.9350 C.2   601  HEM601      0.0000
      8  C4A       -1.6120   29.8180  -26.9800 C.2   601  HEM601      0.0000
      9  CMA       -3.0450   32.0550  -26.5410 C.3   601  HEM601      0.0000
     10  CAA       -0.1620   32.8420  -25.8650 C.3   601  HEM601      0.0000
     11  CBA        0.2320   34.1240  -26.5370 C.3   601  HEM601      0.0000
     12  CGA        0.5240   35.1560  -25.4870 C.2   601  HEM601      0.0000
     13  O1A        1.0660   34.9200  -24.3960 O.co2 601  HEM601      0.0000
     14  O2A        0.1760   36.3690  -25.8450 O.co2 601  HEM601      0.0000
     15  C1B       -2.5740   27.5430  -27.2920 C.ar  601  HEM601      0.0000
     16  C2B       -3.5830   26.7000  -27.0300 C.ar  601  HEM601      0.0000
     17  C3B       -3.1150   25.3300  -27.3740 C.ar  601  HEM601      0.0000
     18  C4B       -1.6580   25.5560  -27.5380 C.ar  601  HEM601      0.0000
     19  CMB       -5.0070   27.1040  -26.7040 C.3   601  HEM601      0.0000
     20  CAB       -3.6900   24.1410  -27.2080 C.3   601  HEM601      0.0000
     21  CBB       -5.0800   23.7900  -27.6900 C.3   601  HEM601      0.0000
     22  C1C        0.5710   24.7440  -28.2850 C.2   601  HEM601      0.0000
     23  C2C        1.4350   23.7520  -28.5120 C.2   601  HEM601      0.0000
     24  C3C        2.7130   24.4310  -28.8290 C.2   601  HEM601      0.0000
     25  C4C        2.4990   25.7090  -28.5060 C.2   601  HEM601      0.0000
     26  CMC        1.0810   22.3670  -29.0000 C.3   601  HEM601      0.0000
     27  CAC        4.0480   23.7740  -29.0740 C.2   601  HEM601      0.0000
     28  CBC        4.2540   22.7530  -29.9100 C.2   601  HEM601      0.0000
     29  C1D        3.4750   27.9170  -28.0420 C.ar  601  HEM601      0.0000
     30  C2D        4.5700   28.8790  -28.3510 C.ar  601  HEM601      0.0000
     31  C3D        4.0210   30.0900  -28.3100 C.ar  601  HEM601      0.0000
     32  C4D        2.5800   29.8980  -27.9740 C.ar  601  HEM601      0.0000
     33  CMD        6.0470   28.5500  -28.3680 C.3   601  HEM601      0.0000
     34  CAD        4.7380   31.4190  -28.4740 C.3   601  HEM601      0.0000
     35  CBD        4.8310   31.7480  -29.9680 C.3   601  HEM601      0.0000
     36  CGD        5.5790   33.0430  -30.1900 C.2   601  HEM601      0.0000
     37  O1D        6.3240   33.1600  -31.1460 O.co2 601  HEM601      0.0000
     38  O2D        5.4350   34.0660  -29.3540 O.co2 601  HEM601      0.0000
     39  NA        -0.4580   29.5420  -27.5670 N.2   601  HEM601      0.0000
     40  NB        -1.4670   26.8900  -27.6350 N.ar  601  HEM601      0.0000
     41  NC         1.1660   25.9390  -28.4210 N.2   601  HEM601      0.0000
     42  ND         2.3310   28.5860  -27.9160 N.ar  601  HEM601      0.0000
     43 FE          0.4840   27.7560  -27.7730 Fe    601  HEM601      0.0000
@<TRIPOS>BOND
     1    37    36   ar
     2    36    35    1
     3    36    38   ar
     4    35    34    1
     5    28    27    2
     6    27    24    1
     7    26    23    1
     8    24    23    2
     9    24    25    1
    10    23    22    1
    11    25    41    2
    12    25     4    1
    13    34    31    1
    14    41    22    1
    15    41    43    1
    16    33    30    1
    17    30    31   ar
    18    30    29   ar
    19    31    32   ar
    20    22     3    2
    21     4    29    2
    22    29    42   ar
    23    32    42   ar
    24    32     1    2
    25    42    43    1
    26     3    18    1
    27    43    40    1
    28    43    39    1
    29    21    20    1
    30    40    18   ar
    31    40    15   ar
    32    39     5    2
    33    39     8    1
    34    18    17   ar
    35     1     5    1
    36    17    20    1
    37    17    16   ar
    38     5     6    1
    39    15    16   ar
    40    15     2    1
    41    16    19    1
    42     8     7    1
    43     8     2    2
    44     6     7    2
    45     6    10    1
    46     7     9    1
    47    11    10    1
    48    11    12    1
    49    14    12   ar
    50    12    13   ar
