@<TRIPOS>MOLECULE
4enh_FVX_A_1.pdb
 22 22 0 0 0
SMALL
GASTEIGER

@<TRIPOS>ATOM
      1  C1         3.1570   27.5380  -17.5890 C.3   602  FVX602      0.1741
      2  O2         2.2390   28.1810  -18.4710 O.3   602  FVX602     -0.3511
      3  C3         2.4160   27.6740  -19.7970 C.3   602  FVX602      0.1423
      4  C4         2.7910   28.8170  -20.7470 C.3   602  FVX602      0.0325
      5  C5         2.0130   30.0880  -20.4040 C.3   602  FVX602      0.0090
      6  C6         0.5220   29.8280  -20.6140 C.3   602  FVX602      0.0492
      7  C7         0.0130   30.8380  -21.6060 C.2   602  FVX602      0.0970
      8  N8        -0.0440   30.6480  -22.8640 N.2   602  FVX602     -0.0874
      9  O9         0.7650   29.7740  -23.5720 O.2   602  FVX602     -0.3760
     10  C10        0.2500   28.5640  -24.1570 C.3   602  FVX602      0.2588
     11  C11        1.3980   27.9110  -24.9040 C.3   602  FVX602      0.1595
     12  N12        0.8670   26.7950  -25.7260 N.3   602  FVX602     -0.1272
     13  C13       -0.4280   32.1330  -21.0360 C.ar  602  FVX602      0.0167
     14  C14        0.2850   33.2840  -21.3600 C.ar  602  FVX602      0.0012
     15  C15       -0.1200   34.4950  -20.8180 C.ar  602  FVX602      0.0039
     16  C16       -1.2180   34.5230  -19.9600 C.ar  602  FVX602      0.0714
     17  C17       -1.9220   33.3670  -19.6310 C.ar  602  FVX602      0.0039
     18  C18       -1.5240   32.1540  -20.1720 C.ar  602  FVX602      0.0012
     19  C19       -1.6410   35.8420  -19.3710 C.3   602  FVX602      0.4186
     20  F20       -0.6840   36.7690  -19.5820 F     602  FVX602     -0.1659
     21  F21       -2.8240   36.2330  -19.8940 F     602  FVX602     -0.1659
     22  F22       -1.7670   35.6580  -18.0410 F     602  FVX602     -0.1659
@<TRIPOS>BOND
     1    12    11    1
     2    11    10    1
     3    10     9    1
     4     9     8    1
     5     8     7    2
     6     7    13    1
     7     7     6    1
     8    14    13   ar
     9    14    15   ar
    10    13    18   ar
    11    15    16   ar
    12     4     5    1
    13     4     3    1
    14     6     5    1
    15    18    17   ar
    16    16    17   ar
    17    16    19    1
    18    21    19    1
    19     3     2    1
    20    20    19    1
    21    19    22    1
    22     2     1    1
