@<TRIPOS>MOLECULE
4enp_HEM_A_1.pdb
 43 50 0 0 0
SMALL
GASTEIGER

@<TRIPOS>ATOM
      1  CHA        1.6510   -3.1710   21.0400 C.2   801  HEM801      0.0000
      2  CHB       -2.2770   -3.9270   23.9240 C.2   801  HEM801      0.0000
      3  CHC       -4.3050    0.2190   22.1370 C.2   801  HEM801      0.0000
      4  CHD       -0.7060    0.5150   18.8380 C.2   801  HEM801      0.0000
      5  C1A        0.7740   -3.7060   22.0230 C.2   801  HEM801      0.0000
      6  C2A        1.0270   -4.8820   22.8460 C.2   801  HEM801      0.0000
      7  C3A       -0.1070   -5.0550   23.6730 C.2   801  HEM801      0.0000
      8  C4A       -1.0150   -3.9410   23.3090 C.2   801  HEM801      0.0000
      9  CMA       -0.2960   -6.1340   24.6860 C.3   801  HEM801      0.0000
     10  CAA        2.3130   -5.6630   22.7620 C.3   801  HEM801      0.0000
     11  CBA        2.2360   -6.9370   21.8730 C.3   801  HEM801      0.0000
     12  CGA        3.5470   -7.6440   22.0520 C.2   801  HEM801      0.0000
     13  O1A        4.3390   -7.5470   21.1130 O.co2 801  HEM801      0.0000
     14  O2A        3.7630   -8.2270   23.0830 O.co2 801  HEM801      0.0000
     15  C1B       -3.1800   -2.8380   23.5520 C.ar  801  HEM801      0.0000
     16  C2B       -4.4750   -2.7850   24.2140 C.ar  801  HEM801      0.0000
     17  C3B       -5.0390   -1.6070   23.7680 C.ar  801  HEM801      0.0000
     18  C4B       -4.1410   -0.9600   22.8480 C.ar  801  HEM801      0.0000
     19  CMB       -5.1070   -3.7980   25.0750 C.3   801  HEM801      0.0000
     20  CAB       -6.3330   -0.9790   24.1300 C.2   801  HEM801      0.0000
     21  CBB       -7.4300   -1.6290   24.3140 C.2   801  HEM801      0.0000
     22  C1C       -3.5030    0.6520   21.0650 C.2   801  HEM801      0.0000
     23  C2C       -3.8100    1.7510   20.1440 C.2   801  HEM801      0.0000
     24  C3C       -2.8530    1.7760   19.1540 C.2   801  HEM801      0.0000
     25  C4C       -1.9040    0.7090   19.5200 C.2   801  HEM801      0.0000
     26  CMC       -5.1060    2.5580   20.2200 C.3   801  HEM801      0.0000
     27  CAC       -2.7130    2.6890   18.0440 C.2   801  HEM801      0.0000
     28  CBC       -3.7920    3.1050   17.3870 C.2   801  HEM801      0.0000
     29  C1D        0.3350   -0.4340   19.2020 C.ar  801  HEM801      0.0000
     30  C2D        1.5260   -0.5430   18.4950 C.ar  801  HEM801      0.0000
     31  C3D        2.2180   -1.6030   19.1020 C.ar  801  HEM801      0.0000
     32  C4D        1.3610   -2.0570   20.1770 C.ar  801  HEM801      0.0000
     33  CMD        1.9890    0.3440   17.3590 C.3   801  HEM801      0.0000
     34  CAD        3.5580   -2.2240   18.8370 C.3   801  HEM801      0.0000
     35  CBD        3.2240   -3.4650   17.9640 C.3   801  HEM801      0.0000
     36  CGD        4.4680   -4.0270   17.3300 C.2   801  HEM801      0.0000
     37  O1D        5.5440   -3.3680   17.1540 O.co2 801  HEM801      0.0000
     38  O2D        4.4450   -5.2130   16.8950 O.co2 801  HEM801      0.0000
     39  NA        -0.4560   -3.1370   22.3250 N.2   801  HEM801      0.0000
     40  NB        -2.9450   -1.7230   22.7680 N.ar  801  HEM801      0.0000
     41  NC        -2.2410    0.0260   20.6970 N.2   801  HEM801      0.0000
     42  ND         0.1890   -1.3560   20.2210 N.ar  801  HEM801      0.0000
     43 FE         -1.4940   -1.7130   21.3230 Fe    801  HEM801      0.0000
@<TRIPOS>BOND
     1    38    36   ar
     2    37    36   ar
     3    36    35    1
     4    33    30    1
     5    28    27    2
     6    35    34    1
     7    27    24    1
     8    30    31   ar
     9    30    29   ar
    10    34    31    1
    11     4    29    2
    12     4    25    1
    13    31    32   ar
    14    24    25    1
    15    24    23    2
    16    29    42   ar
    17    25    41    2
    18    23    26    1
    19    23    22    1
    20    32    42   ar
    21    32     1    2
    22    42    43    1
    23    41    22    1
    24    41    43    1
    25     1     5    1
    26    22     3    2
    27    13    12   ar
    28    43    39    1
    29    43    40    1
    30    11    12    1
    31    11    10    1
    32     5    39    2
    33     5     6    1
    34    12    14   ar
    35     3    18    1
    36    39     8    1
    37    10     6    1
    38    40    18   ar
    39    40    15   ar
    40     6     7    2
    41    18    17   ar
    42     8     7    1
    43     8     2    2
    44    15     2    1
    45    15    16   ar
    46     7     9    1
    47    17    20    1
    48    17    16   ar
    49    20    21    2
    50    16    19    1
