@<TRIPOS>MOLECULE
4enq_HDD_A_1.pdb
 44 52 0 0 0
SMALL
GASTEIGER

@<TRIPOS>ATOM
      1 FE         -1.4080   -1.5750   21.2820 Fe    801  HDD801      0.0000
      2  CHA        1.6410   -3.1380   20.8860 C.2   801  HDD801      0.0000
      3  CHB       -2.3460   -3.9350   23.6870 C.2   801  HDD801      0.0000
      4  CHC       -4.3100    0.2910   22.0980 C.2   801  HDD801      0.0000
      5  CHD       -0.6930    0.4230   18.6840 C.2   801  HDD801      0.0000
      6  NA        -0.5110   -3.2300   22.1850 N.2   801  HDD801      0.0000
      7  C1A        0.7350   -3.6600   21.9440 C.2   801  HDD801      0.0000
      8  C2A        1.0710   -4.8840   22.7360 C.2   801  HDD801      0.0000
      9  C3A       -0.0850   -5.1110   23.5880 C.2   801  HDD801      0.0000
     10  C4A       -0.9980   -4.0320   23.1800 C.2   801  HDD801      0.0000
     11  CMA       -0.2720   -6.2300   24.6250 C.3   801  HDD801      0.0000
     12  CAA        2.3370   -5.6900   22.7130 C.3   801  HDD801      0.0000
     13  CBA        2.1830   -7.0050   21.8870 C.3   801  HDD801      0.0000
     14  CGA        3.5550   -7.6490   21.9290 C.2   801  HDD801      0.0000
     15  O1A        4.3000   -7.5580   20.9360 O.co2 801  HDD801      0.0000
     16  O2A        3.8550   -8.1630   23.0240 O.co2 801  HDD801      0.0000
     17  NB        -3.0170   -1.7880   22.6120 N.ar  801  HDD801      0.0000
     18  C1B       -3.2570   -2.7810   23.5300 C.ar  801  HDD801      0.0000
     19  C2B       -4.5530   -2.7680   24.2300 C.ar  801  HDD801      0.0000
     20  C3B       -5.0700   -1.4940   23.7640 C.ar  801  HDD801      0.0000
     21  C4B       -4.0920   -0.9530   22.8130 C.ar  801  HDD801      0.0000
     22  CMB       -5.1620   -3.7030   25.2410 C.3   801  HDD801      0.0000
     23  CAB       -6.2870   -0.8420   24.1640 C.2   801  HDD801      0.0000
     24  CBB       -7.3550   -1.4840   24.4670 C.2   801  HDD801      0.0000
     25  NC        -2.3050    0.1620   20.5860 N.2   801  HDD801      0.0000
     26  C1C       -3.4990    0.7230   20.9340 C.2   801  HDD801      0.0000
     27  C2C       -3.8690    1.8860   20.1210 C.2   801  HDD801      0.0000
     28  C3C       -2.8270    1.8650   19.1330 C.2   801  HDD801      0.0000
     29  C4C       -1.9210    0.7510   19.4280 C.2   801  HDD801      0.0000
     30  CMC       -5.1140    2.8180   20.1710 C.3   801  HDD801      0.0000
     31  CAC       -2.6550    2.7850   17.9770 C.3   801  HDD801      0.0000
     32  CBC       -3.8330    2.9880   17.3600 C.3   801  HDD801      0.0000
     33  ND         0.1470   -1.3560   20.0830 N.pl3 801  HDD801      0.0000
     34  C1D        0.2420   -0.4990   19.0480 C.2   801  HDD801      0.0000
     35  C2D        1.4460   -0.7970   18.1660 C.2   801  HDD801      0.0000
     36  C3D        2.2220   -1.9500   18.7870 C.2   801  HDD801      0.0000
     37  C4D        1.3240   -2.1220   20.0190 C.2   801  HDD801      0.0000
     38  CMD        2.1970    0.4700   17.8140 C.3   801  HDD801      0.0000
     39  CAD        3.7250   -1.6760   18.9540 C.3   801  HDD801      0.0000
     40  CBD        4.5890   -2.4420   17.9330 C.3   801  HDD801      0.0000
     41  CGD        3.7420   -3.6030   17.5780 C.2   801  HDD801      0.0000
     42  O1D        2.4020   -3.2140   18.0100 O.3   801  HDD801      0.0000
     43  O2D        4.1260   -4.6840   17.0130 O.2   801  HDD801      0.0000
     44  OND        1.0160   -1.1860   16.8420 O.2   801  HDD801      0.0000
@<TRIPOS>BOND
     1    44    35    1
     2    43    41    2
     3    32    31    1
     4    41    40    1
     5    41    42    1
     6    38    35    1
     7    40    39    1
     8    31    28    1
     9    42    36    1
    10    35    36    2
    11    35    34    1
    12     5    34    2
    13     5    29    1
    14    36    39    1
    15    36    37    1
    16    34    33    1
    17    28    29    1
    18    28    27    2
    19    29    25    2
    20    37    33    1
    21    37     2    2
    22    33     1    1
    23    27    30    1
    24    27    26    1
    25    25    26    1
    26    25     1    1
    27     2     7    1
    28    26     4    2
    29    15    14   ar
    30     1     6    1
    31     1    17    1
    32    13    14    1
    33    13    12    1
    34    14    16   ar
    35     7     6    2
    36     7     8    1
    37     4    21    1
    38     6    10    1
    39    17    21   ar
    40    17    18   ar
    41    12     8    1
    42     8     9    2
    43    21    20   ar
    44    10     9    1
    45    10     3    2
    46    18     3    1
    47    18    19   ar
    48     9    11    1
    49    20    23    1
    50    20    19   ar
    51    23    24    2
    52    19    22    1
