@<TRIPOS>MOLECULE
4enr_HEM_A_1.pdb
 43 50 0 0 0
SMALL
GASTEIGER

@<TRIPOS>ATOM
      1  CHA        1.7290   -3.1660   21.0270 C.2   801  HEM801      0.0000
      2  CHB       -2.2360   -3.8850   23.9050 C.2   801  HEM801      0.0000
      3  CHC       -4.2680    0.2180   22.0750 C.2   801  HEM801      0.0000
      4  CHD       -0.5750    0.5590   18.8240 C.2   801  HEM801      0.0000
      5  C1A        0.8410   -3.6650   22.0280 C.2   801  HEM801      0.0000
      6  C2A        1.1440   -4.8490   22.8320 C.2   801  HEM801      0.0000
      7  C3A       -0.0090   -5.0260   23.7150 C.2   801  HEM801      0.0000
      8  C4A       -0.9360   -3.9820   23.4040 C.2   801  HEM801      0.0000
      9  CMA       -0.2540   -6.1200   24.7570 C.3   801  HEM801      0.0000
     10  CAA        2.4200   -5.6590   22.7930 C.3   801  HEM801      0.0000
     11  CBA        2.2360   -6.9380   21.9280 C.3   801  HEM801      0.0000
     12  CGA        3.5690   -7.6430   22.0500 C.2   801  HEM801      0.0000
     13  O1A        4.4150   -7.5550   21.1090 O.co2 801  HEM801      0.0000
     14  O2A        3.8090   -8.2160   23.1260 O.co2 801  HEM801      0.0000
     15  C1B       -3.1450   -2.8150   23.5690 C.ar  801  HEM801      0.0000
     16  C2B       -4.4580   -2.7830   24.2730 C.ar  801  HEM801      0.0000
     17  C3B       -5.0100   -1.5570   23.7230 C.ar  801  HEM801      0.0000
     18  C4B       -4.0880   -1.0450   22.7620 C.ar  801  HEM801      0.0000
     19  CMB       -5.0370   -3.7360   25.2160 C.3   801  HEM801      0.0000
     20  CAB       -6.3070   -0.9100   24.0790 C.2   801  HEM801      0.0000
     21  CBB       -7.3360   -1.6910   24.2100 C.2   801  HEM801      0.0000
     22  C1C       -3.3910    0.6560   21.0410 C.2   801  HEM801      0.0000
     23  C2C       -3.7920    1.7620   20.1830 C.2   801  HEM801      0.0000
     24  C3C       -2.7930    1.7470   19.1800 C.2   801  HEM801      0.0000
     25  C4C       -1.7950    0.7470   19.5380 C.2   801  HEM801      0.0000
     26  CMC       -5.1060    2.5940   20.1680 C.3   801  HEM801      0.0000
     27  CAC       -2.5610    2.6590   18.0320 C.2   801  HEM801      0.0000
     28  CBC       -3.6460    3.1040   17.3720 C.2   801  HEM801      0.0000
     29  C1D        0.3710   -0.4470   19.2450 C.ar  801  HEM801      0.0000
     30  C2D        1.6300   -0.5260   18.5440 C.ar  801  HEM801      0.0000
     31  C3D        2.3080   -1.6350   19.1620 C.ar  801  HEM801      0.0000
     32  C4D        1.4170   -2.0640   20.2050 C.ar  801  HEM801      0.0000
     33  CMD        2.1340    0.3080   17.3890 C.3   801  HEM801      0.0000
     34  CAD        3.6730   -2.1020   18.7480 C.3   801  HEM801      0.0000
     35  CBD        3.3370   -3.4830   18.0520 C.3   801  HEM801      0.0000
     36  CGD        4.5470   -4.0770   17.3490 C.2   801  HEM801      0.0000
     37  O1D        5.5860   -3.3740   17.2080 O.co2 801  HEM801      0.0000
     38  O2D        4.5290   -5.2820   16.9670 O.co2 801  HEM801      0.0000
     39  NA        -0.4240   -3.0780   22.3780 N.2   801  HEM801      0.0000
     40  NB        -2.9070   -1.7750   22.7560 N.ar  801  HEM801      0.0000
     41  NC        -2.1070    0.0390   20.7350 N.2   801  HEM801      0.0000
     42  ND         0.2460   -1.3600   20.2960 N.ar  801  HEM801      0.0000
     43 FE         -1.4340   -1.6990   21.3450 Fe    801  HEM801      0.0000
@<TRIPOS>BOND
     1    38    36   ar
     2    37    36   ar
     3    36    35    1
     4    28    27    2
     5    33    30    1
     6    27    24    1
     7    35    34    1
     8    30    31   ar
     9    30    29   ar
    10    34    31    1
    11     4    29    2
    12     4    25    1
    13    31    32   ar
    14    24    25    1
    15    24    23    2
    16    29    42   ar
    17    25    41    2
    18    26    23    1
    19    23    22    1
    20    32    42   ar
    21    32     1    2
    22    42    43    1
    23    41    22    1
    24    41    43    1
    25     1     5    1
    26    22     3    2
    27    13    12   ar
    28    43    39    1
    29    43    40    1
    30    11    12    1
    31    11    10    1
    32     5    39    2
    33     5     6    1
    34    12    14   ar
    35     3    18    1
    36    39     8    1
    37    40    18   ar
    38    40    15   ar
    39    18    17   ar
    40    10     6    1
    41     6     7    2
    42     8     7    1
    43     8     2    2
    44    15     2    1
    45    15    16   ar
    46     7     9    1
    47    17    20    1
    48    17    16   ar
    49    20    21    2
    50    16    19    1
