@<TRIPOS>MOLECULE
4ens_HEM_A_1.pdb
 43 50 0 0 0
SMALL
GASTEIGER

@<TRIPOS>ATOM
      1  CHA        1.6310   -3.2460   21.0410 C.2   802  HEM802      0.0000
      2  CHB       -2.3100   -4.0200   24.1120 C.2   802  HEM802      0.0000
      3  CHC       -4.3000    0.1010   22.4480 C.2   802  HEM802      0.0000
      4  CHD       -0.7210    0.5130   18.9420 C.2   802  HEM802      0.0000
      5  C1A        0.7410   -3.7210   22.0730 C.2   802  HEM802      0.0000
      6  C2A        1.0430   -4.9480   22.8650 C.2   802  HEM802      0.0000
      7  C3A       -0.1090   -5.1260   23.7420 C.2   802  HEM802      0.0000
      8  C4A       -1.0410   -4.0530   23.4220 C.2   802  HEM802      0.0000
      9  CMA       -0.3650   -6.1970   24.7660 C.3   802  HEM802      0.0000
     10  CAA        2.2670   -5.8180   22.8690 C.3   802  HEM802      0.0000
     11  CBA        2.0940   -7.0770   22.0200 C.3   802  HEM802      0.0000
     12  CGA        3.3810   -7.8260   22.2420 C.2   802  HEM802      0.0000
     13  O1A        4.2860   -7.7000   21.3640 O.co2 802  HEM802      0.0000
     14  O2A        3.4920   -8.5210   23.3030 O.co2 802  HEM802      0.0000
     15  C1B       -3.1980   -2.9180   23.8720 C.ar  802  HEM802      0.0000
     16  C2B       -4.3550   -2.7630   24.7430 C.ar  802  HEM802      0.0000
     17  C3B       -4.9050   -1.5670   24.2340 C.ar  802  HEM802      0.0000
     18  C4B       -4.0540   -1.1380   23.1530 C.ar  802  HEM802      0.0000
     19  CMB       -4.8550   -3.6300   25.8440 C.3   802  HEM802      0.0000
     20  CAB       -6.0820   -0.8930   24.7010 C.3   802  HEM802      0.0000
     21  CBB       -6.8740   -0.5600   23.7130 C.3   802  HEM802      0.0000
     22  C1C       -3.4700    0.5090   21.3240 C.2   802  HEM802      0.0000
     23  C2C       -3.9640    1.5870   20.4350 C.2   802  HEM802      0.0000
     24  C3C       -2.9350    1.6600   19.4190 C.2   802  HEM802      0.0000
     25  C4C       -1.8960    0.6740   19.7350 C.2   802  HEM802      0.0000
     26  CMC       -5.2430    2.3840   20.5090 C.3   802  HEM802      0.0000
     27  CAC       -3.0000    2.6040   18.2910 C.2   802  HEM802      0.0000
     28  CBC       -4.1340    3.2800   18.1000 C.2   802  HEM802      0.0000
     29  C1D        0.2860   -0.5110   19.2750 C.ar  802  HEM802      0.0000
     30  C2D        1.5620   -0.5380   18.5630 C.ar  802  HEM802      0.0000
     31  C3D        2.2580   -1.6310   19.2030 C.ar  802  HEM802      0.0000
     32  C4D        1.2890   -2.1240   20.1640 C.ar  802  HEM802      0.0000
     33  CMD        2.0080    0.3840   17.4370 C.3   802  HEM802      0.0000
     34  CAD        3.5850   -2.2540   18.9080 C.3   802  HEM802      0.0000
     35  CBD        3.3260   -3.5800   18.1560 C.3   802  HEM802      0.0000
     36  CGD        4.5540   -4.1360   17.4010 C.2   802  HEM802      0.0000
     37  O1D        5.5350   -3.4320   17.2230 O.co2 802  HEM802      0.0000
     38  O2D        4.5050   -5.3110   16.9270 O.co2 802  HEM802      0.0000
     39  NA        -0.5100   -3.0650   22.4700 N.2   802  HEM802      0.0000
     40  NB        -2.9640   -1.9440   22.9900 N.ar  802  HEM802      0.0000
     41  NC        -2.1260   -0.0180   21.0020 N.2   802  HEM802      0.0000
     42  ND         0.1160   -1.4410   20.2660 N.ar  802  HEM802      0.0000
     43 FE         -1.6310   -1.8700   21.4020 Fe    802  HEM802      0.0000
@<TRIPOS>BOND
     1    38    36   ar
     2    37    36   ar
     3    36    35    1
     4    33    30    1
     5    28    27    2
     6    35    34    1
     7    27    24    1
     8    30    31   ar
     9    30    29   ar
    10    34    31    1
    11     4    29    2
    12     4    25    1
    13    31    32   ar
    14    29    42   ar
    15    24    25    1
    16    24    23    2
    17    25    41    2
    18    32    42   ar
    19    32     1    2
    20    42    43    1
    21    23    26    1
    22    23    22    1
    23    41    22    1
    24    41    43    1
    25     1     5    1
    26    22     3    2
    27    13    12   ar
    28    43    39    1
    29    43    40    1
    30    11    12    1
    31    11    10    1
    32     5    39    2
    33     5     6    1
    34    12    14   ar
    35     3    18    1
    36    39     8    1
    37     6    10    1
    38     6     7    2
    39    40    18   ar
    40    40    15   ar
    41    18    17   ar
    42     8     7    1
    43     8     2    2
    44    21    20    1
    45     7     9    1
    46    15     2    1
    47    15    16   ar
    48    17    20    1
    49    17    16   ar
    50    16    19    1
