@<TRIPOS>MOLECULE
4ens_HDD_A_1.pdb
 44 52 0 0 0
SMALL
GASTEIGER

@<TRIPOS>ATOM
      1 FE         -1.3770   -1.6390   21.4120 Fe    801  HDD801      0.0000
      2  CHA        1.5950   -3.1490   21.0080 C.2   801  HDD801      0.0000
      3  CHB       -2.2880   -3.9350   23.9380 C.2   801  HDD801      0.0000
      4  CHC       -4.2170    0.2770   22.0180 C.2   801  HDD801      0.0000
      5  CHD       -0.6300    0.4560   18.8150 C.2   801  HDD801      0.0000
      6  NA        -0.4600   -3.2030   22.3780 N.2   801  HDD801      0.0000
      7  C1A        0.7620   -3.6840   22.0640 C.2   801  HDD801      0.0000
      8  C2A        1.1310   -4.8740   22.8550 C.2   801  HDD801      0.0000
      9  C3A       -0.0070   -5.0700   23.7110 C.2   801  HDD801      0.0000
     10  C4A       -0.9630   -4.0430   23.3380 C.2   801  HDD801      0.0000
     11  CMA       -0.1370   -6.1370   24.7680 C.3   801  HDD801      0.0000
     12  CAA        2.3800   -5.7040   22.9030 C.3   801  HDD801      0.0000
     13  CBA        2.2370   -6.8670   21.8670 C.3   801  HDD801      0.0000
     14  CGA        3.5440   -7.6170   21.9580 C.2   801  HDD801      0.0000
     15  O1A        4.3600   -7.5570   20.9890 O.co2 801  HDD801      0.0000
     16  O2A        3.8810   -8.2380   23.0220 O.co2 801  HDD801      0.0000
     17  NB        -2.9150   -1.8140   22.6940 N.ar  801  HDD801      0.0000
     18  C1B       -3.1730   -2.8040   23.5860 C.ar  801  HDD801      0.0000
     19  C2B       -4.4960   -2.7320   24.2200 C.ar  801  HDD801      0.0000
     20  C3B       -4.9980   -1.5010   23.7140 C.ar  801  HDD801      0.0000
     21  C4B       -4.0120   -0.9470   22.7930 C.ar  801  HDD801      0.0000
     22  CMB       -5.0950   -3.7720   25.1740 C.3   801  HDD801      0.0000
     23  CAB       -6.2780   -0.9210   24.1060 C.2   801  HDD801      0.0000
     24  CBB       -7.3170   -1.5960   24.5810 C.2   801  HDD801      0.0000
     25  NC        -2.1980    0.0530   20.5610 N.2   801  HDD801      0.0000
     26  C1C       -3.3740    0.6530   20.9070 C.2   801  HDD801      0.0000
     27  C2C       -3.7850    1.8480   20.1370 C.2   801  HDD801      0.0000
     28  C3C       -2.7800    1.7920   19.1510 C.2   801  HDD801      0.0000
     29  C4C       -1.8460    0.7400   19.4910 C.2   801  HDD801      0.0000
     30  CMC       -5.0280    2.7520   20.2410 C.3   801  HDD801      0.0000
     31  CAC       -2.5760    2.7560   18.0530 C.2   801  HDD801      0.0000
     32  CBC       -3.6040    3.0140   17.2620 C.2   801  HDD801      0.0000
     33  ND         0.1350   -1.4140   20.2050 N.pl3 801  HDD801      0.0000
     34  C1D        0.2970   -0.5050   19.1660 C.2   801  HDD801      0.0000
     35  C2D        1.4990   -0.8040   18.2670 C.2   801  HDD801      0.0000
     36  C3D        2.2370   -1.9200   19.0080 C.2   801  HDD801      0.0000
     37  C4D        1.3120   -2.1440   20.1670 C.2   801  HDD801      0.0000
     38  CMD        2.2510    0.4520   17.7980 C.3   801  HDD801      0.0000
     39  CAD        3.6680   -1.7650   19.3310 C.3   801  HDD801      0.0000
     40  CBD        4.4320   -2.2560   18.1240 C.3   801  HDD801      0.0000
     41  CGD        3.6760   -3.5120   17.7640 C.2   801  HDD801      0.0000
     42  O1D        2.4070   -3.1800   18.1920 O.3   801  HDD801      0.0000
     43  O2D        4.0620   -4.5860   17.2350 O.2   801  HDD801      0.0000
     44  OND        0.9750   -1.3280   16.9660 O.2   801  HDD801      0.0000
@<TRIPOS>BOND
     1    44    35    1
     2    43    41    2
     3    32    31    2
     4    41    40    1
     5    41    42    1
     6    38    35    1
     7    31    28    1
     8    40    39    1
     9    42    36    1
    10    35    36    2
    11    35    34    1
    12     5    34    2
    13     5    29    1
    14    36    39    1
    15    36    37    1
    16    28    29    1
    17    28    27    2
    18    34    33    1
    19    29    25    2
    20    27    30    1
    21    27    26    1
    22    37    33    1
    23    37     2    2
    24    33     1    1
    25    25    26    1
    26    25     1    1
    27    26     4    2
    28    15    14   ar
    29     2     7    1
    30     1     6    1
    31     1    17    1
    32    13    14    1
    33    13    12    1
    34    14    16   ar
    35     4    21    1
    36     7     6    2
    37     7     8    1
    38     6    10    1
    39    17    21   ar
    40    17    18   ar
    41    21    20   ar
    42     8    12    1
    43     8     9    2
    44    10     9    1
    45    10     3    2
    46    18     3    1
    47    18    19   ar
    48     9    11    1
    49    20    23    1
    50    20    19   ar
    51    23    24    2
    52    19    22    1
