@<TRIPOS>MOLECULE
4ent_HDD_A_1.pdb
 44 52 0 0 0
SMALL
GASTEIGER

@<TRIPOS>ATOM
      1 FE         -1.3870   -1.5650   21.2850 Fe    801  HDD801      0.0000
      2  CHA        1.6750   -3.0310   20.9530 C.2   801  HDD801      0.0000
      3  CHB       -2.2770   -3.8310   23.7140 C.2   801  HDD801      0.0000
      4  CHC       -4.2480    0.2670   21.8920 C.2   801  HDD801      0.0000
      5  CHD       -0.6400    0.4880   18.6620 C.2   801  HDD801      0.0000
      6  NA        -0.4590   -3.1710   22.2150 N.2   801  HDD801      0.0000
      7  C1A        0.7690   -3.6460   21.9500 C.2   801  HDD801      0.0000
      8  C2A        1.1480   -4.8110   22.7700 C.2   801  HDD801      0.0000
      9  C3A       -0.0130   -5.0300   23.5900 C.2   801  HDD801      0.0000
     10  C4A       -0.9300   -3.9380   23.2050 C.2   801  HDD801      0.0000
     11  CMA       -0.2470   -6.0980   24.6470 C.3   801  HDD801      0.0000
     12  CAA        2.4520   -5.5540   22.7260 C.3   801  HDD801      0.0000
     13  CBA        2.2550   -6.7680   21.7500 C.3   801  HDD801      0.0000
     14  CGA        3.5690   -7.5250   21.8840 C.2   801  HDD801      0.0000
     15  O1A        4.3550   -7.5530   20.8870 O.co2 801  HDD801      0.0000
     16  O2A        3.8450   -8.0200   22.9970 O.co2 801  HDD801      0.0000
     17  NB        -2.9700   -1.7660   22.5890 N.ar  801  HDD801      0.0000
     18  C1B       -3.2560   -2.7700   23.4420 C.ar  801  HDD801      0.0000
     19  C2B       -4.5890   -2.7430   24.0900 C.ar  801  HDD801      0.0000
     20  C3B       -5.1120   -1.4900   23.5690 C.ar  801  HDD801      0.0000
     21  C4B       -4.1200   -1.0040   22.6450 C.ar  801  HDD801      0.0000
     22  CMB       -5.2390   -3.6920   25.0250 C.3   801  HDD801      0.0000
     23  CAB       -6.4250   -0.8840   23.8440 C.2   801  HDD801      0.0000
     24  CBB       -7.3710   -1.5400   24.5090 C.2   801  HDD801      0.0000
     25  NC        -2.2830    0.0990   20.4450 N.2   801  HDD801      0.0000
     26  C1C       -3.4360    0.7160   20.8160 C.2   801  HDD801      0.0000
     27  C2C       -3.8190    1.9110   20.0140 C.2   801  HDD801      0.0000
     28  C3C       -2.7840    1.8630   19.0600 C.2   801  HDD801      0.0000
     29  C4C       -1.8670    0.7790   19.4140 C.2   801  HDD801      0.0000
     30  CMC       -5.0610    2.8480   20.0180 C.3   801  HDD801      0.0000
     31  CAC       -2.5000    2.7540   17.9220 C.2   801  HDD801      0.0000
     32  CBC       -3.5090    3.0230   17.0870 C.2   801  HDD801      0.0000
     33  ND         0.1200   -1.3520   20.1010 N.pl3 801  HDD801      0.0000
     34  C1D        0.2590   -0.4650   19.0220 C.2   801  HDD801      0.0000
     35  C2D        1.4670   -0.7120   18.1470 C.2   801  HDD801      0.0000
     36  C3D        2.1830   -1.8660   18.8590 C.2   801  HDD801      0.0000
     37  C4D        1.2930   -2.0920   20.0670 C.2   801  HDD801      0.0000
     38  CMD        2.2120    0.5790   17.7680 C.3   801  HDD801      0.0000
     39  CAD        3.6960   -1.7030   19.1530 C.3   801  HDD801      0.0000
     40  CBD        4.5080   -2.5570   18.1880 C.3   801  HDD801      0.0000
     41  CGD        3.5710   -3.5660   17.6710 C.2   801  HDD801      0.0000
     42  O1D        2.3040   -3.0720   18.0350 O.3   801  HDD801      0.0000
     43  O2D        3.8530   -4.6200   17.0490 O.2   801  HDD801      0.0000
     44  OND        1.1390   -1.1930   16.8340 O.2   801  HDD801      0.0000
@<TRIPOS>BOND
     1    44    35    1
     2    43    41    2
     3    32    31    2
     4    41    42    1
     5    41    40    1
     6    38    35    1
     7    31    28    1
     8    42    36    1
     9    35    36    2
    10    35    34    1
    11    40    39    1
    12     5    34    2
    13     5    29    1
    14    36    39    1
    15    36    37    1
    16    34    33    1
    17    28    29    1
    18    28    27    2
    19    29    25    2
    20    27    30    1
    21    27    26    1
    22    37    33    1
    23    37     2    2
    24    33     1    1
    25    25    26    1
    26    25     1    1
    27    26     4    2
    28    15    14   ar
    29     2     7    1
    30     1     6    1
    31     1    17    1
    32    13    14    1
    33    13    12    1
    34    14    16   ar
    35     4    21    1
    36     7     6    2
    37     7     8    1
    38     6    10    1
    39    17    21   ar
    40    17    18   ar
    41    21    20   ar
    42    12     8    1
    43     8     9    2
    44    10     9    1
    45    10     3    2
    46    18     3    1
    47    18    19   ar
    48    20    23    1
    49    20    19   ar
    50     9    11    1
    51    23    24    2
    52    19    22    1
