@<TRIPOS>MOLECULE
4ent_HEM_A_1.pdb
 43 50 0 0 0
SMALL
GASTEIGER

@<TRIPOS>ATOM
      1  CHA        1.7080   -3.2110   20.9100 C.2   802  HEM802      0.0000
      2  CHB       -2.4170   -3.9680   23.7000 C.2   802  HEM802      0.0000
      3  CHC       -4.1470    0.3540   22.4270 C.2   802  HEM802      0.0000
      4  CHD       -0.7120    0.4930   18.7170 C.2   802  HEM802      0.0000
      5  C1A        0.7440   -3.7180   21.8770 C.2   802  HEM802      0.0000
      6  C2A        1.0160   -4.9180   22.7330 C.2   802  HEM802      0.0000
      7  C3A       -0.1740   -5.1040   23.5290 C.2   802  HEM802      0.0000
      8  C4A       -1.0870   -4.0100   23.1480 C.2   802  HEM802      0.0000
      9  CMA       -0.3970   -6.2050   24.5380 C.3   802  HEM802      0.0000
     10  CAA        2.2150   -5.8220   22.8510 C.3   802  HEM802      0.0000
     11  CBA        2.0860   -7.0090   21.8930 C.3   802  HEM802      0.0000
     12  CGA        3.3910   -7.7690   22.0200 C.2   802  HEM802      0.0000
     13  O1A        4.2660   -7.6300   21.1400 O.co2 802  HEM802      0.0000
     14  O2A        3.5610   -8.5130   23.0100 O.co2 802  HEM802      0.0000
     15  C1B       -3.2280   -2.8020   23.5950 C.ar  802  HEM802      0.0000
     16  C2B       -4.3180   -2.7010   24.5400 C.ar  802  HEM802      0.0000
     17  C3B       -4.8170   -1.4070   24.1670 C.ar  802  HEM802      0.0000
     18  C4B       -4.0050   -0.9710   23.0250 C.ar  802  HEM802      0.0000
     19  CMB       -4.7280   -3.6890   25.5850 C.3   802  HEM802      0.0000
     20  CAB       -5.9400   -0.7450   24.7650 C.3   802  HEM802      0.0000
     21  CBB       -7.0420   -1.1020   24.1280 C.3   802  HEM802      0.0000
     22  C1C       -3.4080    0.6470   21.2140 C.2   802  HEM802      0.0000
     23  C2C       -3.9590    1.6400   20.2600 C.2   802  HEM802      0.0000
     24  C3C       -2.9790    1.6210   19.2060 C.2   802  HEM802      0.0000
     25  C4C       -1.8770    0.7070   19.5820 C.2   802  HEM802      0.0000
     26  CMC       -5.2850    2.3830   20.2730 C.3   802  HEM802      0.0000
     27  CAC       -3.0570    2.3920   17.9600 C.2   802  HEM802      0.0000
     28  CBC       -3.7010    3.5520   17.9920 C.2   802  HEM802      0.0000
     29  C1D        0.3180   -0.5080   19.0680 C.ar  802  HEM802      0.0000
     30  C2D        1.6140   -0.5280   18.4070 C.ar  802  HEM802      0.0000
     31  C3D        2.2970   -1.6200   19.0500 C.ar  802  HEM802      0.0000
     32  C4D        1.3290   -2.1170   20.0150 C.ar  802  HEM802      0.0000
     33  CMD        2.1390    0.3300   17.2980 C.3   802  HEM802      0.0000
     34  CAD        3.6780   -2.1660   18.7790 C.3   802  HEM802      0.0000
     35  CBD        3.4210   -3.4740   17.9950 C.3   802  HEM802      0.0000
     36  CGD        4.6250   -4.1070   17.2930 C.2   802  HEM802      0.0000
     37  O1D        5.5790   -3.4080   17.1430 O.co2 802  HEM802      0.0000
     38  O2D        4.6180   -5.3000   16.8650 O.co2 802  HEM802      0.0000
     39  NA        -0.5460   -3.0700   22.1690 N.2   802  HEM802      0.0000
     40  NB        -2.9620   -1.8050   22.7430 N.ar  802  HEM802      0.0000
     41  NC        -2.0430    0.1220   20.9120 N.2   802  HEM802      0.0000
     42  ND         0.1620   -1.4330   20.0730 N.ar  802  HEM802      0.0000
     43 FE         -1.6280   -1.7710   21.1170 Fe    802  HEM802      0.0000
@<TRIPOS>BOND
     1    38    36   ar
     2    37    36   ar
     3    36    35    1
     4    33    30    1
     5    27    28    2
     6    27    24    1
     7    35    34    1
     8    30    31   ar
     9    30    29   ar
    10     4    29    2
    11     4    25    1
    12    34    31    1
    13    31    32   ar
    14    29    42   ar
    15    24    25    1
    16    24    23    2
    17    25    41    2
    18    32    42   ar
    19    32     1    2
    20    42    43    1
    21    23    26    1
    22    23    22    1
    23     1     5    1
    24    41    43    1
    25    41    22    1
    26    43    39    1
    27    43    40    1
    28    13    12   ar
    29    22     3    2
    30     5    39    2
    31     5     6    1
    32    11    12    1
    33    11    10    1
    34    12    14   ar
    35    39     8    1
    36     3    18    1
    37     6    10    1
    38     6     7    2
    39    40    18   ar
    40    40    15   ar
    41    18    17   ar
    42     8     7    1
    43     8     2    2
    44     7     9    1
    45    15     2    1
    46    15    16   ar
    47    21    20    1
    48    17    16   ar
    49    17    20    1
    50    16    19    1
