@<TRIPOS>MOLECULE
4enu_HDD_A_1.pdb
 44 52 0 0 0
SMALL
GASTEIGER

@<TRIPOS>ATOM
      1 FE         -1.3700   -1.6330   21.3680 Fe    801  HDD801      0.0000
      2  CHA        1.7350   -3.0960   20.9990 C.2   801  HDD801      0.0000
      3  CHB       -2.1960   -3.8960   23.9450 C.2   801  HDD801      0.0000
      4  CHC       -4.1800    0.2790   22.1000 C.2   801  HDD801      0.0000
      5  CHD       -0.6390    0.4970   18.7280 C.2   801  HDD801      0.0000
      6  NA        -0.4070   -3.1170   22.3450 N.2   801  HDD801      0.0000
      7  C1A        0.8440   -3.6240   22.0290 C.2   801  HDD801      0.0000
      8  C2A        1.2080   -4.8250   22.8080 C.2   801  HDD801      0.0000
      9  C3A        0.0660   -5.0250   23.6970 C.2   801  HDD801      0.0000
     10  C4A       -0.9090   -3.9630   23.3200 C.2   801  HDD801      0.0000
     11  CMA       -0.1790   -6.1170   24.7300 C.3   801  HDD801      0.0000
     12  CAA        2.4630   -5.6700   22.8240 C.3   801  HDD801      0.0000
     13  CBA        2.2320   -6.9080   21.9040 C.3   801  HDD801      0.0000
     14  CGA        3.5770   -7.6000   22.0150 C.2   801  HDD801      0.0000
     15  O1A        4.3900   -7.4710   21.0590 O.co2 801  HDD801      0.0000
     16  O2A        3.8520   -8.1820   23.0970 O.co2 801  HDD801      0.0000
     17  NB        -2.8860   -1.8010   22.7170 N.ar  801  HDD801      0.0000
     18  C1B       -3.1140   -2.7790   23.6650 C.ar  801  HDD801      0.0000
     19  C2B       -4.4230   -2.6670   24.3420 C.ar  801  HDD801      0.0000
     20  C3B       -4.9590   -1.4690   23.7710 C.ar  801  HDD801      0.0000
     21  C4B       -3.9720   -0.9500   22.8220 C.ar  801  HDD801      0.0000
     22  CMB       -4.9780   -3.7110   25.2680 C.3   801  HDD801      0.0000
     23  CAB       -6.2130   -0.8250   24.1930 C.2   801  HDD801      0.0000
     24  CBB       -7.3370   -1.5250   24.4040 C.2   801  HDD801      0.0000
     25  NC        -2.1850    0.0490   20.6400 N.2   801  HDD801      0.0000
     26  C1C       -3.3430    0.6890   21.0190 C.2   801  HDD801      0.0000
     27  C2C       -3.7210    1.8100   20.1880 C.2   801  HDD801      0.0000
     28  C3C       -2.7590    1.7600   19.1870 C.2   801  HDD801      0.0000
     29  C4C       -1.8020    0.7210   19.5360 C.2   801  HDD801      0.0000
     30  CMC       -4.9430    2.7310   20.2890 C.3   801  HDD801      0.0000
     31  CAC       -2.5390    2.6470   18.0570 C.2   801  HDD801      0.0000
     32  CBC       -3.6480    3.0760   17.3960 C.2   801  HDD801      0.0000
     33  ND         0.1660   -1.3930   20.1180 N.pl3 801  HDD801      0.0000
     34  C1D        0.3300   -0.4910   19.0910 C.2   801  HDD801      0.0000
     35  C2D        1.5340   -0.7400   18.2050 C.2   801  HDD801      0.0000
     36  C3D        2.2880   -1.8690   18.9450 C.2   801  HDD801      0.0000
     37  C4D        1.3710   -2.0880   20.1090 C.2   801  HDD801      0.0000
     38  CMD        2.2870    0.5300   17.8080 C.3   801  HDD801      0.0000
     39  CAD        3.7390   -1.7590   19.2340 C.3   801  HDD801      0.0000
     40  CBD        4.5440   -2.3400   18.1020 C.3   801  HDD801      0.0000
     41  CGD        3.7890   -3.6280   17.7550 C.2   801  HDD801      0.0000
     42  O1D        2.5230   -3.1610   18.1350 O.3   801  HDD801      0.0000
     43  O2D        4.2020   -4.7050   17.1780 O.2   801  HDD801      0.0000
     44  OND        1.0990   -1.2670   16.8620 O.2   801  HDD801      0.0000
@<TRIPOS>BOND
     1    44    35    1
     2    43    41    2
     3    32    31    2
     4    41    40    1
     5    41    42    1
     6    38    35    1
     7    31    28    1
     8    40    39    1
     9    42    36    1
    10    35    36    2
    11    35    34    1
    12     5    34    2
    13     5    29    1
    14    36    39    1
    15    36    37    1
    16    34    33    1
    17    28    29    1
    18    28    27    2
    19    29    25    2
    20    37    33    1
    21    37     2    2
    22    33     1    1
    23    27    30    1
    24    27    26    1
    25    25    26    1
    26    25     1    1
    27     2     7    1
    28    26     4    2
    29    15    14   ar
    30     1     6    1
    31     1    17    1
    32    13    14    1
    33    13    12    1
    34    14    16   ar
    35     7     6    2
    36     7     8    1
    37     4    21    1
    38     6    10    1
    39    17    21   ar
    40    17    18   ar
    41     8    12    1
    42     8     9    2
    43    21    20   ar
    44    10     9    1
    45    10     3    2
    46    18     3    1
    47    18    19   ar
    48     9    11    1
    49    20    23    1
    50    20    19   ar
    51    23    24    2
    52    19    22    1
