@<TRIPOS>MOLECULE
4env_HDD_A_1.pdb
 44 52 0 0 0
SMALL
GASTEIGER

@<TRIPOS>ATOM
      1 FE         -1.3360   -1.6810   21.3540 Fe    801  HDD801      0.0000
      2  CHA        1.6240   -3.1440   21.0380 C.2   801  HDD801      0.0000
      3  CHB       -2.3760   -4.0560   23.7810 C.2   801  HDD801      0.0000
      4  CHC       -4.2120    0.1990   22.0900 C.2   801  HDD801      0.0000
      5  CHD       -0.6670    0.3690   18.7810 C.2   801  HDD801      0.0000
      6  NA        -0.5240   -3.3170   22.3100 N.2   801  HDD801      0.0000
      7  C1A        0.7450   -3.7700   22.0560 C.2   801  HDD801      0.0000
      8  C2A        1.1090   -4.9640   22.8700 C.2   801  HDD801      0.0000
      9  C3A       -0.0630   -5.1820   23.6700 C.2   801  HDD801      0.0000
     10  C4A       -1.0070   -4.1310   23.2730 C.2   801  HDD801      0.0000
     11  CMA       -0.3600   -6.2650   24.6950 C.3   801  HDD801      0.0000
     12  CAA        2.3700   -5.8100   22.9420 C.3   801  HDD801      0.0000
     13  CBA        2.2110   -7.0700   22.0480 C.3   801  HDD801      0.0000
     14  CGA        3.6390   -7.6500   21.9850 C.2   801  HDD801      0.0000
     15  O1A        4.3980   -7.5390   20.9510 O.co2 801  HDD801      0.0000
     16  O2A        4.0430   -8.2380   23.0040 O.co2 801  HDD801      0.0000
     17  NB        -2.9480   -1.8830   22.6780 N.ar  801  HDD801      0.0000
     18  C1B       -3.2660   -2.9380   23.4850 C.ar  801  HDD801      0.0000
     19  C2B       -4.5700   -2.8550   24.2110 C.ar  801  HDD801      0.0000
     20  C3B       -5.0970   -1.6150   23.7100 C.ar  801  HDD801      0.0000
     21  C4B       -4.0600   -1.0910   22.7740 C.ar  801  HDD801      0.0000
     22  CMB       -5.1370   -3.8720   25.1400 C.3   801  HDD801      0.0000
     23  CAB       -6.3740   -0.9240   24.0700 C.2   801  HDD801      0.0000
     24  CBB       -7.3680   -1.3910   24.8530 C.2   801  HDD801      0.0000
     25  NC        -2.2750    0.0250   20.5930 N.2   801  HDD801      0.0000
     26  C1C       -3.4010    0.6800   20.9810 C.2   801  HDD801      0.0000
     27  C2C       -3.7660    1.8930   20.1940 C.2   801  HDD801      0.0000
     28  C3C       -2.7270    1.8690   19.1870 C.2   801  HDD801      0.0000
     29  C4C       -1.8610    0.7270   19.5190 C.2   801  HDD801      0.0000
     30  CMC       -4.9640    2.8500   20.3060 C.3   801  HDD801      0.0000
     31  CAC       -2.5590    2.8780   18.1210 C.2   801  HDD801      0.0000
     32  CBC       -3.4070    2.9260   17.1050 C.2   801  HDD801      0.0000
     33  ND         0.1530   -1.4580   20.1670 N.pl3 801  HDD801      0.0000
     34  C1D        0.2430   -0.5930   19.1160 C.2   801  HDD801      0.0000
     35  C2D        1.4380   -0.8320   18.1830 C.2   801  HDD801      0.0000
     36  C3D        2.2380   -1.9400   18.8950 C.2   801  HDD801      0.0000
     37  C4D        1.3240   -2.2000   20.1140 C.2   801  HDD801      0.0000
     38  CMD        2.1420    0.4840   17.8160 C.3   801  HDD801      0.0000
     39  CAD        3.7340   -1.7190   19.1680 C.3   801  HDD801      0.0000
     40  CBD        4.6160   -2.4950   18.1680 C.3   801  HDD801      0.0000
     41  CGD        3.6590   -3.5580   17.7380 C.2   801  HDD801      0.0000
     42  O1D        2.3540   -3.1220   18.0780 O.3   801  HDD801      0.0000
     43  O2D        3.9400   -4.6230   17.1790 O.2   801  HDD801      0.0000
     44  OND        0.9950   -1.2830   16.8630 O.2   801  HDD801      0.0000
@<TRIPOS>BOND
     1    44    35    1
     2    32    31    2
     3    43    41    2
     4    41    42    1
     5    41    40    1
     6    38    35    1
     7    42    36    1
     8    31    28    1
     9    40    39    1
    10    35    36    2
    11    35    34    1
    12     5    34    2
    13     5    29    1
    14    36    39    1
    15    36    37    1
    16    34    33    1
    17    28    29    1
    18    28    27    2
    19    29    25    2
    20    37    33    1
    21    37     2    2
    22    33     1    1
    23    27    30    1
    24    27    26    1
    25    25    26    1
    26    25     1    1
    27    15    14   ar
    28    26     4    2
    29     2     7    1
    30     1     6    1
    31     1    17    1
    32    14    13    1
    33    14    16   ar
    34    13    12    1
    35     7     6    2
    36     7     8    1
    37     4    21    1
    38     6    10    1
    39    17    21   ar
    40    17    18   ar
    41    21    20   ar
    42     8    12    1
    43     8     9    2
    44    10     9    1
    45    10     3    2
    46    18     3    1
    47    18    19   ar
    48     9    11    1
    49    20    23    1
    50    20    19   ar
    51    23    24    2
    52    19    22    1
