@<TRIPOS>MOLECULE
4env_HEM_A_1.pdb
 43 50 0 0 0
SMALL
GASTEIGER

@<TRIPOS>ATOM
      1  CHA        1.6240   -3.2240   20.9690 C.2   802  HEM802      0.0000
      2  CHB       -2.2360   -3.8630   24.1630 C.2   802  HEM802      0.0000
      3  CHC       -4.3270    0.1810   22.2780 C.2   802  HEM802      0.0000
      4  CHD       -0.6730    0.4680   18.8000 C.2   802  HEM802      0.0000
      5  C1A        0.7140   -3.6420   22.0010 C.2   802  HEM802      0.0000
      6  C2A        1.0440   -4.8650   22.7350 C.2   802  HEM802      0.0000
      7  C3A       -0.0420   -5.0570   23.6790 C.2   802  HEM802      0.0000
      8  C4A       -0.9900   -3.9490   23.4360 C.2   802  HEM802      0.0000
      9  CMA       -0.2420   -6.1780   24.6790 C.3   802  HEM802      0.0000
     10  CAA        2.3060   -5.6740   22.5330 C.3   802  HEM802      0.0000
     11  CBA        2.0570   -7.0270   21.8510 C.3   802  HEM802      0.0000
     12  CGA        3.3860   -7.7580   22.0360 C.2   802  HEM802      0.0000
     13  O1A        4.2840   -7.6610   21.1420 O.co2 802  HEM802      0.0000
     14  O2A        3.5590   -8.4220   23.0870 O.co2 802  HEM802      0.0000
     15  C1B       -3.1600   -2.7770   23.8700 C.ar  802  HEM802      0.0000
     16  C2B       -4.3240   -2.5880   24.7500 C.ar  802  HEM802      0.0000
     17  C3B       -4.8910   -1.4140   24.2050 C.ar  802  HEM802      0.0000
     18  C4B       -4.0650   -1.0330   23.0550 C.ar  802  HEM802      0.0000
     19  CMB       -4.8010   -3.3840   25.9130 C.3   802  HEM802      0.0000
     20  CAB       -6.0950   -0.7750   24.6750 C.3   802  HEM802      0.0000
     21  CBB       -7.1860   -1.3800   24.2540 C.3   802  HEM802      0.0000
     22  C1C       -3.4910    0.5640   21.1420 C.2   802  HEM802      0.0000
     23  C2C       -3.9440    1.6170   20.1760 C.2   802  HEM802      0.0000
     24  C3C       -2.8760    1.6300   19.1960 C.2   802  HEM802      0.0000
     25  C4C       -1.8540    0.6520   19.5890 C.2   802  HEM802      0.0000
     26  CMC       -5.2210    2.4680   20.0800 C.3   802  HEM802      0.0000
     27  CAC       -2.8950    2.5290   18.0210 C.2   802  HEM802      0.0000
     28  CBC       -4.0950    3.0080   17.6520 C.2   802  HEM802      0.0000
     29  C1D        0.3060   -0.5580   19.1840 C.ar  802  HEM802      0.0000
     30  C2D        1.5890   -0.5910   18.4500 C.ar  802  HEM802      0.0000
     31  C3D        2.2660   -1.6800   19.1170 C.ar  802  HEM802      0.0000
     32  C4D        1.2760   -2.1350   20.0850 C.ar  802  HEM802      0.0000
     33  CMD        2.0700    0.2890   17.3010 C.3   802  HEM802      0.0000
     34  CAD        3.6040   -2.3090   18.8620 C.3   802  HEM802      0.0000
     35  CBD        3.3370   -3.5780   18.0580 C.3   802  HEM802      0.0000
     36  CGD        4.5650   -4.2020   17.3980 C.2   802  HEM802      0.0000
     37  O1D        5.5830   -3.5020   17.2590 O.co2 802  HEM802      0.0000
     38  O2D        4.5030   -5.3740   16.9730 O.co2 802  HEM802      0.0000
     39  NA        -0.5030   -2.9580   22.4570 N.2   802  HEM802      0.0000
     40  NB        -2.9700   -1.8230   22.9520 N.ar  802  HEM802      0.0000
     41  NC        -2.1300    0.0170   20.8830 N.2   802  HEM802      0.0000
     42  ND         0.0980   -1.4540   20.2000 N.ar  802  HEM802      0.0000
     43 FE         -1.6480   -1.8240   21.3640 Fe    802  HEM802      0.0000
@<TRIPOS>BOND
     1    38    36   ar
     2    37    36   ar
     3    33    30    1
     4    36    35    1
     5    28    27    2
     6    27    24    1
     7    35    34    1
     8    30    31   ar
     9    30    29   ar
    10     4    29    2
    11     4    25    1
    12    34    31    1
    13    31    32   ar
    14    29    42   ar
    15    24    25    1
    16    24    23    2
    17    25    41    2
    18    26    23    1
    19    32    42   ar
    20    32     1    2
    21    23    22    1
    22    42    43    1
    23    41    22    1
    24    41    43    1
    25     1     5    1
    26    13    12   ar
    27    22     3    2
    28    43    39    1
    29    43    40    1
    30    11    12    1
    31    11    10    1
    32     5    39    2
    33     5     6    1
    34    12    14   ar
    35     3    18    1
    36    39     8    1
    37    10     6    1
    38     6     7    2
    39    40    18   ar
    40    40    15   ar
    41    18    17   ar
    42     8     7    1
    43     8     2    2
    44     7     9    1
    45    15     2    1
    46    15    16   ar
    47    17    20    1
    48    17    16   ar
    49    21    20    1
    50    16    19    1
