@<TRIPOS>MOLECULE
4enw_HDD_A_1.pdb
 44 52 0 0 0
SMALL
GASTEIGER

@<TRIPOS>ATOM
      1 FE         -1.3800   -1.6420   21.3290 Fe    801  HDD801      0.0000
      2  CHA        1.6470   -3.1380   20.9650 C.2   801  HDD801      0.0000
      3  CHB       -2.2860   -3.9070   23.8130 C.2   801  HDD801      0.0000
      4  CHC       -4.1710    0.2490   22.0980 C.2   801  HDD801      0.0000
      5  CHD       -0.5960    0.4140   18.6930 C.2   801  HDD801      0.0000
      6  NA        -0.4360   -3.1790   22.3010 N.2   801  HDD801      0.0000
      7  C1A        0.7810   -3.6890   22.0090 C.2   801  HDD801      0.0000
      8  C2A        1.1370   -4.8780   22.8070 C.2   801  HDD801      0.0000
      9  C3A       -0.0130   -5.0730   23.6510 C.2   801  HDD801      0.0000
     10  C4A       -0.9520   -3.9950   23.2600 C.2   801  HDD801      0.0000
     11  CMA       -0.2110   -6.1360   24.7220 C.3   801  HDD801      0.0000
     12  CAA        2.4280   -5.6670   22.7760 C.3   801  HDD801      0.0000
     13  CBA        2.2670   -6.9230   21.8770 C.3   801  HDD801      0.0000
     14  CGA        3.6200   -7.5940   21.9410 C.2   801  HDD801      0.0000
     15  O1A        4.3880   -7.5330   20.9540 O.co2 801  HDD801      0.0000
     16  O2A        3.8910   -8.1360   23.0150 O.co2 801  HDD801      0.0000
     17  NB        -2.9640   -1.8210   22.6820 N.ar  801  HDD801      0.0000
     18  C1B       -3.2090   -2.7900   23.5860 C.ar  801  HDD801      0.0000
     19  C2B       -4.4770   -2.6980   24.3310 C.ar  801  HDD801      0.0000
     20  C3B       -4.9920   -1.4770   23.7740 C.ar  801  HDD801      0.0000
     21  C4B       -4.0130   -0.9940   22.8350 C.ar  801  HDD801      0.0000
     22  CMB       -5.0620   -3.6920   25.3250 C.3   801  HDD801      0.0000
     23  CAB       -6.2480   -0.7850   24.1040 C.2   801  HDD801      0.0000
     24  CBB       -7.2570   -1.5080   24.5600 C.2   801  HDD801      0.0000
     25  NC        -2.1740    0.1190   20.5940 N.2   801  HDD801      0.0000
     26  C1C       -3.3990    0.6650   20.9250 C.2   801  HDD801      0.0000
     27  C2C       -3.7600    1.8300   20.1470 C.2   801  HDD801      0.0000
     28  C3C       -2.7240    1.8210   19.1510 C.2   801  HDD801      0.0000
     29  C4C       -1.8130    0.7310   19.4570 C.2   801  HDD801      0.0000
     30  CMC       -4.9630    2.8010   20.1720 C.3   801  HDD801      0.0000
     31  CAC       -2.5440    2.8210   18.0440 C.2   801  HDD801      0.0000
     32  CBC       -3.6260    3.1060   17.3320 C.2   801  HDD801      0.0000
     33  ND         0.1250   -1.4510   20.1010 N.pl3 801  HDD801      0.0000
     34  C1D        0.2700   -0.5540   19.0630 C.2   801  HDD801      0.0000
     35  C2D        1.4930   -0.7980   18.1950 C.2   801  HDD801      0.0000
     36  C3D        2.2330   -1.9040   18.9320 C.2   801  HDD801      0.0000
     37  C4D        1.3150   -2.1540   20.1000 C.2   801  HDD801      0.0000
     38  CMD        2.1950    0.4930   17.8310 C.3   801  HDD801      0.0000
     39  CAD        3.7030   -1.6730   19.2780 C.3   801  HDD801      0.0000
     40  CBD        4.5560   -2.4130   18.2580 C.3   801  HDD801      0.0000
     41  CGD        3.7220   -3.5390   17.8100 C.2   801  HDD801      0.0000
     42  O1D        2.3750   -3.1200   18.1020 O.3   801  HDD801      0.0000
     43  O2D        4.0950   -4.6040   17.2930 O.2   801  HDD801      0.0000
     44  OND        1.1040   -1.2280   16.8400 O.2   801  HDD801      0.0000
@<TRIPOS>BOND
     1    44    35    1
     2    43    41    2
     3    32    31    2
     4    41    42    1
     5    41    40    1
     6    38    35    1
     7    31    28    1
     8    42    36    1
     9    35    36    2
    10    35    34    1
    11    40    39    1
    12     5    34    2
    13     5    29    1
    14    36    39    1
    15    36    37    1
    16    34    33    1
    17    28    29    1
    18    28    27    2
    19    29    25    2
    20    37    33    1
    21    37     2    2
    22    33     1    1
    23    27    30    1
    24    27    26    1
    25    25    26    1
    26    25     1    1
    27    26     4    2
    28    15    14   ar
    29     2     7    1
    30     1     6    1
    31     1    17    1
    32    13    14    1
    33    13    12    1
    34    14    16   ar
    35     7     6    2
    36     7     8    1
    37     4    21    1
    38     6    10    1
    39    17    21   ar
    40    17    18   ar
    41    12     8    1
    42     8     9    2
    43    21    20   ar
    44    10     9    1
    45    10     3    2
    46    18     3    1
    47    18    19   ar
    48     9    11    1
    49    20    23    1
    50    20    19   ar
    51    23    24    2
    52    19    22    1
