@<TRIPOS>MOLECULE
4enx_Z20_A_1.pdb
 25 27 0 0 0
SMALL
GASTEIGER

@<TRIPOS>ATOM
      1  O24      -44.4890   -1.2920    2.4760 O.2   402  Z20402     -0.1260
      2  N22      -43.4040   -1.4610    1.9490 N.pl3 402  Z20402      0.0609
      3  O23      -42.3660   -1.5750    2.5730 O.2   402  Z20402     -0.1260
      4  C18      -43.3300   -1.5540    0.4400 C.ar  402  Z20402      0.1815
      5  C17      -44.4660   -1.2190   -0.3210 C.ar  402  Z20402      0.2180
      6  O25      -45.5700   -0.8250    0.3490 O.3   402  Z20402     -0.2848
      7  C16      -44.4040   -1.3140   -1.7170 C.ar  402  Z20402      0.0438
      8  C15      -43.2300   -1.7290   -2.3200 C.ar  402  Z20402      0.0034
      9  C19      -42.1490   -1.9730   -0.1720 C.ar  402  Z20402      0.0274
     10  C14      -42.0930   -2.0540   -1.5630 C.ar  402  Z20402      0.0031
     11  C13      -40.8830   -2.5040   -2.2730 C.2   402  Z20402      0.0194
     12  C11      -39.6180   -2.6600   -1.8360 C.2   402  Z20402      0.1276
     13  C10      -38.5390   -3.2890   -2.6490 C.1   402  Z20402      0.2127
     14  O21      -38.6260   -3.7470   -3.7620 O.2   402  Z20402     -0.2087
     15  N9       -37.2360   -3.3190   -1.9420 N.2   402  Z20402     -0.3082
     16  S12      -38.9200   -2.1550   -0.2360 S.3   402  Z20402     -0.0246
     17  C8       -37.2650   -2.7550   -0.6440 C.2   402  Z20402      0.2482
     18  N7       -36.3460   -2.6050    0.2550 N.pl3 402  Z20402     -0.1763
     19  C2       -36.4630   -2.0300    1.5730 C.ar  402  Z20402      0.0841
     20  C3       -35.9800   -0.7290    1.8320 C.ar  402  Z20402      0.0730
     21 CL1       -35.3050    0.2170    0.5830 Cl    402  Z20402     -0.0809
     22  C4       -36.0510   -0.1640    3.0990 C.ar  402  Z20402      0.0127
     23  C5       -36.6030   -0.9090    4.1340 C.ar  402  Z20402      0.0010
     24  C6       -37.0700   -2.2030    3.8980 C.ar  402  Z20402      0.0014
     25  C1       -36.9970   -2.7770    2.6290 C.ar  402  Z20402      0.0175
@<TRIPOS>BOND
     1    14    13    2
     2    13    15    2
     3    13    12    1
     4     8     7   ar
     5     8    10   ar
     6    11    12    2
     7    11    10    1
     8    15    17    2
     9    12    16    1
    10     7     5   ar
    11    10     9   ar
    12    17    16    1
    13    17    18    1
    14     5     6    1
    15     5     4   ar
    16     9     4   ar
    17    18    19    1
    18     4     2    1
    19    21    20    1
    20    19    20   ar
    21    19    25   ar
    22    20    22   ar
    23     2     1    2
    24     2     3    2
    25    25    24   ar
    26    22    23   ar
    27    24    23   ar
