@<TRIPOS>MOLECULE
4eny_J19_A_1.pdb
 24 26 0 0 0
SMALL
GASTEIGER

@<TRIPOS>ATOM
      1  C21      -68.9440  122.3670    2.6510 C.ar  404  J19404      0.0035
      2  O14      -64.9580  119.2810    4.5850 O.2   404  J19404     -0.2087
      3  C11      -65.2360  118.9750    3.4460 C.1   404  J19404      0.2127
      4  N10      -64.5180  117.8920    2.8130 N.2   404  J19404     -0.3082
      5  C12      -66.2890  119.6300    2.5910 C.2   404  J19404      0.1276
      6  S13      -66.2450  118.7650    1.0160 S.3   404  J19404     -0.0246
      7  C9       -64.9100  117.6560    1.5800 C.2   404  J19404      0.2482
      8  N8       -64.4210  116.6990    0.7220 N.pl3 404  J19404     -0.1763
      9  C4       -64.8520  116.4750   -0.6160 C.ar  404  J19404      0.0841
     10  C3       -64.4820  117.3120   -1.6840 C.ar  404  J19404      0.0175
     11  C2       -64.9190  117.0480   -2.9760 C.ar  404  J19404      0.0014
     12  C5       -65.6750  115.3790   -0.9380 C.ar  404  J19404      0.0730
     13 CL7       -66.2010  114.2840    0.2770 Cl    404  J19404     -0.0809
     14  C6       -66.1130  115.1130   -2.2290 C.ar  404  J19404      0.0127
     15  C1       -65.7320  115.9580   -3.2590 C.ar  404  J19404      0.0010
     16  C15      -67.1270  120.6580    2.8910 C.2   404  J19404      0.0195
     17  C16      -68.0440  121.4690    2.0510 C.ar  404  J19404      0.0045
     18  C20      -69.8150  123.1440    1.8870 C.ar  404  J19404      0.0452
     19  C19      -69.7980  123.0430    0.4850 C.ar  404  J19404      0.2293
     20  O22      -70.6430  123.8000   -0.2800 O.3   404  J19404     -0.2833
     21  C18      -68.9010  122.1500   -0.1220 C.ar  404  J19404      0.1774
     22  C17      -68.0440  121.3840    0.6540 C.ar  404  J19404      0.0403
     23  O23      -68.8680  122.0360   -1.4900 O.3   404  J19404     -0.4682
     24  C24      -68.0870  120.9670   -2.0060 C.3   404  J19404      0.2526
@<TRIPOS>BOND
     1    15    11   ar
     2    15    14   ar
     3    11    10   ar
     4    14    12   ar
     5    24    23    1
     6    10     9   ar
     7    23    21    1
     8    12     9   ar
     9    12    13    1
    10     9     8    1
    11    20    19    1
    12    21    19   ar
    13    21    22   ar
    14    19    18   ar
    15    22    17   ar
    16     8     7    1
    17     6     7    1
    18     6     5    1
    19     7     4    2
    20    18     1   ar
    21    17     1   ar
    22    17    16    1
    23     5    16    2
    24     5     3    1
    25     4     3    2
    26     3     2    2
