@<TRIPOS>MOLECULE
4eo3_FMN_A_1.pdb
 31 33 0 0 0
SMALL
GASTEIGER

@<TRIPOS>ATOM
      1  N1       -17.8590    2.6600   24.4400 N.2   401  FMN401     -0.2890
      2  C2       -17.3650    2.4730   25.7990 C.1   401  FMN401      0.3669
      3  O2       -18.2040    2.1370   26.8160 O.2   401  FMN401     -0.1744
      4  N3       -15.9990    2.6190   26.0930 N.2   401  FMN401     -0.2300
      5  C4       -15.1210    2.9670   25.1140 C.1   401  FMN401      0.2513
      6  O4       -13.8060    3.1160   25.4310 O.2   401  FMN401     -0.2057
      7  C4A      -15.6040    3.1620   23.7310 C.2   401  FMN401      0.2700
      8  N5       -14.7030    3.5080   22.7530 N.2   401  FMN401     -0.3878
      9  C5A      -15.1100    3.5040   21.4210 C.2   401  FMN401      0.1320
     10  C6       -14.1300    3.7020   20.4530 C.2   401  FMN401      0.0250
     11  C7       -14.4710    3.6560   19.1060 C.2   401  FMN401     -0.0238
     12  C7M      -13.4100    3.8540   18.0650 C.3   401  FMN401      0.0308
     13  C8       -15.7910    3.4130   18.7340 C.2   401  FMN401     -0.0280
     14  C8M      -16.1520    3.3610   17.2830 C.3   401  FMN401      0.0304
     15  C9       -16.7770    3.2260   19.6970 C.2   401  FMN401     -0.0041
     16  C9A      -16.4480    3.2640   21.0730 C.3   401  FMN401      0.1497
     17  N10      -17.4190    3.1160   22.1020 N.pl3 401  FMN401     -0.2691
     18  C10      -16.9740    3.0580   23.4290 C.2   401  FMN401      0.2416
     19  C1'      -18.8300    2.8280   21.7920 C.3   401  FMN401      0.1294
     20  C2'      -19.4980    4.1310   21.3940 C.3   401  FMN401      0.2044
     21  O2'      -19.6900    4.9480   22.4940 O.3   401  FMN401     -0.2185
     22  C3'      -20.8370    3.8660   20.7080 C.3   401  FMN401      0.2164
     23  O3'      -20.6220    3.2520   19.4790 O.3   401  FMN401     -0.2175
     24  C4'      -21.6660    5.1100   20.5040 C.3   401  FMN401      0.2147
     25  O4'      -22.1260    5.5960   21.7220 O.3   401  FMN401     -0.2176
     26  C5'      -22.8510    4.8370   19.5930 C.3   401  FMN401      0.1892
     27  O5'      -23.5340    3.7270   20.0770 O.3   401  FMN401     -0.2674
     28  P        -24.0240    2.6210   19.0430 P.3   401  FMN401      0.5327
     29  O1P      -24.9430    3.1680   18.0120 O.2   401  FMN401     -0.2224
     30  O2P      -24.7560    1.5710   19.7930 O.3   401  FMN401     -0.1145
     31  O3P      -22.8490    2.0260   18.3430 O.3   401  FMN401     -0.1145
@<TRIPOS>BOND
     1    14    13    1
     2    29    28    2
     3    12    11    1
     4    31    28    1
     5    13    11    1
     6    13    15    2
     7    28    30    1
     8    28    27    1
     9    11    10    2
    10    23    22    1
    11    26    27    1
    12    26    24    1
    13    15    16    1
    14    10     9    1
    15    24    22    1
    16    24    25    1
    17    22    20    1
    18    16     9    1
    19    16    17    1
    20    20    19    1
    21    20    21    1
    22     9     8    2
    23    19    17    1
    24    17    18    1
    25     8     7    2
    26    18     7    1
    27    18     1    2
    28     7     5    1
    29     1     2    2
    30     5     6    2
    31     5     4    2
    32     2     4    2
    33     2     3    2
