@<TRIPOS>MOLECULE
4eo4_SSA_A_1.pdb
 29 31 0 0 0
SMALL
GASTEIGER

@<TRIPOS>ATOM
      1  N10       26.1850  -18.8060  -53.0590 N.3   1001  SSA1001    -0.1202
      2  CA        25.7190  -17.4490  -53.0160 C.3   1001  SSA1001     0.2036
      3  CB        24.9820  -17.1660  -54.2650 C.3   1001  SSA1001     0.2104
      4  OG        25.4660  -17.7760  -55.4340 O.3   1001  SSA1001    -0.2182
      5  C9        24.7820  -17.2420  -51.8220 C.2   1001  SSA1001     0.2825
      6  O9        24.8380  -18.0450  -50.8490 O.2   1001  SSA1001    -0.2700
      7  N8        23.8300  -16.1490  -51.8050 N.am  1001  SSA1001    -0.0576
      8  S1        22.8610  -15.9810  -50.4860 S.3   1001  SSA1001     0.0852
      9  O1S       22.4260  -14.6060  -50.3250 O.3   1001  SSA1001    -0.0508
     10  O2S       23.5850  -16.1980  -49.2630 O.3   1001  SSA1001    -0.0508
     11  O5'       21.7080  -16.9140  -50.5870 O.3   1001  SSA1001    -0.2230
     12  C5'       21.0990  -17.1570  -51.8470 C.3   1001  SSA1001     0.2064
     13  C4'       19.6090  -17.3410  -51.7120 C.3   1001  SSA1001     0.1842
     14  O4'       19.3320  -18.6090  -51.0670 O.3   1001  SSA1001    -0.3135
     15  C3'       18.8920  -16.3140  -50.8500 C.3   1001  SSA1001     0.2185
     16  O3'       18.5880  -15.1210  -51.5490 O.3   1001  SSA1001    -0.2174
     17  C2'       17.6630  -17.0680  -50.3670 C.3   1001  SSA1001     0.2570
     18  O2'       16.6540  -17.0800  -51.3660 O.3   1001  SSA1001    -0.2130
     19  C1'       18.2170  -18.4860  -50.2150 C.3   1001  SSA1001     0.3186
     20  N9        18.6570  -18.7600  -48.8350 N.pl3 1001  SSA1001    -0.1439
     21  C8        19.6860  -18.2260  -48.1060 C.3   1001  SSA1001     0.3377
     22  N7        19.7070  -18.7800  -46.8730 N.2   1001  SSA1001    -0.2095
     23  C5        18.6660  -19.6980  -46.8110 C.2   1001  SSA1001     0.2526
     24  C6        18.1810  -20.5940  -45.7810 C.2   1001  SSA1001     0.4393
     25  N6        18.8250  -20.6480  -44.4900 N.pl3 1001  SSA1001     0.2180
     26  N1        17.1240  -21.3790  -46.0310 N.2   1001  SSA1001     0.0021
     27  C2        16.5100  -21.3300  -47.2570 C.3   1001  SSA1001     0.5254
     28  N3        16.9360  -20.5040  -48.2450 N.2   1001  SSA1001    -0.0055
     29  C4        18.0230  -19.6810  -48.0290 C.2   1001  SSA1001     0.3518
@<TRIPOS>BOND
     1     4     3    1
     2     3     2    1
     3     1     2    1
     4     2     5    1
     5    12    13    1
     6    12    11    1
     7     5     7   am
     8     5     6    2
     9     7     8    1
    10    13    14    1
    11    13    15    1
    12    16    15    1
    13    18    17    1
    14    14    19    1
    15    15    17    1
    16    11     8    1
    17     8     9    1
    18     8    10    1
    19    17    19    1
    20    19    20    1
    21    20    21    1
    22    20    29    1
    23    28    29    2
    24    28    27    1
    25    21    22    1
    26    29    23    1
    27    27    26    1
    28    22    23    2
    29    23    24    1
    30    26    24    2
    31    24    25    1
