@<TRIPOS>MOLECULE
4eo6_0S2_A_1.pdb
 27 28 0 0 0
SMALL
GASTEIGER

@<TRIPOS>ATOM
      1  C12        6.2450   31.8560   76.3870 C.3   600  0S2600      0.0219
      2  C11        7.0450   33.0930   76.8020 C.3   600  0S2600      0.0799
      3  C14        7.3940   35.3490   75.7000 C.2   600  0S2600      0.2288
      4  C13        8.3060   32.6710   77.5680 C.3   600  0S2600      0.0219
      5  C15        7.8220   36.1360   74.4620 C.3   600  0S2600      0.0770
      6  C17        9.2950   36.5260   74.6930 C.3   600  0S2600      0.0091
      7  C18        9.8510   37.4110   73.5790 C.3   600  0S2600      0.0005
      8  C19        8.9560   38.6350   73.3500 C.3   600  0S2600      0.0000
      9  C20        7.4910   38.2220   73.1050 C.3   600  0S2600      0.0005
     10  C21        6.9620   37.3880   74.2800 C.3   600  0S2600      0.0091
     11  C01       10.4080   31.8220   72.2270 C.1   600  0S2600     -0.0578
     12  C02        9.1300   32.9080   74.0760 C.ar  600  0S2600      0.0304
     13  C03        9.2190   32.3240   72.8280 C.ar  600  0S2600      0.0724
     14  S04        7.7050   32.2560   72.0650 S.2   600  0S2600     -0.0708
     15  C05        6.9090   33.0140   73.3750 C.ar  600  0S2600      0.1235
     16  C06        7.7950   33.3260   74.4100 C.ar  600  0S2600      0.0673
     17  N07        7.4080   33.9410   75.6300 N.am  600  0S2600     -0.2596
     18  C08        5.4830   33.2690   73.2770 C.2   600  0S2600      0.3949
     19  O09        4.8890   32.5390   72.2970 O.co2 600  0S2600     -0.2399
     20  O10        4.8530   34.0830   73.9350 O.co2 600  0S2600     -0.2399
     21  O16        7.0780   35.9690   76.7210 O.2   600  0S2600     -0.2745
     22  C22        9.5050   39.4660   72.1860 C.3   600  0S2600      0.0000
     23  C23       11.3960   31.3930   71.6930 C.1   600  0S2600     -0.0879
     24  C24       12.6020   30.8660   71.0190 C.3   600  0S2600      0.0544
     25  C25       13.8570   31.5240   71.6150 C.3   600  0S2600      0.0130
     26  C26       12.6650   29.3400   71.1840 C.3   600  0S2600      0.0130
     27  C27       12.5380   31.2230   69.5190 C.3   600  0S2600      0.0130
@<TRIPOS>BOND
     1    27    24    1
     2    24    26    1
     3    24    25    1
     4    24    23    1
     5    23    11    3
     6    14    13   ar
     7    14    15   ar
     8    22     8    1
     9    11    13    1
    10    19    18   ar
    11    13    12   ar
    12     9     8    1
    13     9    10    1
    14    18    15    1
    15    18    20   ar
    16     8     7    1
    17    15    16   ar
    18     7     6    1
    19    12    16   ar
    20    10     5    1
    21    16    17    1
    22     5     6    1
    23     5     3    1
    24    17     3   am
    25    17     2    1
    26     3    21    2
    27     1     2    1
    28     2     4    1
