@<TRIPOS>MOLECULE
4eo8_0S3_A_1.pdb
 27 28 0 0 0
SMALL
GASTEIGER

@<TRIPOS>ATOM
      1  C01        9.1710   33.0920   73.7980 C.ar  600  0S3600      0.0318
      2  C02        7.8110   33.4780   74.0990 C.ar  600  0S3600      0.0832
      3  C03        6.9690   33.0800   73.0560 C.ar  600  0S3600      0.1248
      4  S04        7.8080   32.3070   71.7900 S.2   600  0S3600     -0.0707
      5  C05        9.2980   32.4590   72.5770 C.ar  600  0S3600      0.0724
      6  C06       10.4950   31.9650   71.9860 C.1   600  0S3600     -0.0578
      7  C07       11.4630   31.5280   71.4320 C.1   600  0S3600     -0.0879
      8  C08       12.6420   30.9940   70.7220 C.3   600  0S3600      0.0544
      9  C09       13.8990   31.6210   71.3470 C.3   600  0S3600      0.0130
     10  C10       12.6960   29.4610   70.8310 C.3   600  0S3600      0.0130
     11  C11       12.5650   31.3960   69.2370 C.3   600  0S3600      0.0130
     12  N12        7.3570   34.1290   75.2730 N.am  600  0S3600     -0.1984
     13  C13        7.3070   35.5270   75.3800 C.2   600  0S3600      0.2422
     14  N14        6.9220   33.3750   76.3820 N.3   600  0S3600     -0.1956
     15  C15        7.8130   36.3140   74.1640 C.3   600  0S3600      0.0783
     16  O16        6.9170   36.1230   76.3890 O.2   600  0S3600     -0.2732
     17  C17        6.9490   37.5450   73.8440 C.3   600  0S3600      0.0091
     18  C18        7.5600   38.3450   72.6870 C.3   600  0S3600      0.0005
     19  C19        8.9910   38.7940   73.0310 C.3   600  0S3600      0.0000
     20  C20        9.8670   37.5910   73.3920 C.3   600  0S3600      0.0005
     21  C21        9.2450   36.7420   74.5010 C.3   600  0S3600      0.0091
     22  C22        9.6290   39.5800   71.8800 C.3   600  0S3600      0.0000
     23  C23        5.5810   32.8100   76.2900 C.3   600  0S3600      0.1116
     24  C24        7.9490   32.4790   76.9020 C.3   600  0S3600      0.1116
     25  C25        5.5510   33.2080   72.8130 C.2   600  0S3600      0.3949
     26  O26        4.9040   32.5770   71.9880 O.co2 600  0S3600     -0.2399
     27  O27        4.9950   34.1710   73.5890 O.co2 600  0S3600     -0.2399
@<TRIPOS>BOND
     1    11     8    1
     2     8    10    1
     3     8     9    1
     4     8     7    1
     5     7     6    3
     6     4     5   ar
     7     4     3   ar
     8    22    19    1
     9     6     5    1
    10    26    25   ar
    11     5     1   ar
    12    18    19    1
    13    18    17    1
    14    25     3    1
    15    25    27   ar
    16    19    20    1
    17     3     2   ar
    18    20    21    1
    19     1     2   ar
    20    17    15    1
    21     2    12    1
    22    15    21    1
    23    15    13    1
    24    12    13   am
    25    12    14    1
    26    13    16    2
    27    23    14    1
    28    14    24    1
