@<TRIPOS>MOLECULE
4eoa_THP_A_1.pdb
 25 26 0 0 0
SMALL
GASTEIGER

@<TRIPOS>ATOM
      1  P2        17.9710   11.1980    4.7150 P.3   202  THP202      0.5327
      2  O4P       17.9510    9.7000    5.0360 O.2   202  THP202     -0.2224
      3  O5P       16.7330   11.9450    5.2530 O.3   202  THP202     -0.1145
      4  O6P       19.1950   11.9340    5.2380 O.3   202  THP202     -0.1145
      5  P1        21.2660   14.6740    0.9530 P.3   202  THP202      0.5326
      6  O1P       22.2260   15.2720   -0.0510 O.2   202  THP202     -0.2224
      7  O2P       21.9390   13.4840    1.7010 O.3   202  THP202     -0.1145
      8  O3P       20.5570   15.6160    1.8390 O.3   202  THP202     -0.1145
      9  O5'       17.9510   11.2310    3.2390 O.3   202  THP202     -0.2675
     10  C5'       17.9130   12.5180    2.4870 C.3   202  THP202      0.1857
     11  C4'       18.8810   12.4060    1.3140 C.3   202  THP202      0.1748
     12  O4'       18.5980   11.3420    0.4590 O.3   202  THP202     -0.3340
     13  C3'       18.7960   13.6250    0.3860 C.3   202  THP202      0.1600
     14  O3'       20.1520   14.0180   -0.0720 O.3   202  THP202     -0.2700
     15  C2'       17.9210   13.2220   -0.7980 C.3   202  THP202      0.0847
     16  C1'       18.2260   11.6900   -0.8470 C.3   202  THP202      0.2089
     17  N1        16.8930   11.0440   -1.1890 N.am  202  THP202     -0.1794
     18  C2        16.6380   10.8190   -2.5310 C.1   202  THP202      0.2844
     19  O2        17.4860   11.1370   -3.4220 O.2   202  THP202     -0.1918
     20  N3        15.4920   10.2990   -2.9950 N.2   202  THP202     -0.2455
     21  C4        14.5540   10.0450   -2.0480 C.1   202  THP202      0.2134
     22  O4        13.4480    9.6300   -2.4970 O.2   202  THP202     -0.2088
     23  C5        14.7680   10.2780   -0.6400 C.2   202  THP202      0.0891
     24  C5M       13.7200    9.8810    0.3970 C.3   202  THP202      0.0462
     25  C6        15.9980   10.7620   -0.2180 C.2   202  THP202      0.0877
@<TRIPOS>BOND
     1    19    18    2
     2    20    18    2
     3    20    21    2
     4    18    17   am
     5    22    21    2
     6    21    23    1
     7    17    16    1
     8    17    25    1
     9    16    15    1
    10    16    12    1
    11    15    13    1
    12    23    25    2
    13    23    24    1
    14    14    13    1
    15    14     5    1
    16     6     5    2
    17    13    11    1
    18    12    11    1
    19     5     7    1
    20     5     8    1
    21    11    10    1
    22    10     9    1
    23     9     1    1
    24     1     2    2
    25     1     4    1
    26     1     3    1
