@<TRIPOS>MOLECULE
4eoc_BLA_A_1.pdb
 43 46 0 0 0
SMALL
GASTEIGER

@<TRIPOS>ATOM
      1  CHA        1.6010   25.7330  -20.7040 C.3   1001  BLA1001     0.1170
      2  NA         0.7280   28.0960  -21.1530 N.2   1001  BLA1001    -0.4104
      3  C1A        1.6550   27.0730  -21.3560 C.2   1001  BLA1001     0.1114
      4  C2A        2.6520   27.4610  -22.2200 C.2   1001  BLA1001     0.0024
      5  C3A        2.4130   28.7360  -22.5710 C.2   1001  BLA1001     0.0021
      6  C4A        1.2610   29.1200  -21.9410 C.2   1001  BLA1001     0.1114
      7  CMA        3.2030   29.6070  -23.5100 C.3   1001  BLA1001     0.0331
      8  CAA        3.7640   26.5600  -22.6920 C.3   1001  BLA1001     0.0402
      9  CBA        3.3430   25.7370  -23.8930 C.3   1001  BLA1001     0.1188
     10  CGA        4.2160   24.5500  -24.2280 C.2   1001  BLA1001     0.3652
     11  O1A        5.0710   24.2220  -23.3840 O.co2 1001  BLA1001    -0.2456
     12  O2A        4.0990   23.9570  -25.3170 O.co2 1001  BLA1001    -0.2456
     13  CHB        0.6820   30.4840  -22.0000 C.3   1001  BLA1001     0.1181
     14  NB        -1.5750   30.1150  -21.0860 N.2   1001  BLA1001    -0.3372
     15  C1B       -0.5480   30.9060  -21.5300 C.2   1001  BLA1001     0.1257
     16  C2B       -0.8850   32.3590  -21.5070 C.2   1001  BLA1001     0.0168
     17  C3B       -2.3060   32.3580  -20.9420 C.2   1001  BLA1001     0.0929
     18  C4B       -2.6140   30.9280  -20.7230 C.1   1001  BLA1001     0.2041
     19  CMB       -0.0820   33.5360  -21.8970 C.3   1001  BLA1001     0.0342
     20  OB        -3.7050   30.5490  -20.2690 O.2   1001  BLA1001    -0.2093
     21  CAB       -3.2140   33.4950  -20.6680 C.2   1001  BLA1001     0.0124
     22  CBB       -3.0470   34.6790  -21.3370 C.2   1001  BLA1001     0.0008
     23  NC        -2.9640   27.0590  -17.9050 N.2   1001  BLA1001    -0.3371
     24  C1C       -4.1370   27.6970  -17.6530 C.1   1001  BLA1001     0.2003
     25  C2C       -5.2560   26.8190  -17.2570 C.2   1001  BLA1001     0.0749
     26  C3C       -4.6170   25.4430  -17.2780 C.2   1001  BLA1001     0.0347
     27  C4C       -3.2270   25.7470  -17.6990 C.2   1001  BLA1001     0.1293
     28  CMC       -6.6420   27.1850  -16.9120 C.3   1001  BLA1001     0.0448
     29  OC        -4.2730   28.9200  -17.7340 O.2   1001  BLA1001    -0.2096
     30  CAC       -5.2270   24.1540  -16.9760 C.2   1001  BLA1001     0.0027
     31  CBC       -6.5730   23.9820  -16.9240 C.2   1001  BLA1001     0.0001
     32  CHD       -2.3690   24.6990  -17.8010 C.3   1001  BLA1001     0.1184
     33  ND        -0.5400   25.6530  -19.4180 N.2   1001  BLA1001    -0.4104
     34  C1D       -1.0440   24.7110  -18.4340 C.2   1001  BLA1001     0.1115
     35  C2D        0.0140   23.6540  -18.1890 C.2   1001  BLA1001     0.0021
     36  C3D        1.1100   24.0100  -19.0640 C.2   1001  BLA1001     0.0024
     37  C4D        0.7410   25.1920  -19.7460 C.2   1001  BLA1001     0.1114
     38  CMD       -0.0890   22.5120  -17.2530 C.3   1001  BLA1001     0.0331
     39  CAD        2.4090   23.2970  -19.1350 C.3   1001  BLA1001     0.0402
     40  CBD        3.3890   24.0230  -18.2420 C.3   1001  BLA1001     0.1188
     41  CGD        4.8200   23.5610  -18.3230 C.2   1001  BLA1001     0.3652
     42  O1D        5.1280   22.8590  -19.3160 O.co2 1001  BLA1001    -0.2456
     43  O2D        5.6150   23.9360  -17.4390 O.co2 1001  BLA1001    -0.2456
@<TRIPOS>BOND
     1    12    10   ar
     2    10     9    1
     3    10    11   ar
     4     9     8    1
     5     7     5    1
     6     8     4    1
     7     5     4    2
     8     5     6    1
     9     4     3    1
    10    13     6    1
    11    13    15    1
    12     6     2    2
    13    19    16    1
    14    15    16    1
    15    15    14    2
    16    16    17    2
    17     3     2    2
    18     3     1    1
    19    22    21    2
    20    14    18    2
    21    17    18    1
    22    17    21    1
    23    18    20    2
    24     1    37    1
    25    37    33    2
    26    37    36    1
    27    33    34    2
    28    42    41   ar
    29    39    36    1
    30    39    40    1
    31    36    35    2
    32    34    35    1
    33    34    32    1
    34    41    40    1
    35    41    43   ar
    36    35    38    1
    37    23    27    2
    38    23    24    2
    39    32    27    1
    40    29    24    2
    41    27    26    1
    42    24    25    1
    43    26    25    2
    44    26    30    1
    45    25    28    1
    46    30    31    2
