@<TRIPOS>MOLECULE
4eod_BLA_A_1.pdb
 43 46 0 0 0
SMALL
GASTEIGER

@<TRIPOS>ATOM
      1  CHA        1.6560   25.9860  -20.9280 C.3   1001  BLA1001     0.1170
      2  NA         0.8210   28.3070  -21.3820 N.2   1001  BLA1001    -0.4104
      3  C1A        1.7170   27.2850  -21.5950 C.2   1001  BLA1001     0.1114
      4  C2A        2.7020   27.6700  -22.4750 C.2   1001  BLA1001     0.0024
      5  C3A        2.4680   28.9450  -22.8160 C.2   1001  BLA1001     0.0021
      6  C4A        1.3350   29.3370  -22.1500 C.2   1001  BLA1001     0.1114
      7  CMA        3.2640   29.7890  -23.7610 C.3   1001  BLA1001     0.0331
      8  CAA        3.8020   26.7640  -22.9860 C.3   1001  BLA1001     0.0402
      9  CBA        3.3380   25.8750  -24.1420 C.3   1001  BLA1001     0.1188
     10  CGA        4.1990   24.6820  -24.4860 C.2   1001  BLA1001     0.3652
     11  O1A        5.0740   24.3270  -23.6550 O.co2 1001  BLA1001    -0.2456
     12  O2A        4.0330   24.0610  -25.5600 O.co2 1001  BLA1001    -0.2456
     13  CHB        0.7650   30.7070  -22.2140 C.3   1001  BLA1001     0.1181
     14  NB        -1.5150   30.3350  -21.3660 N.2   1001  BLA1001    -0.3372
     15  C1B       -0.4680   31.1350  -21.7710 C.2   1001  BLA1001     0.1257
     16  C2B       -0.8010   32.5640  -21.7210 C.2   1001  BLA1001     0.0168
     17  C3B       -2.2300   32.5890  -21.2060 C.2   1001  BLA1001     0.0929
     18  C4B       -2.5420   31.1520  -21.0610 C.1   1001  BLA1001     0.2041
     19  CMB        0.0650   33.7040  -22.0400 C.3   1001  BLA1001     0.0342
     20  OB        -3.6530   30.7490  -20.6680 O.2   1001  BLA1001    -0.2093
     21  CAB       -3.1200   33.7180  -20.9310 C.2   1001  BLA1001     0.0124
     22  CBB       -2.7590   35.0160  -21.1470 C.2   1001  BLA1001     0.0008
     23  NC        -2.9350   27.2950  -18.1540 N.2   1001  BLA1001    -0.3371
     24  C1C       -4.1040   27.9600  -17.9430 C.1   1001  BLA1001     0.2003
     25  C2C       -5.1920   27.0510  -17.5470 C.2   1001  BLA1001     0.0749
     26  C3C       -4.5390   25.6870  -17.5250 C.2   1001  BLA1001     0.0347
     27  C4C       -3.1640   25.9810  -17.9310 C.2   1001  BLA1001     0.1293
     28  CMC       -6.5920   27.4050  -17.2170 C.3   1001  BLA1001     0.0448
     29  OC        -4.2090   29.1990  -18.0420 O.2   1001  BLA1001    -0.2096
     30  CAC       -5.1000   24.3940  -17.2510 C.2   1001  BLA1001     0.0027
     31  CBC       -6.4530   24.1750  -17.1300 C.2   1001  BLA1001     0.0001
     32  CHD       -2.2780   24.9360  -18.0100 C.3   1001  BLA1001     0.1184
     33  ND        -0.4820   25.8660  -19.6300 N.2   1001  BLA1001    -0.4104
     34  C1D       -0.9680   24.9480  -18.6280 C.2   1001  BLA1001     0.1115
     35  C2D        0.0980   23.9170  -18.3830 C.2   1001  BLA1001     0.0021
     36  C3D        1.1570   24.2920  -19.2690 C.2   1001  BLA1001     0.0024
     37  C4D        0.7950   25.4480  -19.9810 C.2   1001  BLA1001     0.1114
     38  CMD        0.0550   22.7710  -17.4510 C.3   1001  BLA1001     0.0331
     39  CAD        2.4670   23.5800  -19.2980 C.3   1001  BLA1001     0.0402
     40  CBD        3.4480   24.2660  -18.3830 C.3   1001  BLA1001     0.1188
     41  CGD        4.8820   23.8360  -18.4780 C.2   1001  BLA1001     0.3652
     42  O1D        5.2140   23.1430  -19.4680 O.co2 1001  BLA1001    -0.2456
     43  O2D        5.6690   24.2300  -17.5810 O.co2 1001  BLA1001    -0.2456
@<TRIPOS>BOND
     1    12    10   ar
     2    10     9    1
     3    10    11   ar
     4     9     8    1
     5     7     5    1
     6     8     4    1
     7     5     4    2
     8     5     6    1
     9     4     3    1
    10    13     6    1
    11    13    15    1
    12     6     2    2
    13    19    16    1
    14    15    16    1
    15    15    14    2
    16    16    17    2
    17     3     2    2
    18     3     1    1
    19    14    18    2
    20    17    18    1
    21    17    21    1
    22    22    21    2
    23    18    20    2
    24     1    37    1
    25    37    33    2
    26    37    36    1
    27    33    34    2
    28    42    41   ar
    29    39    36    1
    30    39    40    1
    31    36    35    2
    32    34    35    1
    33    34    32    1
    34    41    40    1
    35    41    43   ar
    36    35    38    1
    37    23    24    2
    38    23    27    2
    39    29    24    2
    40    32    27    1
    41    24    25    1
    42    27    26    1
    43    25    26    2
    44    25    28    1
    45    26    30    1
    46    30    31    2
