@<TRIPOS>MOLECULE
4eoe_BLA_A_1.pdb
 43 46 0 0 0
SMALL
GASTEIGER

@<TRIPOS>ATOM
      1  CHA       -1.6110  -25.8610  -20.9020 C.3   1001  BLA1001     0.1170
      2  NA        -0.7500  -28.2070  -21.3570 N.2   1001  BLA1001    -0.4104
      3  C1A       -1.6350  -27.1690  -21.5680 C.2   1001  BLA1001     0.1114
      4  C2A       -2.6360  -27.5730  -22.4450 C.2   1001  BLA1001     0.0024
      5  C3A       -2.4010  -28.8520  -22.7830 C.2   1001  BLA1001     0.0021
      6  C4A       -1.2530  -29.2530  -22.1260 C.2   1001  BLA1001     0.1114
      7  CMA       -3.1930  -29.7270  -23.7280 C.3   1001  BLA1001     0.0331
      8  CAA       -3.7380  -26.6850  -22.9580 C.3   1001  BLA1001     0.0402
      9  CBA       -3.2840  -25.7620  -24.0740 C.3   1001  BLA1001     0.1188
     10  CGA       -4.1560  -24.5920  -24.3960 C.2   1001  BLA1001     0.3652
     11  O1A       -5.0080  -24.2110  -23.5670 O.co2 1001  BLA1001    -0.2456
     12  O2A       -3.9720  -23.9690  -25.4790 O.co2 1001  BLA1001    -0.2456
     13  CHB       -0.6580  -30.6000  -22.1840 C.3   1001  BLA1001     0.1181
     14  NB         1.5840  -30.2740  -21.2780 N.2   1001  BLA1001    -0.3372
     15  C1B        0.5530  -31.0380  -21.7340 C.2   1001  BLA1001     0.1257
     16  C2B        0.8900  -32.4640  -21.7190 C.2   1001  BLA1001     0.0168
     17  C3B        2.3060  -32.4820  -21.1740 C.2   1001  BLA1001     0.0929
     18  C4B        2.6330  -31.0710  -20.9540 C.1   1001  BLA1001     0.2041
     19  CMB        0.0290  -33.5750  -22.1100 C.3   1001  BLA1001     0.0342
     20  OB         3.7230  -30.6460  -20.5170 O.2   1001  BLA1001    -0.2093
     21  CAB        3.0650  -33.7160  -20.9950 C.2   1001  BLA1001     0.0124
     22  CBB        4.3550  -33.6860  -20.5750 C.2   1001  BLA1001     0.0008
     23  NC         3.0110  -27.1460  -18.0990 N.2   1001  BLA1001    -0.3371
     24  C1C        4.1720  -27.8260  -17.8810 C.1   1001  BLA1001     0.2003
     25  C2C        5.2590  -26.9290  -17.4680 C.2   1001  BLA1001     0.0749
     26  C3C        4.5780  -25.5690  -17.4540 C.2   1001  BLA1001     0.0347
     27  C4C        3.1960  -25.8190  -17.8720 C.2   1001  BLA1001     0.1293
     28  CMC        6.6440  -27.2560  -17.1440 C.3   1001  BLA1001     0.0448
     29  OC         4.2880  -29.0620  -17.9560 O.2   1001  BLA1001    -0.2096
     30  CAC        5.1500  -24.2780  -17.1810 C.2   1001  BLA1001     0.0027
     31  CBC        6.4720  -24.0630  -17.0680 C.2   1001  BLA1001     0.0001
     32  CHD        2.2980  -24.7990  -17.9590 C.3   1001  BLA1001     0.1184
     33  ND         0.5020  -25.7400  -19.5770 N.2   1001  BLA1001    -0.4104
     34  C1D        1.0090  -24.8350  -18.5890 C.2   1001  BLA1001     0.1115
     35  C2D       -0.0440  -23.8130  -18.3480 C.2   1001  BLA1001     0.0021
     36  C3D       -1.1220  -24.1570  -19.2140 C.2   1001  BLA1001     0.0024
     37  C4D       -0.7570  -25.3190  -19.9230 C.2   1001  BLA1001     0.1114
     38  CMD        0.0200  -22.6930  -17.4170 C.3   1001  BLA1001     0.0331
     39  CAD       -2.4270  -23.4670  -19.2360 C.3   1001  BLA1001     0.0402
     40  CBD       -3.4210  -24.1850  -18.3630 C.3   1001  BLA1001     0.1188
     41  CGD       -4.8330  -23.7630  -18.4690 C.2   1001  BLA1001     0.3652
     42  O1D       -5.1610  -23.0440  -19.4410 O.co2 1001  BLA1001    -0.2456
     43  O2D       -5.6410  -24.1330  -17.5880 O.co2 1001  BLA1001    -0.2456
@<TRIPOS>BOND
     1    12    10   ar
     2    10     9    1
     3    10    11   ar
     4     9     8    1
     5     7     5    1
     6     8     4    1
     7     5     4    2
     8     5     6    1
     9     4     3    1
    10    13     6    1
    11    13    15    1
    12     6     2    2
    13    19    16    1
    14    15    16    1
    15    15    14    2
    16    16    17    2
    17     3     2    2
    18     3     1    1
    19    14    18    2
    20    17    21    1
    21    17    18    1
    22    21    22    2
    23    18    20    2
    24     1    37    1
    25    37    33    2
    26    37    36    1
    27    33    34    2
    28    42    41   ar
    29    39    36    1
    30    39    40    1
    31    36    35    2
    32    34    35    1
    33    34    32    1
    34    41    40    1
    35    41    43   ar
    36    35    38    1
    37    23    24    2
    38    23    27    2
    39    32    27    1
    40    29    24    2
    41    24    25    1
    42    27    26    1
    43    25    26    2
    44    25    28    1
    45    26    30    1
    46    30    31    2
