@<TRIPOS>MOLECULE
4eoh_TEP_A_1.pdb
 13 14 0 0 0
SMALL
GASTEIGER

@<TRIPOS>ATOM
      1  C1        28.3740    3.6300   40.5770 C.3   402  TEP402      0.1383
      2  N1        28.5450    5.0190   40.0990 N.ar  402  TEP402     -0.2454
      3  C2        27.6410    6.0120   40.4990 C.ar  402  TEP402      0.3350
      4  O2        26.7350    5.7400   41.2880 O.2   402  TEP402     -0.2461
      5  N3        27.7930    7.3200   40.0270 N.ar  402  TEP402     -0.2630
      6  C3        26.8320    8.3700   40.4360 C.3   402  TEP402      0.1366
      7  C4        28.8460    7.6310   39.1570 C.ar  402  TEP402      0.1668
      8  C5        29.7440    6.6420   38.7700 C.ar  402  TEP402      0.1681
      9  C6        29.5960    5.3410   39.2320 C.ar  402  TEP402      0.2846
     10  O6        30.4000    4.4730   38.8940 O.2   402  TEP402     -0.2651
     11  N7        30.6300    7.2170   37.9610 N.2   402  TEP402     -0.2364
     12  C8        30.3150    8.5060   37.8460 C.3   402  TEP402      0.2523
     13  N9        29.2300    8.7590   38.5740 N.2   402  TEP402     -0.2256
@<TRIPOS>BOND
     1    12    11    1
     2    12    13    1
     3    11     8    2
     4    13     7    2
     5     8     7   ar
     6     8     9   ar
     7    10     9    2
     8     7     5   ar
     9     9     2   ar
    10     5     6    1
    11     5     3   ar
    12     2     3   ar
    13     2     1    1
    14     3     4    2
