@<TRIPOS>MOLECULE
4eoi_1RO_A_1.pdb
 24 27 0 0 0
SMALL
GASTEIGER

@<TRIPOS>ATOM
      1  O1        -6.9070   22.3850  -21.5060 O.2   301  1RO301     -0.2087
      2  C13       -6.8230   21.2910  -20.8580 C.1   301  1RO301      0.2124
      3  N2        -5.8210   21.2030  -20.0110 N.2   301  1RO301     -0.3086
      4  C15       -5.8460   20.0110  -19.4050 C.2   301  1RO301      0.2443
      5  N3        -4.8330   19.8230  -18.5410 N.pl3 301  1RO301     -0.1980
      6  C18       -3.6510   20.6960  -18.6080 C.3   301  1RO301      0.1481
      7  C19       -3.3970   21.4060  -19.9330 C.ar  301  1RO301      0.0290
      8  C23       -3.4940   22.7330  -20.3530 C.ar  301  1RO301      0.0044
      9  C22       -3.1560   22.9220  -21.7010 C.ar  301  1RO301      0.0072
     10  C21       -2.7760   21.7780  -22.4030 C.ar  301  1RO301      0.0352
     11  S2        -2.8710   20.4590  -21.2840 S.2   301  1RO301     -0.0890
     12  S1        -7.1580   18.9330  -19.8510 S.3   301  1RO301     -0.0252
     13  C12       -7.7560   20.1390  -20.9710 C.2   301  1RO301      0.1239
     14  C11       -8.9510   20.0410  -21.8650 C.2   301  1RO301      0.0016
     15  C1        -9.2560   21.2200  -22.7340 C.3   301  1RO301      0.0669
     16  C6       -10.5660   21.5840  -23.0730 C.2   301  1RO301     -0.0161
     17  C5       -10.8170   22.7030  -23.8810 C.2   301  1RO301      0.0149
     18  C4        -9.7700   23.4850  -24.3760 C.2   301  1RO301      0.0771
     19  N1        -9.9710   24.5760  -25.1600 N.2   301  1RO301     -0.2445
     20  C9        -8.9390   25.3080  -25.6140 C.2   301  1RO301      0.0946
     21  C8        -7.6130   24.9800  -25.3070 C.2   301  1RO301     -0.0008
     22  C7        -7.3230   23.8720  -24.5090 C.3   301  1RO301      0.0551
     23  C3        -8.3820   23.1050  -24.0270 C.2   301  1RO301     -0.0037
     24  C2        -8.1880   21.9820  -23.2300 C.2   301  1RO301     -0.0201
@<TRIPOS>BOND
     1    20    21    2
     2    20    19    1
     3    21    22    1
     4    19    18    2
     5    22    23    1
     6    18    23    1
     7    18    17    1
     8    23    24    2
     9    17    16    2
    10    24    15    1
    11    16    15    1
    12    15    14    1
    13    10     9   ar
    14    10    11   ar
    15    14    13    2
    16     9     8   ar
    17     1     2    2
    18    11     7   ar
    19    13     2    1
    20    13    12    1
    21     2     3    2
    22     8     7   ar
    23     3     4    2
    24     7     6    1
    25    12     4    1
    26     4     5    1
    27     6     5    1
