@<TRIPOS>MOLECULE
4eoj_ATP_A_1.pdb
 31 33 0 0 0
SMALL
GASTEIGER

@<TRIPOS>ATOM
      1  PG        -0.9430  -19.8060  -17.0500 P.3   301  ATP301      0.5373
      2  O1G       -1.9180  -19.7950  -18.2030 O.2   301  ATP301     -0.2221
      3  O2G       -1.2610  -18.8160  -15.9550 O.3   301  ATP301     -0.1143
      4  O3G       -0.5810  -21.1850  -16.5530 O.3   301  ATP301     -0.1143
      5  PB         1.5740  -18.6980  -16.7060 P.3   301  ATP301      0.2277
      6  O1B        1.8700  -19.8040  -15.7250 O.3   301  ATP301     -0.4368
      7  O2B        1.1150  -17.3600  -16.1760 O.2   301  ATP301     -0.5168
      8  O3B        0.4280  -19.2500  -17.6850 O.3   301  ATP301     -0.2258
      9  PA         3.8040  -19.5320  -18.3550 P.3   301  ATP301      0.2189
     10  O1A        3.7240  -20.8130  -17.5690 O.3   301  ATP301     -0.4371
     11  O2A        5.1550  -18.8890  -18.5640 O.2   301  ATP301     -0.5170
     12  O3A        2.8450  -18.4240  -17.6710 O.3   301  ATP301     -0.2700
     13  O5'        3.1660  -19.7860  -19.8170 O.3   301  ATP301     -0.3112
     14  C5'        2.2440  -20.8530  -20.0460 C.3   301  ATP301      0.1813
     15  C4'        2.6510  -21.7660  -21.2070 C.3   301  ATP301      0.1821
     16  O4'        3.5380  -21.1260  -22.1380 O.3   301  ATP301     -0.3135
     17  C3'        3.3650  -23.0300  -20.7330 C.3   301  ATP301      0.2184
     18  O3'        2.4670  -24.1180  -20.4570 O.3   301  ATP301     -0.2174
     19  C2'        4.3030  -23.3660  -21.8760 C.3   301  ATP301      0.2570
     20  O2'        3.7790  -24.4530  -22.6510 O.3   301  ATP301     -0.2130
     21  C1'        4.4340  -22.0920  -22.7140 C.3   301  ATP301      0.3186
     22  N9         5.8620  -21.6720  -22.6320 N.pl3 301  ATP301     -0.1439
     23  C8         6.3880  -20.7770  -21.7730 C.3   301  ATP301      0.3377
     24  N7         7.7320  -20.6470  -21.9500 N.2   301  ATP301     -0.2095
     25  C5         8.0900  -21.4790  -22.9420 C.2   301  ATP301      0.2526
     26  C6         9.3550  -21.8490  -23.6300 C.2   301  ATP301      0.4393
     27  N6        10.5250  -21.2740  -23.2720 N.pl3 301  ATP301      0.2180
     28  N1         9.2960  -22.7760  -24.6200 N.2   301  ATP301      0.0021
     29  C2         8.1330  -23.3450  -24.9730 C.3   301  ATP301      0.5254
     30  N3         6.9520  -23.0620  -24.3870 N.2   301  ATP301     -0.0055
     31  C4         6.8620  -22.1580  -23.3830 C.2   301  ATP301      0.3518
@<TRIPOS>BOND
     1    29    28    1
     2    29    30    1
     3    28    26    2
     4    30    31    2
     5    26    27    1
     6    26    25    1
     7    31    25    1
     8    31    22    1
     9    25    24    2
    10    21    22    1
    11    21    16    1
    12    21    19    1
    13    20    19    1
    14    22    23    1
    15    16    15    1
    16    24    23    1
    17    19    17    1
    18    15    17    1
    19    15    14    1
    20    17    18    1
    21    14    13    1
    22    13     9    1
    23    11     9    2
    24     9    12    1
    25     9    10    1
    26     2     1    2
    27     8     1    1
    28     8     5    1
    29    12     5    1
    30     1     4    1
    31     1     3    1
    32     5     7    2
    33     5     6    1
