@<TRIPOS>MOLECULE
4eok_4SP_A_1.pdb
 28 31 0 0 0
SMALL
GASTEIGER

@<TRIPOS>ATOM
      1  C2        10.8400   27.0480   25.1360 C.1   301  4SP301      0.2364
      2  C8        13.6010   23.9940   23.4260 C.3   301  4SP301      0.2628
      3  C10        8.0460   25.1750   22.7850 C.3   301  4SP301      0.2081
      4  C11        7.1780   24.3100   21.8930 C.3   301  4SP301      0.0438
      5  C12        7.5570   24.6290   20.4420 C.3   301  4SP301      0.0037
      6  C13        6.5450   24.0850   19.4360 C.3   301  4SP301      0.0001
      7  C14        5.1120   24.5010   19.7850 C.3   301  4SP301      0.0000
      8  C15        4.7360   24.0760   21.2040 C.3   301  4SP301      0.0001
      9  C16        5.7240   24.6510   22.2180 C.3   301  4SP301      0.0037
     10  C19        7.7070   30.4030   26.7560 C.ar  301  4SP301      0.0214
     11  C20        6.9660   30.4570   25.5730 C.ar  301  4SP301      0.1251
     12  C21        7.4130   29.7120   24.4800 C.ar  301  4SP301      0.0214
     13  C22        8.5690   28.9330   24.5620 C.ar  301  4SP301      0.0188
     14  N26        4.4410   30.5050   25.0510 N.3   301  4SP301      0.0392
     15  N1         9.9360   26.3230   24.4200 N.2   301  4SP301     -0.2865
     16  C6        10.2680   25.2390   23.6740 C.2   301  4SP301      0.3177
     17  O6         9.3160   24.5630   22.9710 O.2   301  4SP301     -0.4497
     18  C5        11.5850   24.8280   23.6370 C.2   301  4SP301      0.2195
     19  N7        12.3000   23.8480   23.0530 N.2   301  4SP301     -0.2273
     20  N9        13.7580   25.0660   24.2540 N.2   301  4SP301     -0.1806
     21  C4        12.5390   25.6130   24.4190 C.1   301  4SP301      0.1221
     22  N3        12.1560   26.6950   25.1380 N.2   301  4SP301     -0.2702
     23  N2        10.4460   28.1300   25.8700 N.pl3 301  4SP301     -0.1248
     24  C17        9.3040   28.8710   25.7430 C.ar  301  4SP301      0.0836
     25  C18        8.8600   29.6180   26.8350 C.ar  301  4SP301      0.0188
     26  S23        5.6310   31.3590   25.4520 S.O2  301  4SP301      0.0935
     27  O24        5.8550   32.4030   24.4250 O.2   301  4SP301     -0.1503
     28  O25        5.3250   32.0220   26.7490 O.2   301  4SP301     -0.1503
@<TRIPOS>BOND
     1     6     7    1
     2     6     5    1
     3     7     8    1
     4     5     4    1
     5     8     9    1
     6     4     9    1
     7     4     3    1
     8     3    17    1
     9    17    16    1
    10    19     2    1
    11    19    18    2
    12     2    20    1
    13    18    16    1
    14    18    21    1
    15    16    15    2
    16    20    21    2
    17    21    22    2
    18    15     1    2
    19    27    26    2
    20    12    13   ar
    21    12    11   ar
    22    13    24   ar
    23    14    26    1
    24     1    22    2
    25     1    23    1
    26    26    11    1
    27    26    28    2
    28    11    10   ar
    29    24    23    1
    30    24    25   ar
    31    10    25   ar
