@<TRIPOS>MOLECULE
4eol_1RO_A_1.pdb
 24 27 0 0 0
SMALL
GASTEIGER

@<TRIPOS>ATOM
      1  O1       -10.1800  -24.6290   22.5730 O.2   301  1RO301     -0.2087
      2  C13      -10.2940  -23.5270   21.9600 C.1   301  1RO301      0.2124
      3  N2        -9.3420  -23.2860   21.1050 N.2   301  1RO301     -0.3086
      4  C15       -9.5370  -22.1110   20.5270 C.2   301  1RO301      0.2443
      5  N3        -8.5620  -21.8120   19.6480 N.pl3 301  1RO301     -0.1980
      6  C18       -7.5300  -22.8320   19.3530 C.3   301  1RO301      0.1481
      7  C19       -7.0790  -23.6790   20.5410 C.ar  301  1RO301      0.0290
      8  C23       -7.2080  -25.0250   20.8820 C.ar  301  1RO301      0.0044
      9  C22       -6.6350  -25.3640   22.1160 C.ar  301  1RO301      0.0072
     10  C21       -6.0310  -24.3240   22.8170 C.ar  301  1RO301      0.0352
     11  S2        -6.2250  -22.9070   21.8380 S.2   301  1RO301     -0.0890
     12  S1       -10.9830  -21.2380   21.0160 S.3   301  1RO301     -0.0252
     13  C12      -11.3840  -22.5400   22.1230 C.2   301  1RO301      0.1239
     14  C11      -12.5540  -22.6340   23.0510 C.2   301  1RO301      0.0016
     15  C1       -12.6900  -23.8740   23.8700 C.3   301  1RO301      0.0669
     16  C6       -13.9300  -24.2840   24.3580 C.2   301  1RO301     -0.0161
     17  C5       -14.0710  -25.4710   25.0930 C.2   301  1RO301      0.0149
     18  C4       -12.9750  -26.2900   25.3440 C.2   301  1RO301      0.0771
     19  N1       -13.0660  -27.4430   26.0500 N.2   301  1RO301     -0.2445
     20  C9       -11.9830  -28.2090   26.2700 C.2   301  1RO301      0.0946
     21  C8       -10.7190  -27.8470   25.7850 C.2   301  1RO301     -0.0008
     22  C7       -10.5450  -26.6770   25.0450 C.3   301  1RO301      0.0551
     23  C3       -11.6580  -25.8730   24.8130 C.2   301  1RO301     -0.0037
     24  C2       -11.5770  -24.6830   24.1090 C.2   301  1RO301     -0.0201
@<TRIPOS>BOND
     1     6     5    1
     2     6     7    1
     3     5     4    1
     4     4    12    1
     5     4     3    2
     6     7     8   ar
     7     7    11   ar
     8     8     9   ar
     9    12    13    1
    10     3     2    2
    11    11    10   ar
    12     2    13    1
    13     2     1    2
    14     9    10   ar
    15    13    14    2
    16    14    15    1
    17    15    24    1
    18    15    16    1
    19    24    23    2
    20    16    17    2
    21    23    22    1
    22    23    18    1
    23    22    21    1
    24    17    18    1
    25    18    19    2
    26    21    20    2
    27    19    20    1
