@<TRIPOS>MOLECULE
4eom_ATP_A_1.pdb
 35 37 0 0 0
SMALL
GASTEIGER

@<TRIPOS>ATOM
      1  PG         0.2290  -19.5480  -18.0980 P.3   301  ATP301      0.5373
      2  O1G       -0.7160  -19.7510  -19.2580 O.2   301  ATP301     -0.2221
      3  O2G       -0.4080  -18.8660  -16.9110 O.3   301  ATP301     -0.1143
      4  O3G        1.0550  -20.7740  -17.7720 O.3   301  ATP301     -0.1143
      5  PB         2.3920  -17.7050  -17.7400 P.3   301  ATP301      0.2277
      6  O1B        2.3650  -18.4330  -16.4320 O.3   301  ATP301     -0.4368
      7  O2B        2.1500  -16.2130  -17.7120 O.2   301  ATP301     -0.5168
      8  O3B        1.3090  -18.4750  -18.6600 O.3   301  ATP301     -0.2258
      9  PA         4.5710  -19.2980  -18.7970 P.3   301  ATP301      0.2189
     10  O1A        3.9870  -20.3860  -17.9270 O.3   301  ATP301     -0.4371
     11  O2A        6.0580  -19.0110  -18.7700 O.2   301  ATP301     -0.5170
     12  O3A        3.8130  -17.8890  -18.5230 O.3   301  ATP301     -0.2700
     13  O5'        4.1380  -19.5430  -20.3380 O.3   301  ATP301     -0.3112
     14  C5'        2.8450  -20.0780  -20.6400 C.3   301  ATP301      0.1813
     15  C4'        2.9380  -21.3570  -21.4630 C.3   301  ATP301      0.1799
     16  O4'        3.5940  -21.0810  -22.7100 O.3   301  ATP301     -0.3324
     17  C3'        3.7130  -22.4900  -20.7970 C.3   301  ATP301      0.2158
     18  O3'        2.9110  -23.3800  -20.0060 O.3   301  ATP301     -0.2175
     19  C2'        4.2840  -23.2260  -21.9910 C.3   301  ATP301      0.2313
     20  O2'        3.3730  -24.2230  -22.4540 O.3   301  ATP301     -0.2158
     21  C1'        4.4850  -22.1520  -23.0520 C.3   301  ATP301      0.2331
     22  N9         5.9230  -21.7740  -22.9350 N.pl3 301  ATP301     -0.2163
     23  C8         6.4620  -20.8580  -22.1030 C.2   301  ATP301      0.1454
     24  N7         7.8150  -20.7890  -22.2470 N.2   301  ATP301     -0.3871
     25  C5         8.1710  -21.6890  -23.1840 C.2   301  ATP301      0.2211
     26  C6         9.4350  -22.1520  -23.8300 C.2   301  ATP301      0.2227
     27  N6        10.6380  -21.6390  -23.4930 N.pl3 301  ATP301     -0.3300
     28  N1         9.3510  -23.1180  -24.7740 N.2   301  ATP301     -0.3296
     29  C2         8.1670  -23.6490  -25.1290 C.1   301  ATP301      0.0930
     30  N3         6.9900  -23.2880  -24.5830 N.2   301  ATP301     -0.3287
     31  C4         6.9190  -22.3390  -23.6240 C.2   301  ATP301      0.2357
     32  H8         5.9490  -20.3150  -21.4800 H     301  ATP301      0.1149
     33 HN61       10.6940  -20.9890  -22.8560 H     301  ATP301      0.1448
     34 HN62       11.3940  -21.9420  -23.9040 H     301  ATP301      0.1448
     35  H2         8.1610  -24.3350  -25.8210 H     301  ATP301      0.1751
@<TRIPOS>BOND
     1    35    29    1
     2    29    28    2
     3    29    30    2
     4    28    26    2
     5    30    31    2
     6    34    27    1
     7    26    27    1
     8    26    25    1
     9    31    25    1
    10    31    22    1
    11    27    33    1
    12    25    24    2
    13    21    22    1
    14    21    16    1
    15    21    19    1
    16    22    23    1
    17    16    15    1
    18    20    19    1
    19    24    23    2
    20    23    32    1
    21    19    17    1
    22    15    17    1
    23    15    14    1
    24    17    18    1
    25    14    13    1
    26    13     9    1
    27     2     1    2
    28     9    11    2
    29     9    12    1
    30     9    10    1
    31     8     1    1
    32     8     5    1
    33    12     5    1
    34     1     4    1
    35     1     3    1
    36     5     7    2
    37     5     6    1
