@<TRIPOS>MOLECULE
4eon_1RO_A_1.pdb
 24 27 0 0 0
SMALL
GASTEIGER

@<TRIPOS>ATOM
      1  O1       -37.2300   12.8930   39.6430 O.2   301  1RO301     -0.2087
      2  C13      -37.2240   11.8510   40.2680 C.1   301  1RO301      0.2129
      3  N2       -37.7530   11.9210   41.4350 N.2   301  1RO301     -0.3056
      4  C15      -37.6810   10.7340   41.9590 C.2   301  1RO301      0.2585
      5  N3       -38.1770   10.6690   43.1780 N.2   301  1RO301     -0.2075
      6  C18      -38.2390   11.8820   43.9730 C.2   301  1RO301      0.1085
      7  C19      -37.5940   13.1170   43.3920 C.ar  301  1RO301      0.0487
      8  C23      -38.0360   14.1620   42.6400 C.ar  301  1RO301      0.0086
      9  C22      -37.0610   15.0860   42.3460 C.ar  301  1RO301      0.0075
     10  C21      -35.8020   14.8550   42.8390 C.ar  301  1RO301      0.0355
     11  S2       -35.9580   13.4100   43.6990 S.2   301  1RO301     -0.0849
     12  S1       -36.9720    9.5050   41.0050 S.3   301  1RO301     -0.0220
     13  C12      -36.6970   10.6140   39.7590 C.2   301  1RO301      0.1278
     14  C11      -36.0660   10.3400   38.4620 C.2   301  1RO301      0.0194
     15  C1       -35.9530   11.4600   37.5270 C.ar  301  1RO301      0.0013
     16  C6       -36.1070   11.2500   36.1840 C.ar  301  1RO301      0.0016
     17  C5       -36.0210   12.2670   35.2590 C.ar  301  1RO301      0.0191
     18  C4       -35.7730   13.5390   35.6700 C.ar  301  1RO301      0.0813
     19  N1       -35.6730   14.5430   34.8160 N.ar  301  1RO301     -0.2438
     20  C9       -35.4270   15.7700   35.2560 C.ar  301  1RO301      0.0988
     21  C8       -35.2700   16.0540   36.5910 C.ar  301  1RO301      0.0207
     22  C7       -35.3530   15.0510   37.5310 C.ar  301  1RO301      0.0031
     23  C3       -35.6020   13.7800   37.0960 C.ar  301  1RO301      0.0177
     24  C2       -35.6860   12.7300   37.9650 C.ar  301  1RO301      0.0015
@<TRIPOS>BOND
     1    19    20   ar
     2    19    18   ar
     3    20    21   ar
     4    17    18   ar
     5    17    16   ar
     6    18    23   ar
     7    16    15   ar
     8    21    22   ar
     9    23    22   ar
    10    23    24   ar
    11    15    24   ar
    12    15    14    1
    13    14    13    2
    14     1     2    2
    15    13     2    1
    16    13    12    1
    17     2     3    2
    18    12     4    1
    19     3     4    2
    20     4     5    1
    21     9     8   ar
    22     9    10   ar
    23     8     7   ar
    24    10    11   ar
    25     5     6    2
    26     7    11   ar
    27     7     6    1
