@<TRIPOS>MOLECULE
4eoo_ATP_A_1.pdb
 31 33 0 0 0
SMALL
GASTEIGER

@<TRIPOS>ATOM
      1  PG         0.1250  -19.4560  -18.0560 P.3   302  ATP302      0.5373
      2  O1G       -0.4680  -20.2820  -19.1730 O.2   302  ATP302     -0.2221
      3  O2G       -0.6680  -18.2120  -17.7270 O.3   302  ATP302     -0.1143
      4  O3G        0.5390  -20.2670  -16.8500 O.3   302  ATP302     -0.1143
      5  PB         2.4250  -17.7560  -17.9910 P.3   302  ATP302      0.2277
      6  O1B        2.4060  -17.9650  -16.5030 O.3   302  ATP302     -0.4368
      7  O2B        1.9820  -16.4050  -18.5070 O.2   302  ATP302     -0.5168
      8  O3B        1.5240  -18.9170  -18.6700 O.3   302  ATP302     -0.2258
      9  PA         4.6310  -19.4060  -18.9560 P.3   302  ATP302      0.2189
     10  O1A        4.0450  -20.5030  -18.1020 O.3   302  ATP302     -0.4371
     11  O2A        6.1160  -19.1330  -18.9390 O.2   302  ATP302     -0.5170
     12  O3A        3.9180  -17.9920  -18.5960 O.3   302  ATP302     -0.2700
     13  O5'        4.2020  -19.6830  -20.4960 O.3   302  ATP302     -0.3112
     14  C5'        2.9010  -20.2150  -20.7800 C.3   302  ATP302      0.1813
     15  C4'        2.9400  -21.5380  -21.5440 C.3   302  ATP302      0.1821
     16  O4'        3.6160  -21.3410  -22.8020 O.3   302  ATP302     -0.3135
     17  C3'        3.6810  -22.6710  -20.8310 C.3   302  ATP302      0.2184
     18  O3'        2.8700  -23.4750  -19.9570 O.3   302  ATP302     -0.2174
     19  C2'        4.2310  -23.4890  -21.9860 C.3   302  ATP302      0.2570
     20  O2'        3.2930  -24.5050  -22.3680 O.3   302  ATP302     -0.2130
     21  C1'        4.4520  -22.4700  -23.1040 C.3   302  ATP302      0.3186
     22  N9         5.8880  -22.0980  -23.0220 N.pl3 302  ATP302     -0.1439
     23  C8         6.4140  -21.1350  -22.2380 C.3   302  ATP302      0.3377
     24  N7         7.7570  -21.0720  -22.3700 N.2   302  ATP302     -0.2095
     25  C5         8.1190  -22.0220  -23.2490 C.2   302  ATP302      0.2526
     26  C6         9.3950  -22.4990  -23.8350 C.2   302  ATP302      0.4393
     27  N6        10.5680  -21.9220  -23.4920 N.pl3 302  ATP302      0.2180
     28  N1         9.3400  -23.5210  -24.7250 N.2   302  ATP302      0.0021
     29  C2         8.1610  -24.0970  -25.0670 C.3   302  ATP302      0.5254
     30  N3         6.9670  -23.7160  -24.5660 N.2   302  ATP302     -0.0055
     31  C4         6.8840  -22.7010  -23.6710 C.2   302  ATP302      0.3518
@<TRIPOS>BOND
     1    29    28    1
     2    29    30    1
     3    28    26    2
     4    30    31    2
     5    26    27    1
     6    26    25    1
     7    31    25    1
     8    31    22    1
     9    25    24    2
    10    21    22    1
    11    21    16    1
    12    21    19    1
    13    22    23    1
    14    16    15    1
    15    24    23    1
    16    20    19    1
    17    19    17    1
    18    15    17    1
    19    15    14    1
    20    17    18    1
    21    14    13    1
    22    13     9    1
    23     2     1    2
    24     9    11    2
    25     9    12    1
    26     9    10    1
    27     8     1    1
    28     8     5    1
    29    12     5    1
    30     7     5    2
    31     1     3    1
    32     1     4    1
    33     5     6    1
