@<TRIPOS>MOLECULE
4eop_1RO_A_1.pdb
 24 27 0 0 0
SMALL
GASTEIGER

@<TRIPOS>ATOM
      1  O1         7.2900   22.7000   21.4210 O.2   301  1RO301     -0.2087
      2  C13        7.1520   21.6160   20.7570 C.1   301  1RO301      0.2124
      3  N2         6.1130   21.5450   19.9500 N.2   301  1RO301     -0.3086
      4  C15        6.0960   20.3620   19.3230 C.2   301  1RO301      0.2443
      5  N3         5.0560   20.1750   18.4930 N.pl3 301  1RO301     -0.1980
      6  C18        3.9210   21.1000   18.5730 C.3   301  1RO301      0.1481
      7  C19        3.6920   21.7160   19.9480 C.ar  301  1RO301      0.0290
      8  C23        3.7900   23.0080   20.4660 C.ar  301  1RO301      0.0044
      9  C22        3.4820   23.0880   21.8330 C.ar  301  1RO301      0.0072
     10  C21        3.1290   21.8880   22.4520 C.ar  301  1RO301      0.0352
     11  S2         3.2090   20.6600   21.2300 S.2   301  1RO301     -0.0890
     12  S1         7.4100   19.2740   19.7080 S.3   301  1RO301     -0.0252
     13  C12        8.0710   20.4520   20.8100 C.2   301  1RO301      0.1239
     14  C11        9.2980   20.3130   21.6420 C.2   301  1RO301      0.0016
     15  C1         9.6370   21.4830   22.4990 C.3   301  1RO301      0.0669
     16  C6        10.9600   21.8330   22.7870 C.2   301  1RO301     -0.0161
     17  C5        11.2500   22.9470   23.5860 C.2   301  1RO301      0.0149
     18  C4        10.2240   23.7340   24.1080 C.2   301  1RO301      0.0771
     19  N1        10.4610   24.8190   24.8830 N.2   301  1RO301     -0.2445
     20  C9         9.4470   25.5570   25.3720 C.2   301  1RO301      0.0946
     21  C8         8.1090   25.2430   25.1120 C.2   301  1RO301     -0.0008
     22  C7         7.7840   24.1400   24.3220 C.3   301  1RO301      0.0551
     23  C3         8.8200   23.3660   23.8080 C.2   301  1RO301     -0.0037
     24  C2         8.5860   22.2480   23.0200 C.2   301  1RO301     -0.0201
@<TRIPOS>BOND
     1     5     6    1
     2     5     4    1
     3     6     7    1
     4     4    12    1
     5     4     3    2
     6    12    13    1
     7     7     8   ar
     8     7    11   ar
     9     3     2    2
    10     8     9   ar
    11     2    13    1
    12     2     1    2
    13    13    14    2
    14    11    10   ar
    15    14    15    1
    16     9    10   ar
    17    15    16    1
    18    15    24    1
    19    16    17    2
    20    24    23    2
    21    17    18    1
    22    23    18    1
    23    23    22    1
    24    18    19    2
    25    22    21    1
    26    19    20    1
    27    21    20    2
