@<TRIPOS>MOLECULE
4eoq_ATP_A_1.pdb
 31 33 0 0 0
SMALL
GASTEIGER

@<TRIPOS>ATOM
      1  PG         0.1010  -18.8640  -17.6930 P.3   301  ATP301      0.5373
      2  O1G       -0.5360  -19.5890  -18.8570 O.2   301  ATP301     -0.2221
      3  O2G       -0.6010  -17.5870  -17.2890 O.3   301  ATP301     -0.1143
      4  O3G        0.4530  -19.7700  -16.5370 O.3   301  ATP301     -0.1143
      5  PB         2.5170  -17.3740  -17.4800 P.3   301  ATP301      0.2277
      6  O1B        2.6220  -17.8910  -16.0720 O.3   301  ATP301     -0.4368
      7  O2B        2.0610  -15.9450  -17.6450 O.2   301  ATP301     -0.5168
      8  O3B        1.5260  -18.3720  -18.2800 O.3   301  ATP301     -0.2258
      9  PA         4.5980  -18.9020  -18.7870 P.3   301  ATP301      0.2189
     10  O1A        4.0750  -20.0630  -17.9630 O.3   301  ATP301     -0.4371
     11  O2A        6.0910  -18.6650  -18.8480 O.2   301  ATP301     -0.5170
     12  O3A        3.9310  -17.5140  -18.2620 O.3   301  ATP301     -0.2700
     13  O5'        4.0720  -19.0460  -20.3190 O.3   301  ATP301     -0.3112
     14  C5'        2.8360  -19.6880  -20.6650 C.3   301  ATP301      0.1813
     15  C4'        3.0360  -20.9130  -21.5640 C.3   301  ATP301      0.1821
     16  O4'        3.7670  -20.5930  -22.7640 O.3   301  ATP301     -0.3135
     17  C3'        3.8170  -22.0630  -20.9290 C.3   301  ATP301      0.2184
     18  O3'        3.0720  -22.8960  -20.0220 O.3   301  ATP301     -0.2174
     19  C2'        4.3160  -22.8150  -22.1570 C.3   301  ATP301      0.2570
     20  O2'        3.3460  -23.7320  -22.6770 O.3   301  ATP301     -0.2130
     21  C1'        4.5890  -21.7030  -23.1650 C.3   301  ATP301      0.3186
     22  N9         6.0500  -21.4180  -23.0490 N.pl3 301  ATP301     -0.1439
     23  C8         6.6190  -20.5500  -22.1880 C.3   301  ATP301      0.3377
     24  N7         7.9700  -20.5400  -22.3060 N.2   301  ATP301     -0.2095
     25  C5         8.2970  -21.4260  -23.2560 C.2   301  ATP301      0.2526
     26  C6         9.5640  -21.9020  -23.8690 C.2   301  ATP301      0.4393
     27  N6        10.7590  -21.4050  -23.4670 N.pl3 301  ATP301      0.2180
     28  N1         9.4730  -22.8390  -24.8370 N.2   301  ATP301      0.0021
     29  C2         8.2780  -23.3230  -25.2430 C.3   301  ATP301      0.5254
     30  N3         7.0910  -22.9440  -24.7260 N.2   301  ATP301     -0.0055
     31  C4         7.0320  -22.0120  -23.7410 C.2   301  ATP301      0.3518
@<TRIPOS>BOND
     1    29    28    1
     2    29    30    1
     3    28    26    2
     4    30    31    2
     5    26    27    1
     6    26    25    1
     7    31    25    1
     8    31    22    1
     9    25    24    2
    10    21    22    1
    11    21    16    1
    12    21    19    1
    13    22    23    1
    14    16    15    1
    15    20    19    1
    16    24    23    1
    17    19    17    1
    18    15    17    1
    19    15    14    1
    20    17    18    1
    21    14    13    1
    22    13     9    1
    23     2     1    2
    24    11     9    2
    25     9    12    1
    26     9    10    1
    27     8     1    1
    28     8     5    1
    29    12     5    1
    30     1     3    1
    31     1     4    1
    32     7     5    2
    33     5     6    1
