@<TRIPOS>MOLECULE
4eor_4SP_A_1.pdb
 28 31 0 0 0
SMALL
GASTEIGER

@<TRIPOS>ATOM
      1  C2        -7.9070  -23.4500   24.2370 C.1   301  4SP301      0.2364
      2  C8       -10.7650  -20.9120   22.3300 C.3   301  4SP301      0.2628
      3  C10       -5.2600  -21.3080   22.2460 C.3   301  4SP301      0.2081
      4  C11       -4.3640  -21.1010   21.0710 C.3   301  4SP301      0.0438
      5  C12       -4.8380  -21.8720   19.8830 C.3   301  4SP301      0.0037
      6  C13       -4.0570  -21.3390   18.7300 C.3   301  4SP301      0.0001
      7  C14       -2.5710  -21.5660   18.9060 C.3   301  4SP301      0.0000
      8  C15       -2.0630  -21.1350   20.2720 C.3   301  4SP301      0.0001
      9  C16       -2.9800  -21.5870   21.3790 C.3   301  4SP301      0.0037
     10  C19       -4.3900  -25.9490   24.0670 C.ar  301  4SP301      0.0214
     11  C20       -4.0310  -26.6010   25.2290 C.ar  301  4SP301      0.1251
     12  C21       -4.8600  -26.4780   26.3040 C.ar  301  4SP301      0.0214
     13  C22       -6.0140  -25.7380   26.2100 C.ar  301  4SP301      0.0188
     14  N26       -1.7250  -26.7560   24.5150 N.3   301  4SP301      0.0392
     15  N1        -7.0720  -22.7870   23.4560 N.2   301  4SP301     -0.2865
     16  C6        -7.4650  -21.8480   22.6350 C.2   301  4SP301      0.3177
     17  O6        -6.5860  -21.2020   21.8840 O.2   301  4SP301     -0.4497
     18  C5        -8.7730  -21.5440   22.5820 C.2   301  4SP301      0.2195
     19  N7        -9.5310  -20.7100   21.9430 N.2   301  4SP301     -0.2273
     20  N9       -10.8450  -21.8700   23.2330 N.2   301  4SP301     -0.1806
     21  C4        -9.6350  -22.2880   23.4380 C.1   301  4SP301      0.1221
     22  N3        -9.1890  -23.2200   24.2430 N.2   301  4SP301     -0.2702
     23  N2        -7.4810  -24.3930   25.0540 N.pl3 301  4SP301     -0.1248
     24  C17       -6.3520  -25.0830   25.0580 C.ar  301  4SP301      0.0836
     25  C18       -5.5340  -25.1990   23.9800 C.ar  301  4SP301      0.0188
     26  S23       -2.7080  -27.4410   25.2860 S.O2  301  4SP301      0.0935
     27  O24       -2.8100  -28.6690   24.6820 O.2   301  4SP301     -0.1503
     28  O25       -2.1700  -27.5660   26.5450 O.2   301  4SP301     -0.1503
@<TRIPOS>BOND
     1     6     7    1
     2     6     5    1
     3     7     8    1
     4     5     4    1
     5     8     9    1
     6     4     9    1
     7     4     3    1
     8    17     3    1
     9    17    16    1
    10    19     2    1
    11    19    18    2
    12     2    20    1
    13    18    16    1
    14    18    21    1
    15    16    15    2
    16    20    21    2
    17    21    22    2
    18    15     1    2
    19    25    10   ar
    20    25    24   ar
    21    10    11   ar
    22     1    22    2
    23     1    23    1
    24    14    26    1
    25    27    26    2
    26    23    24    1
    27    24    13   ar
    28    11    26    1
    29    11    12   ar
    30    26    28    2
    31    13    12   ar
