@<TRIPOS>MOLECULE
4eos_1RO_A_1.pdb
 24 27 0 0 0
SMALL
GASTEIGER

@<TRIPOS>ATOM
      1  O1        -7.1510  -22.3490   21.5780 O.2   301  1RO301     -0.2087
      2  C13       -6.9650  -21.2730   20.9290 C.1   301  1RO301      0.2126
      3  N2        -5.9290  -21.2220   20.0920 N.2   301  1RO301     -0.3056
      4  C15       -5.8930  -20.0140   19.5060 C.2   301  1RO301      0.2585
      5  N3        -4.8770  -19.7970   18.6450 N.2   301  1RO301     -0.2075
      6  C18       -3.6320  -20.5700   18.7540 C.2   301  1RO301      0.1085
      7  C19       -3.4490  -21.3490   20.0510 C.ar  301  1RO301      0.0487
      8  C23       -3.5570  -22.6950   20.3990 C.ar  301  1RO301      0.0086
      9  C22       -3.2970  -22.9520   21.7560 C.ar  301  1RO301      0.0075
     10  C21       -2.9700  -21.8480   22.5390 C.ar  301  1RO301      0.0355
     11  S2        -3.0090  -20.4780   21.4810 S.2   301  1RO301     -0.0849
     12  S1        -7.1710  -18.9020   19.9650 S.3   301  1RO301     -0.0223
     13  C12       -7.8450  -20.0890   21.0480 C.2   301  1RO301      0.1241
     14  C11       -9.0510  -19.9420   21.9200 C.2   301  1RO301      0.0016
     15  C1        -9.4110  -21.1270   22.7550 C.3   301  1RO301      0.0669
     16  C6       -10.7340  -21.5540   22.9060 C.2   301  1RO301     -0.0161
     17  C5       -11.0480  -22.6800   23.6830 C.2   301  1RO301      0.0149
     18  C4       -10.0410  -23.4020   24.3220 C.2   301  1RO301      0.0771
     19  N1       -10.2940  -24.4950   25.0820 N.2   301  1RO301     -0.2445
     20  C9        -9.2950  -25.1710   25.6810 C.2   301  1RO301      0.0946
     21  C8        -7.9600  -24.7820   25.5550 C.2   301  1RO301     -0.0008
     22  C7        -7.6200  -23.6650   24.7910 C.3   301  1RO301      0.0551
     23  C3        -8.6370  -22.9550   24.1620 C.2   301  1RO301     -0.0037
     24  C2        -8.3820  -21.8300   23.3950 C.2   301  1RO301     -0.0201
@<TRIPOS>BOND
     1     5     6    2
     2     5     4    1
     3     6     7    1
     4     4    12    1
     5     4     3    2
     6    12    13    1
     7     7     8   ar
     8     7    11   ar
     9     3     2    2
    10     8     9   ar
    11     2    13    1
    12     2     1    2
    13    13    14    2
    14    11    10   ar
    15     9    10   ar
    16    14    15    1
    17    15    16    1
    18    15    24    1
    19    16    17    2
    20    24    23    2
    21    17    18    1
    22    23    18    1
    23    23    22    1
    24    18    19    2
    25    22    21    1
    26    19    20    1
    27    21    20    2
