@<TRIPOS>MOLECULE
4eox_0S5_P_1.pdb
 30 32 0 0 0
SMALL
GASTEIGER

@<TRIPOS>ATOM
      1  C26       17.9040   -6.3800    1.1690 C.ar  302  0S5302      0.0000
      2  C25       17.7870   -5.6250    2.3220 C.ar  302  0S5302      0.0001
      3  C27       18.9200   -7.3050    1.0050 C.ar  302  0S5302      0.0001
      4  C24       18.7010   -5.8120    3.3380 C.ar  302  0S5302      0.0046
      5  C28       19.8590   -7.4880    1.9960 C.ar  302  0S5302      0.0046
      6  C23       19.7160   -6.7230    3.1470 C.ar  302  0S5302      0.0555
      7  C29       28.5820   -2.1970    4.8430 C.2   302  0S5302      0.1130
      8  C21       20.6740   -6.8490    4.2430 C.2   302  0S5302      0.2713
      9  C18       23.0050   -7.3090    4.6130 C.2   302  0S5302      0.2669
     10  C11       25.1900   -5.3040    4.7570 C.2   302  0S5302      0.2309
     11  C8        25.0370   -5.5640    9.4810 C.3   302  0S5302      0.0000
     12  C9        24.6460   -4.1520    9.8900 C.3   302  0S5302      0.0000
     13  C15       26.1920   -8.7700    4.4050 C.2   302  0S5302     -0.0077
     14  C16       24.8190   -8.7940    3.7780 C.3   302  0S5302      0.0570
     15  C7        25.9850   -5.4320    8.2780 C.3   302  0S5302      0.0000
     16  C10       25.1940   -3.2320    8.8180 C.3   302  0S5302      0.0000
     17  C14       26.4900   -7.3930    4.9550 C.2   302  0S5302      0.0634
     18  C17       24.3100   -7.3660    3.8590 C.3   302  0S5302      0.1623
     19  C6        25.5030   -4.1860    7.6470 C.3   302  0S5302      0.0005
     20  C5        26.1280   -3.5580    6.4330 C.3   302  0S5302      0.0108
     21  C3        27.0660   -4.0400    4.1940 C.3   302  0S5302      0.1071
     22  C4        26.3870   -4.6780    5.3840 C.3   302  0S5302      0.0973
     23  N13       25.2780   -6.6790    4.6630 N.am  302  0S5302     -0.2504
     24  N20       21.9500   -7.0260    3.7860 N.am  302  0S5302     -0.1395
     25  N2        28.3220   -3.4770    4.5200 N.am  302  0S5302     -0.2791
     26  O30       29.7210   -1.8610    5.1220 O.2   302  0S5302     -0.5358
     27  O22       20.3540   -6.6780    5.4070 O.2   302  0S5302     -0.2679
     28  O19       22.9240   -7.4640    5.8250 O.2   302  0S5302     -0.2711
     29  O12       24.2330   -4.7090    4.2950 O.2   302  0S5302     -0.2745
     30  O1        29.4400   -4.3170    4.6690 O.3   302  0S5302     -0.4195
@<TRIPOS>BOND
     1     3     1   ar
     2     3     5   ar
     3     1     2   ar
     4     5     6   ar
     5     2     4   ar
     6     6     4   ar
     7     6     8    1
     8    14    18    1
     9    14    13    1
    10    24     8   am
    11    24     9   am
    12    18     9    1
    13    18    23    1
    14    21    25    1
    15    21    22    1
    16     8    27    2
    17    29    10    2
    18    13    17    2
    19    25    30    1
    20    25     7   am
    21     9    28    2
    22    23    10   am
    23    23    17    1
    24    10    22    1
    25     7    26    2
    26    22    20    1
    27    20    19    1
    28    19    15    1
    29    19    16    1
    30    15    11    1
    31    16    12    1
    32    11    12    1
