@<TRIPOS>MOLECULE
4ep6_HEM_A_1.pdb
 43 50 0 0 0
SMALL
GASTEIGER

@<TRIPOS>ATOM
      1  CHA        3.1640   23.3900    7.5090 C.2   601  HEM601      0.0000
      2  CHB        6.4070   20.7590    9.6380 C.2   601  HEM601      0.0000
      3  CHC        9.0660   20.4000    5.7320 C.2   601  HEM601      0.0000
      4  CHD        5.5070   22.5360    3.5660 C.2   601  HEM601      0.0000
      5  C1A        3.8240   22.7050    8.4460 C.2   601  HEM601      0.0000
      6  C2A        3.3820   22.5990    9.8190 C.2   601  HEM601      0.0000
      7  C3A        4.3020   21.8320   10.4130 C.2   601  HEM601      0.0000
      8  C4A        5.3120   21.4910    9.3840 C.2   601  HEM601      0.0000
      9  CMA        4.4380   21.3670   11.8490 C.3   601  HEM601      0.0000
     10  CAA        2.1130   23.2770   10.3430 C.3   601  HEM601      0.0000
     11  CBA        2.5310   24.6530   10.9180 C.3   601  HEM601      0.0000
     12  CGA        1.4210   25.4650   11.6040 C.2   601  HEM601      0.0000
     13  O1A        0.2440   25.2690   11.1490 O.co2 601  HEM601      0.0000
     14  O2A        1.7060   26.2980   12.5520 O.co2 601  HEM601      0.0000
     15  C1B        7.3610   20.4980    8.7830 C.ar  601  HEM601      0.0000
     16  C2B        8.4900   19.7440    9.1820 C.ar  601  HEM601      0.0000
     17  C3B        9.2090   19.6820    8.1080 C.ar  601  HEM601      0.0000
     18  C4B        8.5640   20.2890    6.9880 C.ar  601  HEM601      0.0000
     19  CMB        8.9250   19.1280   10.5550 C.3   601  HEM601      0.0000
     20  CAB       10.4990   18.8860    8.1310 C.2   601  HEM601      0.0000
     21  CBB       11.5800   19.3890    7.5870 C.2   601  HEM601      0.0000
     22  C1C        8.3960   21.0650    4.7850 C.2   601  HEM601      0.0000
     23  C2C        8.8980   21.3530    3.4650 C.2   601  HEM601      0.0000
     24  C3C        7.8210   21.9030    2.9330 C.2   601  HEM601      0.0000
     25  C4C        6.7050   22.0080    3.9020 C.2   601  HEM601      0.0000
     26  CMC       10.3170   21.0170    2.8170 C.3   601  HEM601      0.0000
     27  CAC        7.6170   22.5070    1.5840 C.2   601  HEM601      0.0000
     28  CBC        8.6240   22.5310    0.7180 C.2   601  HEM601      0.0000
     29  C1D        4.5890   22.9940    4.3170 C.ar  601  HEM601      0.0000
     30  C2D        3.4530   23.7000    3.8560 C.ar  601  HEM601      0.0000
     31  C3D        2.7630   23.9620    5.1680 C.ar  601  HEM601      0.0000
     32  C4D        3.5120   23.3540    6.1940 C.ar  601  HEM601      0.0000
     33  CMD        2.9310   24.2110    2.5100 C.3   601  HEM601      0.0000
     34  CAD        1.4760   24.7610    5.2830 C.3   601  HEM601      0.0000
     35  CBD        0.2080   24.0010    4.9480 C.3   601  HEM601      0.0000
     36  CGD       -1.0270   24.7730    5.3950 C.2   601  HEM601      0.0000
     37  O1D       -0.9350   25.9660    5.8080 O.co2 601  HEM601      0.0000
     38  O2D       -2.1350   24.1470    5.3500 O.co2 601  HEM601      0.0000
     39  NA         5.0170   22.0610    8.2360 N.2   601  HEM601      0.0000
     40  NB         7.3880   20.8160    7.4110 N.ar  601  HEM601      0.0000
     41  NC         7.0650   21.4560    4.9810 N.2   601  HEM601      0.0000
     42  ND         4.6230   22.7870    5.6950 N.ar  601  HEM601      0.0000
     43 FE          6.0620   21.7880    6.5390 Fe    601  HEM601      0.0000
@<TRIPOS>BOND
     1    28    27    2
     2    27    24    1
     3    33    30    1
     4    26    23    1
     5    24    23    2
     6    24    25    1
     7    23    22    1
     8     4    25    1
     9     4    29    2
    10    30    29   ar
    11    30    31   ar
    12    25    41    2
    13    29    42   ar
    14    22    41    1
    15    22     3    2
    16    35    34    1
    17    35    36    1
    18    41    43    1
    19    31    34    1
    20    31    32   ar
    21    38    36   ar
    22    36    37   ar
    23    42    32   ar
    24    42    43    1
    25     3    18    1
    26    32     1    2
    27    43    40    1
    28    43    39    1
    29    18    40   ar
    30    18    17   ar
    31    40    15   ar
    32     1     5    1
    33    21    20    2
    34    17    20    1
    35    17    16   ar
    36    39     5    2
    37    39     8    1
    38     5     6    1
    39    15    16   ar
    40    15     2    1
    41    16    19    1
    42     8     2    2
    43     8     7    1
    44     6    10    1
    45     6     7    2
    46    10    11    1
    47     7     9    1
    48    11    12    1
    49    13    12   ar
    50    12    14   ar
