@<TRIPOS>MOLECULE
4ep7_UTP_A_1.pdb
 29 30 0 0 0
SMALL
GASTEIGER

@<TRIPOS>ATOM
      1  PA        10.8830   19.6240   11.3430 P.3   501  UTP501      0.2189
      2  O1A        9.8780   19.7610   12.3440 O.3   501  UTP501     -0.4371
      3  O2A       12.1630   19.1790   11.9870 O.2   501  UTP501     -0.5170
      4  O3A       10.5380   18.6780   10.1590 O.3   501  UTP501     -0.2700
      5  O5'       11.0810   21.0230   10.6040 O.3   501  UTP501     -0.3112
      6  PB         9.3460   17.6470   10.0870 P.3   501  UTP501      0.2277
      7  O1B        8.0740   18.3180    9.6720 O.3   501  UTP501     -0.4368
      8  O2B        9.6560   16.6350    8.9840 O.2   501  UTP501     -0.5168
      9  O3B        9.3140   16.9780   11.5420 O.3   501  UTP501     -0.2258
     10  PG         8.0440   16.3910   12.2680 P.3   501  UTP501      0.5373
     11  O1G        8.5290   15.7250   13.6210 O.3   501  UTP501     -0.1143
     12  O2G        7.3770   15.3930   11.3550 O.2   501  UTP501     -0.2221
     13  O3G        7.0290   17.4640   12.6270 O.3   501  UTP501     -0.1143
     14  C5'       10.0980   21.4470    9.7180 C.3   501  UTP501      0.1813
     15  C4'       10.5350   22.3720    8.6420 C.3   501  UTP501      0.1799
     16  O4'       11.2900   23.4050    9.1760 O.3   501  UTP501     -0.3320
     17  C1'       12.2190   23.7970    8.2190 C.3   501  UTP501      0.2401
     18  C2'       12.1420   22.7980    7.1130 C.3   501  UTP501      0.2319
     19  O2'       11.4040   23.3070    6.0440 O.3   501  UTP501     -0.2157
     20  C3'       11.5110   21.7140    7.7380 C.3   501  UTP501      0.2158
     21  O3'       10.8960   20.7400    6.8570 O.3   501  UTP501     -0.2175
     22  N1        13.5350   23.7920    8.8870 N.am  501  UTP501     -0.1766
     23  C6        13.6340   23.1300   10.0590 C.2   501  UTP501      0.0929
     24  C2        14.6120   24.3910    8.3770 C.1   501  UTP501      0.2845
     25  O2        14.5270   24.9660    7.3150 O.2   501  UTP501     -0.1918
     26  N3        15.8070   24.3580    8.9920 N.2   501  UTP501     -0.2452
     27  C4        15.9440   23.7210   10.1620 C.1   501  UTP501      0.2182
     28  O4        17.1480   23.6640   10.7660 O.2   501  UTP501     -0.2085
     29  C5        14.8490   23.0820   10.7310 C.2   501  UTP501      0.1242
@<TRIPOS>BOND
     1    19    18    1
     2    21    20    1
     3    18    20    1
     4    18    17    1
     5    25    24    2
     6    20    15    1
     7    17    22    1
     8    17    16    1
     9    24    22   am
    10    24    26    2
    11    15    16    1
    12    15    14    1
    13    22    23    1
    14     8     6    2
    15    26    27    2
    16     7     6    1
    17    14     5    1
    18    23    29    2
    19     6     4    1
    20     6     9    1
    21     4     1    1
    22    27    29    1
    23    27    28    2
    24     5     1    1
    25     1     3    2
    26     1     2    1
    27    12    10    2
    28     9    10    1
    29    10    13    1
    30    10    11    1
