@<TRIPOS>MOLECULE
4epl_JAI_A_1.pdb
 23 23 0 0 0
SMALL
GASTEIGER

@<TRIPOS>ATOM
      1  C         41.0340  -22.3460  -19.5600 C.2   601  JAI601      0.3842
      2  N         39.4460  -21.6460  -17.8690 N.am  601  JAI601     -0.1956
      3  O1        41.5310  -21.7300  -20.5370 O.co2 601  JAI601     -0.2437
      4  O2        40.6800  -23.5500  -19.5570 O.co2 601  JAI601     -0.2437
      5  O3        34.8340  -17.8830  -16.4100 O.2   601  JAI601     -0.2961
      6  CA        40.8460  -21.5700  -18.2750 C.3   601  JAI601      0.1977
      7  CB        41.8670  -21.8810  -17.1640 C.3   601  JAI601      0.0311
      8  C01       35.7920  -14.4570  -21.9540 C.3   601  JAI601      0.0050
      9  C02       35.9040  -15.7780  -21.2380 C.3   601  JAI601      0.0257
     10  C03       35.9170  -15.5830  -19.7390 C.2   601  JAI601     -0.0307
     11  C04       35.8990  -16.5720  -18.8450 C.2   601  JAI601     -0.0303
     12  C05       35.8620  -18.0180  -19.2930 C.3   601  JAI601      0.0330
     13  C06       36.0590  -18.9520  -18.1000 C.3   601  JAI601      0.0624
     14  C07       34.9230  -18.8640  -17.1310 C.2   601  JAI601      0.1506
     15  C09       33.9480  -20.0150  -17.1080 C.3   601  JAI601      0.0645
     16  C10       34.5720  -21.0620  -18.0360 C.3   601  JAI601      0.0087
     17  C11       35.9760  -20.4730  -18.2590 C.3   601  JAI601      0.0168
     18  C12       37.0980  -21.2220  -17.5280 C.3   601  JAI601      0.0873
     19  C13       38.4350  -20.8060  -18.1260 C.2   601  JAI601      0.2418
     20  O14       38.5680  -19.7820  -18.7880 O.2   601  JAI601     -0.2733
     21  CD1       41.0630  -19.7810  -15.9840 C.3   601  JAI601      0.0001
     22  CG1       41.4570  -21.2520  -15.8230 C.3   601  JAI601      0.0023
     23  CG2       43.3130  -21.7130  -17.6950 C.3   601  JAI601      0.0023
@<TRIPOS>BOND
     1     8     9    1
     2     9    10    1
     3     3     1   ar
     4    10    11    2
     5     1     4   ar
     6     1     6    1
     7    12    11    1
     8    12    13    1
     9    20    19    2
    10     6     2    1
    11     6     7    1
    12    17    13    1
    13    17    16    1
    14    17    18    1
    15    19     2   am
    16    19    18    1
    17    13    14    1
    18    16    15    1
    19    23     7    1
    20     7    22    1
    21    14    15    1
    22    14     5    2
    23    21    22    1
