@<TRIPOS>MOLECULE
4epm_AMP_A_1.pdb
 23 25 0 0 0
SMALL
GASTEIGER

@<TRIPOS>ATOM
      1  P        -22.0530   32.3240  -23.2900 P.3   601  AMP601      0.5327
      2  O1P      -23.1960   32.8430  -24.1270 O.2   601  AMP601     -0.2224
      3  O2P      -20.6610   32.7850  -23.6280 O.3   601  AMP601     -0.1145
      4  O3P      -22.3840   32.5420  -21.8280 O.3   601  AMP601     -0.1145
      5  O5'      -22.0870   30.7460  -23.2820 O.3   601  AMP601     -0.2675
      6  C5'      -22.4420   30.0420  -24.4490 C.3   601  AMP601      0.1860
      7  C4'      -22.2190   28.5690  -24.2930 C.3   601  AMP601      0.1823
      8  O4'      -23.4220   27.9450  -23.7700 O.3   601  AMP601     -0.3135
      9  C3'      -21.9460   27.8160  -25.5790 C.3   601  AMP601      0.2184
     10  O3'      -20.6080   27.9500  -26.0230 O.3   601  AMP601     -0.2174
     11  C2'      -22.3430   26.3950  -25.2140 C.3   601  AMP601      0.2570
     12  O2'      -21.3380   25.7820  -24.4240 O.3   601  AMP601     -0.2130
     13  C1'      -23.5720   26.6570  -24.3320 C.3   601  AMP601      0.3186
     14  N9       -24.8000   26.6470  -25.1360 N.pl3 601  AMP601     -0.1439
     15  C8       -25.4020   27.7250  -25.6770 C.3   601  AMP601      0.3377
     16  N7       -26.4800   27.3460  -26.3980 N.2   601  AMP601     -0.2095
     17  C5       -26.5580   26.0010  -26.3300 C.2   601  AMP601      0.2526
     18  C6       -27.4520   24.9520  -26.8720 C.2   601  AMP601      0.4393
     19  N6       -28.5040   25.2900  -27.6480 N.pl3 601  AMP601      0.2180
     20  N1       -27.1830   23.6600  -26.5580 N.2   601  AMP601      0.0021
     21  C2       -26.1270   23.3180  -25.7930 C.3   601  AMP601      0.5254
     22  N3       -25.2670   24.2120  -25.2660 N.2   601  AMP601     -0.0055
     23  C4       -25.4400   25.5440  -25.5000 C.2   601  AMP601      0.3518
@<TRIPOS>BOND
     1    19    18    1
     2    18    20    2
     3    18    17    1
     4    20    21    1
     5    16    17    2
     6    16    15    1
     7    17    23    1
     8    10     9    1
     9    21    22    1
    10    15    14    1
    11     9    11    1
    12     9     7    1
    13    23    22    2
    14    23    14    1
    15    11    12    1
    16    11    13    1
    17    14    13    1
    18     6     7    1
    19     6     5    1
    20    13     8    1
    21     7     8    1
    22     2     1    2
    23     3     1    1
    24     1     5    1
    25     1     4    1
