@<TRIPOS>MOLECULE
4epp_APR_A_1.pdb
 36 39 0 0 0
SMALL
GASTEIGER

@<TRIPOS>ATOM
      1  N1        47.3130   47.6260   92.3020 N.2   501  APR501      0.0021
      2  C2        47.2470   48.7600   93.0040 C.3   501  APR501      0.5254
      3  N3        47.1920   50.0000   92.4330 N.2   501  APR501     -0.0055
      4  C4        47.2230   50.0330   91.0430 C.2   501  APR501      0.3518
      5  C5        47.3020   48.7530   90.2890 C.2   501  APR501      0.2526
      6  C6        47.3380   47.5780   91.0060 C.2   501  APR501      0.4393
      7  N6        47.4070   46.3260   90.3290 N.pl3 501  APR501      0.2180
      8  N7        47.3170   49.1450   88.8720 N.2   501  APR501     -0.2095
      9  C8        47.2460   50.3970   88.8370 C.3   501  APR501      0.3377
     10  N9        47.2050   51.0620   90.0240 N.pl3 501  APR501     -0.1439
     11  C1'       47.0930   52.4880   90.2720 C.3   501  APR501      0.3186
     12  C2'       47.7730   53.3840   89.2750 C.3   501  APR501      0.2570
     13  O2'       48.2750   54.4420   89.9690 O.3   501  APR501     -0.2130
     14  C3'       46.6760   53.8160   88.3750 C.3   501  APR501      0.2184
     15  O3'       46.9740   54.9810   87.6950 O.3   501  APR501     -0.2174
     16  O4'       45.7400   52.8290   90.2230 O.3   501  APR501     -0.3135
     17  C4'       45.5210   53.8840   89.3210 C.3   501  APR501      0.1821
     18  C5'       44.1620   53.8610   88.6340 C.3   501  APR501      0.1813
     19  O5'       44.1040   52.8370   87.6870 O.3   501  APR501     -0.3112
     20  PA        43.0990   53.0010   86.4790 P.3   501  APR501      0.2189
     21  O1A       43.5360   54.1860   85.6330 O.2   501  APR501     -0.5170
     22  O2A       43.0850   51.7110   85.7130 O.3   501  APR501     -0.4371
     23  O3A       41.7020   53.2440   87.1980 O.3   501  APR501     -0.2703
     24  PB        40.5790   54.3180   86.8490 P.3   501  APR501      0.2189
     25  O1B       39.4570   54.0110   87.8210 O.3   501  APR501     -0.4371
     26  O2B       41.1100   55.7230   86.9780 O.2   501  APR501     -0.5170
     27  O5D       40.0600   54.1340   85.3710 O.3   501  APR501     -0.3112
     28  C5D       39.0380   53.2170   85.0870 C.3   501  APR501      0.1813
     29  O4D       40.2600   52.3490   83.1750 O.3   501  APR501     -0.3237
     30  O1D       40.0150   50.8940   81.3790 O.3   501  APR501     -0.1869
     31  C1D       40.0030   51.0140   82.7740 C.3   501  APR501      0.3023
     32  O2D       38.1250   49.5820   82.4860 O.3   501  APR501     -0.2148
     33  C2D       38.6920   50.5640   83.3010 C.3   501  APR501      0.2433
     34  O3D       37.4390   52.1040   82.0300 O.3   501  APR501     -0.2175
     35  C3D       37.9630   51.8470   83.2740 C.3   501  APR501      0.2168
     36  C4D       39.0150   52.8620   83.6010 C.3   501  APR501      0.1807
@<TRIPOS>BOND
     1    30    31    1
     2    34    35    1
     3    32    33    1
     4    31    29    1
     5    31    33    1
     6    29    36    1
     7    35    33    1
     8    35    36    1
     9    36    28    1
    10    28    27    1
    11    27    24    1
    12    21    20    2
    13    22    20    1
    14    20    23    1
    15    20    19    1
    16    24    26    2
    17    24    23    1
    18    24    25    1
    19    19    18    1
    20    15    14    1
    21    14    12    1
    22    14    17    1
    23    18    17    1
    24     9     8    1
    25     9    10    1
    26     8     5    2
    27    12    13    1
    28    12    11    1
    29    17    16    1
    30    10    11    1
    31    10     4    1
    32    16    11    1
    33     5     6    1
    34     5     4    1
    35     7     6    1
    36     6     1    2
    37     4     3    2
    38     1     2    1
    39     3     2    1
