@<TRIPOS>MOLECULE
4epq_0RR_A_1.pdb
 32 35 0 0 0
SMALL
GASTEIGER

@<TRIPOS>ATOM
      1  OAA        9.1050   11.3500    1.1400 O.co2 501  0RR501     -0.2456
      2  CAS        7.9940   11.2040    0.5430 C.2   501  0RR501      0.3666
      3  OAD        7.5520   11.9280   -0.3770 O.co2 501  0RR501     -0.2456
      4  CAO        7.0400   10.0490    0.9140 C.3   501  0RR501      0.1359
      5  CAP        6.8680    9.6950    2.4120 C.3   501  0RR501      0.1113
      6  NBE        5.8550    8.6250    2.3540 N.am  501  0RR501     -0.2435
      7  CAX        4.5620    9.0150    2.2550 C.2   501  0RR501      0.2597
      8  OAB        4.3010   10.2220    2.2900 O.2   501  0RR501     -0.2690
      9  CAZ        6.0200    7.2910    2.3000 C.2   501  0RR501      0.1212
     10  SAE        7.5260    6.4370    2.3760 S.2   501  0RR501     -0.0272
     11  SAR        4.5560    6.5300    2.1780 S.3   501  0RR501     -0.0602
     12  CBA        3.6490    8.0010    2.1820 C.2   501  0RR501      0.0893
     13  CBB        2.2920    8.0160    2.0330 C.2   501  0RR501      0.0656
     14  CAY        1.5520    6.8990    1.8820 C.2   501  0RR501      0.2537
     15  OAC        1.9820    5.7450    1.9250 O.2   501  0RR501     -0.2695
     16  CBC        1.4420    9.0610    1.9040 C.ar  501  0RR501      0.0196
     17  CAN        1.5840   10.3980    1.9440 C.ar  501  0RR501      0.0128
     18  CAT        0.4580   11.2240    1.7900 C.ar  501  0RR501      0.0578
     19 CLF         0.5400   12.9340    1.8110 Cl    501  0RR501     -0.0822
     20  CAL       -0.7990   10.6700    1.6000 C.ar  501  0RR501      0.0127
     21  CAM       -0.8790    9.2930    1.5690 C.ar  501  0RR501      0.0158
     22  CBD        0.2040    8.5350    1.7170 C.ar  501  0RR501      0.0546
     23  NBF        0.2640    7.2060    1.7000 N.am  501  0RR501     -0.2508
     24  CAQ       -0.9860    6.3380    1.5170 C.3   501  0RR501      0.1267
     25  CAW       -1.8120    6.4150    2.6590 C.ar  501  0RR501      0.0192
     26  CAU       -2.9680    7.2190    2.7160 C.ar  501  0RR501      0.0561
     27 CLG        -3.5120    8.2070    1.3450 Cl    501  0RR501     -0.0825
     28  CAJ       -3.7290    7.2550    3.8870 C.ar  501  0RR501      0.0112
     29  CAI       -3.3660    6.5060    5.0010 C.ar  501  0RR501      0.0017
     30  CAK       -2.2270    5.7130    4.9400 C.ar  501  0RR501      0.0112
     31  CAV       -1.4590    5.6630    3.7790 C.ar  501  0RR501      0.0561
     32 CLH        -0.0400    4.6650    3.7200 Cl    501  0RR501     -0.0825
@<TRIPOS>BOND
     1     3     2   ar
     2     2     4    1
     3     2     1   ar
     4     4     5    1
     5    27    26    1
     6    24    23    1
     7    24    25    1
     8    21    20   ar
     9    21    22   ar
    10    20    18   ar
    11    23    22    1
    12    23    14   am
    13    22    16   ar
    14    18    19    1
    15    18    17   ar
    16    14    15    2
    17    14    13    1
    18    16    17   ar
    19    16    13    1
    20    13    12    2
    21    11    12    1
    22    11     9    1
    23    12     7    1
    24     7     8    2
    25     7     6   am
    26     9     6    1
    27     9    10    2
    28     6     5    1
    29    25    26   ar
    30    25    31   ar
    31    26    28   ar
    32    32    31    1
    33    31    30   ar
    34    28    29   ar
    35    30    29   ar
