@<TRIPOS>MOLECULE
4epr_GDP_A_1.pdb
 28 30 0 0 0
SMALL
GASTEIGER

@<TRIPOS>ATOM
      1  PB        -7.9400   14.2570   22.0970 P.3   201  GDP201      0.5373
      2  O1B       -6.9580   14.2830   23.2020 O.3   201  GDP201     -0.1143
      3  O2B       -8.3930   15.6090   21.3930 O.3   201  GDP201     -0.1143
      4  O3B       -7.3850   13.3530   20.9100 O.2   201  GDP201     -0.2221
      5  O3A       -9.1970   13.5830   22.7800 O.3   201  GDP201     -0.2261
      6  PA       -10.7630   13.9920   22.6470 P.3   201  GDP201      0.2231
      7  O1A      -11.0750   15.3200   23.1750 O.3   201  GDP201     -0.4370
      8  O2A      -11.0540   13.6900   21.2480 O.2   201  GDP201     -0.5169
      9  O5'      -11.3880   12.8970   23.5490 O.3   201  GDP201     -0.3111
     10  C5'      -11.1350   11.4660   23.3170 C.3   201  GDP201      0.1813
     11  C4'      -12.3780   10.7590   23.7500 C.3   201  GDP201      0.1799
     12  O4'      -12.4390   10.7040   25.1830 O.3   201  GDP201     -0.3326
     13  C3'      -13.6930   11.4300   23.2700 C.3   201  GDP201      0.2158
     14  O3'      -14.5800   10.3080   23.0890 O.3   201  GDP201     -0.2175
     15  C2'      -14.1710   12.1770   24.5070 C.3   201  GDP201      0.2310
     16  O2'      -15.5690   12.0410   24.6830 O.3   201  GDP201     -0.2158
     17  C1'      -13.6480   11.3290   25.6760 C.3   201  GDP201      0.2293
     18  N9       -13.2280   12.2740   26.8200 N.pl3 201  GDP201     -0.2354
     19  C8       -12.4890   13.3830   26.7710 C.3   201  GDP201      0.2246
     20  N7       -12.3480   13.8450   28.0030 N.2   201  GDP201     -0.2322
     21  C5       -13.0760   13.0530   28.8570 C.2   201  GDP201      0.2182
     22  C6       -13.3450   13.0350   30.2230 C.1   201  GDP201      0.2372
     23  O6       -12.9160   13.8950   31.0120 O.2   201  GDP201     -0.2069
     24  N1       -14.1200   11.9950   30.7760 N.2   201  GDP201     -0.2485
     25  C2       -14.6800   10.9910   29.9110 C.1   201  GDP201      0.2531
     26  N2       -15.4450   10.0040   30.4030 N.pl3 201  GDP201     -0.0226
     27  N3       -14.3710   11.0430   28.6050 N.2   201  GDP201     -0.3074
     28  C4       -13.6130   12.0420   28.0890 C.2   201  GDP201      0.2300
@<TRIPOS>BOND
     1     4     1    2
     2     8     6    2
     3     3     1    1
     4     1     5    1
     5     1     2    1
     6     6     5    1
     7     6     7    1
     8     6     9    1
     9    14    13    1
    10    13    11    1
    11    13    15    1
    12    10     9    1
    13    10    11    1
    14    11    12    1
    15    15    16    1
    16    15    17    1
    17    12    17    1
    18    17    18    1
    19    19    18    1
    20    19    20    1
    21    18    28    1
    22    20    21    2
    23    28    27    2
    24    28    21    1
    25    27    25    2
    26    21    22    1
    27    25    26    1
    28    25    24    2
    29    22    24    2
    30    22    23    2
