@<TRIPOS>MOLECULE
4ept_GDP_A_1.pdb
 28 30 0 0 0
SMALL
GASTEIGER

@<TRIPOS>ATOM
      1  PB        39.0810   36.2710   21.3760 P.3   201  GDP201      0.5373
      2  O1B       39.4770   35.0970   20.5500 O.2   201  GDP201     -0.2221
      3  O2B       37.6240   36.2520   21.5330 O.3   201  GDP201     -0.1143
      4  O3B       39.5530   37.5680   20.7690 O.3   201  GDP201     -0.1143
      5  O3A       39.7150   36.1310   22.7790 O.3   201  GDP201     -0.2261
      6  PA        39.1830   35.2930   23.9910 P.3   201  GDP201      0.2231
      7  O1A       38.7000   33.9130   23.6610 O.2   201  GDP201     -0.5169
      8  O2A       38.2460   36.1340   24.7370 O.3   201  GDP201     -0.4370
      9  O5'       40.4770   35.2100   24.9080 O.3   201  GDP201     -0.3111
     10  C5'       41.6660   34.5400   24.4780 C.3   201  GDP201      0.1813
     11  C4'       42.4530   33.8900   25.6230 C.3   201  GDP201      0.1799
     12  O4'       43.1090   34.9190   26.3840 O.3   201  GDP201     -0.3326
     13  C3'       41.5550   33.1110   26.6150 C.3   201  GDP201      0.2158
     14  O3'       42.3180   32.0340   27.1490 O.3   201  GDP201     -0.2175
     15  C2'       41.2220   34.1660   27.6650 C.3   201  GDP201      0.2310
     16  O2'       40.9170   33.6260   28.9500 O.3   201  GDP201     -0.2158
     17  C1'       42.4900   34.9920   27.6770 C.3   201  GDP201      0.2293
     18  N9        42.2460   36.4030   27.9770 N.pl3 201  GDP201     -0.2354
     19  C8        41.3520   37.2270   27.3930 C.3   201  GDP201      0.2246
     20  N7        41.4560   38.4390   27.9530 N.2   201  GDP201     -0.2322
     21  C5        42.3970   38.4080   28.9090 C.2   201  GDP201      0.2182
     22  C6        42.9820   39.3540   29.8790 C.1   201  GDP201      0.2372
     23  O6        42.6200   40.5410   29.9360 O.2   201  GDP201     -0.2069
     24  N1        43.9770   38.9450   30.6650 N.2   201  GDP201     -0.2485
     25  C2        44.3710   37.6470   30.6290 C.1   201  GDP201      0.2531
     26  N2        45.3590   37.2670   31.4440 N.pl3 201  GDP201     -0.0226
     27  N3        43.8960   36.7130   29.7630 N.2   201  GDP201     -0.3074
     28  C4        42.8970   37.0430   28.9140 C.2   201  GDP201      0.2300
@<TRIPOS>BOND
     1     2     1    2
     2     4     1    1
     3     1     3    1
     4     1     5    1
     5     5     6    1
     6     7     6    2
     7     6     8    1
     8     6     9    1
     9    10     9    1
    10    10    11    1
    11    11    12    1
    12    11    13    1
    13    12    17    1
    14    13    14    1
    15    13    15    1
    16    19    20    1
    17    19    18    1
    18    15    17    1
    19    15    16    1
    20    17    18    1
    21    20    21    2
    22    18    28    1
    23    21    28    1
    24    21    22    1
    25    28    27    2
    26    27    25    2
    27    22    23    2
    28    22    24    2
    29    25    24    2
    30    25    26    1
