@<TRIPOS>MOLECULE
4ept_0QW_A_1.pdb
 14 15 0 0 0
SMALL
GASTEIGER

@<TRIPOS>ATOM
      1  C8        23.3310   40.1990   12.7890 C.3   203  0QW203      0.0913
      2  C9        23.4820   38.9360   13.7000 C.3   203  0QW203      0.0232
      3  C10       24.9310   38.9900   14.2070 C.3   203  0QW203      0.0232
      4  C11       25.3610   40.4620   14.1260 C.3   203  0QW203      0.0913
      5  N1        24.3530   41.1690   13.2800 N.am  203  0QW203     -0.3022
      6  C7        24.2990   42.5040   13.0590 C.2   203  0QW203      0.0875
      7  S1        23.0100   43.2100   12.0740 S.2   203  0QW203     -0.0346
      8  C6        25.2300   43.3840   13.6900 C.ar  203  0QW203      0.0589
      9  C5        26.1960   44.0530   12.9430 C.ar  203  0QW203      0.0050
     10  C4        27.0800   44.9720   13.5160 C.ar  203  0QW203      0.0003
     11  C3        26.9950   45.2180   14.8900 C.ar  203  0QW203      0.0033
     12  C2        26.0130   44.5640   15.6870 C.ar  203  0QW203      0.0421
     13  C1        25.1260   43.6360   15.0640 C.ar  203  0QW203      0.1974
     14  O1        24.1670   42.9420   15.8230 O.3   203  0QW203     -0.2865
@<TRIPOS>BOND
     1     7     6    2
     2     1     5    1
     3     1     2    1
     4     9    10   ar
     5     9     8   ar
     6     6     5    1
     7     6     8    1
     8     5     4    1
     9    10    11   ar
    10     8    13   ar
    11     2     3    1
    12     4     3    1
    13    11    12   ar
    14    13    12   ar
    15    13    14    1
