@<TRIPOS>MOLECULE
4epv_GDP_A_1.pdb
 28 30 0 0 0
SMALL
GASTEIGER

@<TRIPOS>ATOM
      1  PB        29.6370   13.0160   16.2170 P.3   201  GDP201      0.5373
      2  O1B       30.6860   12.6460   15.1770 O.2   201  GDP201     -0.2221
      3  O2B       29.2910   14.5210   16.2620 O.3   201  GDP201     -0.1143
      4  O3B       30.0090   12.4670   17.6170 O.3   201  GDP201     -0.1143
      5  O3A       28.2790   12.2740   15.7390 O.3   201  GDP201     -0.2261
      6  PA        28.0570   10.9760   14.8410 P.3   201  GDP201      0.2231
      7  O1A       28.2220   11.3440   13.4190 O.2   201  GDP201     -0.5169
      8  O2A       28.9470    9.8330   15.4350 O.3   201  GDP201     -0.4370
      9  O5'       26.5640   10.7290   15.0850 O.3   201  GDP201     -0.3111
     10  C5'       26.0290   10.4470   16.4520 C.3   201  GDP201      0.1813
     11  C4'       24.7540    9.5760   16.3110 C.3   201  GDP201      0.1799
     12  O4'       23.6960   10.3260   15.6250 O.3   201  GDP201     -0.3326
     13  C3'       24.9790    8.3670   15.4540 C.3   201  GDP201      0.2158
     14  O3'       24.1440    7.2760   15.9680 O.3   201  GDP201     -0.2175
     15  C2'       24.4660    8.7760   14.0820 C.3   201  GDP201      0.2310
     16  O2'       23.9540    7.7420   13.2430 O.3   201  GDP201     -0.2158
     17  C1'       23.2860    9.6840   14.4230 C.3   201  GDP201      0.2293
     18  N9        23.0640   10.7890   13.4580 N.pl3 201  GDP201     -0.2354
     19  C8        24.0260   11.6180   12.9320 C.3   201  GDP201      0.2246
     20  N7        23.4410   12.4570   12.1020 N.2   201  GDP201     -0.2322
     21  C5        22.1210   12.1970   12.0620 C.2   201  GDP201      0.2182
     22  C6        20.9830   12.7130   11.4170 C.1   201  GDP201      0.2372
     23  O6        21.0290   13.6730   10.6510 O.2   201  GDP201     -0.2069
     24  N1        19.7860   12.1050   11.6690 N.2   201  GDP201     -0.2485
     25  C2        19.6860   11.0200   12.5080 C.1   201  GDP201      0.2531
     26  N2        18.4490   10.5110   12.6770 N.pl3 201  GDP201     -0.0226
     27  N3        20.6870   10.5270   13.1950 N.2   201  GDP201     -0.3074
     28  C4        21.9270   11.0520   12.9760 C.2   201  GDP201      0.2300
@<TRIPOS>BOND
     1    23    22    2
     2    22    24    2
     3    22    21    1
     4    24    25    2
     5    21    20    2
     6    21    28    1
     7    20    19    1
     8    25    26    1
     9    25    27    2
    10    19    18    1
    11    28    27    2
    12    28    18    1
    13    16    15    1
    14     7     6    2
    15    18    17    1
    16    15    17    1
    17    15    13    1
    18    17    12    1
    19     6     9    1
    20     6     8    1
    21     6     5    1
    22     9    10    1
    23     2     1    2
    24    13    14    1
    25    13    11    1
    26    12    11    1
    27     5     1    1
    28     1     3    1
    29     1     4    1
    30    11    10    1
