@<TRIPOS>MOLECULE
4epv_0QX_A_1.pdb
 19 22 0 0 0
SMALL
GASTEIGER

@<TRIPOS>ATOM
      1  CAS       43.4300   20.3050    9.0060 C.2   203  0QX203      0.0123
      2  CAE       43.3080   21.3390    9.9920 C.2   203  0QX203     -0.0202
      3  CAB       42.2360   22.3090    9.9940 C.3   203  0QX203      0.0521
      4  CAA       41.3110   22.1270    8.8740 C.2   203  0QX203     -0.0199
      5  CAD       41.3810   21.1410    7.8820 C.2   203  0QX203      0.0148
      6  CAQ       42.4770   20.2340    7.9390 C.2   203  0QX203      0.0805
      7  NAL       42.8090   19.1430    7.1630 N.2   203  0QX203     -0.2442
      8  CAH       43.9640   18.5990    7.6690 C.2   203  0QX203      0.0957
      9  CAN       44.4100   19.2760    8.7680 C.2   203  0QX203      0.0151
     10  CAI       45.6410   18.9990    9.7250 C.3   203  0QX203      0.1526
     11  CAO       45.2060   18.0760   10.8190 C.1   203  0QX203      0.1173
     12  NAM       44.9530   16.7740   10.6650 N.2   203  0QX203     -0.3450
     13  CAR       44.5560   16.2990   11.8210 C.2   203  0QX203      0.1551
     14  CAF       44.1650   14.9710   12.1970 C.3   203  0QX203      0.1088
     15  CAC       43.7680   14.7820   13.5150 C.2   203  0QX203      0.0748
     16  NAJ       43.7810   15.7950   14.4250 N.2   203  0QX203     -0.2654
     17  CAG       44.1680   17.0690   14.0780 C.3   203  0QX203      0.1869
     18  CAP       44.5390   17.3430   12.7290 C.2   203  0QX203      0.1719
     19  NAK       44.9180   18.4570   12.0600 N.2   203  0QX203     -0.3434
@<TRIPOS>BOND
     1     7     8    1
     2     7     6    2
     3     8     9    2
     4     5     6    1
     5     5     4    2
     6     6     1    1
     7     9     1    1
     8     9    10    1
     9     4     3    1
    10     1     2    2
    11    10    11    1
    12     2     3    1
    13    12    11    2
    14    12    13    2
    15    11    19    2
    16    13    14    1
    17    13    18    1
    18    19    18    2
    19    14    15    1
    20    18    17    1
    21    15    16    2
    22    17    16    1
