@<TRIPOS>MOLECULE
4epw_GDP_A_1.pdb
 28 30 0 0 0
SMALL
GASTEIGER

@<TRIPOS>ATOM
      1  PB       -10.1970   -7.3520  -16.2290 P.3   201  GDP201      0.5373
      2  O1B      -10.5790   -7.7670  -17.6220 O.2   201  GDP201     -0.2221
      3  O2B      -11.3020   -7.7020  -15.2410 O.3   201  GDP201     -0.1143
      4  O3B       -9.8790   -5.8720  -16.2980 O.3   201  GDP201     -0.1143
      5  O3A       -8.8880   -8.1600  -15.8530 O.3   201  GDP201     -0.2261
      6  PA        -8.7070   -9.3480  -14.8130 P.3   201  GDP201      0.2231
      7  O1A       -9.4890  -10.5260  -15.4150 O.2   201  GDP201     -0.5169
      8  O2A       -8.8540   -9.0680  -13.3270 O.3   201  GDP201     -0.4370
      9  O5'       -7.1430   -9.6800  -14.9600 O.3   201  GDP201     -0.3111
     10  C5'       -6.6290   -9.9840  -16.2780 C.3   201  GDP201      0.1813
     11  C4'       -5.3890  -10.8960  -16.1320 C.3   201  GDP201      0.1799
     12  O4'       -4.2950  -10.1620  -15.5140 O.3   201  GDP201     -0.3326
     13  C3'       -5.6640  -12.0260  -15.1400 C.3   201  GDP201      0.2158
     14  O3'       -4.8950  -13.1580  -15.5520 O.3   201  GDP201     -0.2175
     15  C2'       -5.1130  -11.5850  -13.7670 C.3   201  GDP201      0.2310
     16  O2'       -4.6130  -12.6260  -12.8880 O.3   201  GDP201     -0.2158
     17  C1'       -3.9710  -10.7100  -14.2210 C.3   201  GDP201      0.2293
     18  N9        -3.7080   -9.6120  -13.3150 N.pl3 201  GDP201     -0.2354
     19  C8        -4.6190   -8.6910  -12.9180 C.3   201  GDP201      0.2246
     20  N7        -4.0420   -7.8110  -12.1140 N.2   201  GDP201     -0.2322
     21  C5        -2.7240   -8.1550  -11.9960 C.2   201  GDP201      0.2182
     22  C6        -1.5670   -7.6630  -11.2840 C.1   201  GDP201      0.2372
     23  O6        -1.6450   -6.5920  -10.5800 O.2   201  GDP201     -0.2069
     24  N1        -0.4110   -8.2990  -11.4510 N.2   201  GDP201     -0.2485
     25  C2        -0.2640   -9.4530  -12.2090 C.1   201  GDP201      0.2531
     26  N2         0.9330  -10.0720  -12.3720 N.pl3 201  GDP201     -0.0226
     27  N3        -1.2900   -9.9610  -12.8920 N.2   201  GDP201     -0.3074
     28  C4        -2.5290   -9.3830  -12.7800 C.2   201  GDP201      0.2300
@<TRIPOS>BOND
     1     2     1    2
     2     4     1    1
     3    10    11    1
     4    10     9    1
     5     1     5    1
     6     1     3    1
     7    11    12    1
     8    11    13    1
     9     5     6    1
    10    14    13    1
    11    12    17    1
    12     7     6    2
    13    13    15    1
    14     9     6    1
    15     6     8    1
    16    17    15    1
    17    17    18    1
    18    15    16    1
    19    18    19    1
    20    18    28    1
    21    19    20    1
    22    27    28    2
    23    27    25    2
    24    28    21    1
    25    26    25    1
    26    25    24    2
    27    20    21    2
    28    21    22    1
    29    24    22    2
    30    22    23    2
