@<TRIPOS>MOLECULE
4epw_0QV_A_1.pdb
 18 20 0 0 0
SMALL
GASTEIGER

@<TRIPOS>ATOM
      1  CAJ      -25.4780   -2.6130  -12.6190 C.3   203  0QV203      0.0939
      2  CAH      -24.7290   -2.4530  -13.9900 C.3   203  0QV203      0.0543
      3  CAQ      -25.7020   -2.0890  -15.1220 C.3   203  0QV203      0.1554
      4  OAA      -26.6110   -3.2110  -15.2520 O.3   203  0QV203     -0.2230
      5  CAI      -26.5480   -0.7780  -14.8870 C.3   203  0QV203      0.0543
      6  CAK      -27.1000   -0.8610  -13.4850 C.3   203  0QV203      0.0939
      7  NAR      -26.0650   -1.2380  -12.4650 N.am  203  0QV203     -0.3023
      8  CAM      -25.7440   -0.4040  -11.4010 C.2   203  0QV203      0.0825
      9  SAB      -26.4550    1.2110  -11.4730 S.2   203  0QV203     -0.0350
     10  CAN      -24.8860   -0.7440  -10.3030 C.2   203  0QV203      0.0263
     11  CAP      -23.8800    0.1040   -9.7340 C.3   203  0QV203      0.0876
     12  CAF      -23.4230    1.4050   -9.9950 C.2   203  0QV203     -0.0160
     13  CAD      -22.3960    1.9610   -9.2680 C.2   203  0QV203     -0.0038
     14  CAC      -21.8240    1.2500   -8.2250 C.2   203  0QV203      0.0009
     15  CAE      -22.3020   -0.0260   -7.8940 C.2   203  0QV203      0.0153
     16  CAO      -23.3280   -0.6120   -8.6450 C.2   203  0QV203      0.0669
     17  NAL      -24.0110   -1.7900   -8.5680 N.2   203  0QV203     -0.2478
     18  CAG      -24.8990   -1.8680   -9.5770 C.2   203  0QV203      0.0966
@<TRIPOS>BOND
     1     4     3    1
     2     3     5    1
     3     3     2    1
     4     5     6    1
     5     2     1    1
     6     6     7    1
     7     1     7    1
     8     7     8    1
     9     9     8    2
    10     8    10    1
    11    10    11    1
    12    10    18    2
    13    12    11    1
    14    12    13    2
    15    11    16    1
    16    18    17    1
    17    13    14    1
    18    16    17    2
    19    16    15    1
    20    14    15    2
