@<TRIPOS>MOLECULE
4epx_GDP_A_1.pdb
 28 30 0 0 0
SMALL
GASTEIGER

@<TRIPOS>ATOM
      1  PB        10.0900   -7.4230   16.2500 P.3   201  GDP201      0.5373
      2  O1B       11.1890   -7.7570   15.2260 O.2   201  GDP201     -0.2221
      3  O2B        9.8500   -5.9310   16.3060 O.3   201  GDP201     -0.1143
      4  O3B       10.4670   -7.9270   17.6100 O.3   201  GDP201     -0.1143
      5  O3A        8.7260   -8.1850   15.8440 O.3   201  GDP201     -0.2261
      6  PA         8.5330   -9.4100   14.8870 P.3   201  GDP201      0.2231
      7  O1A        8.6720   -9.0310   13.4580 O.2   201  GDP201     -0.5169
      8  O2A        9.3890  -10.5110   15.4060 O.3   201  GDP201     -0.4370
      9  O5'        6.9540   -9.7000   15.0950 O.3   201  GDP201     -0.3111
     10  C5'        6.5190  -10.0230   16.4470 C.3   201  GDP201      0.1813
     11  C4'        5.2710  -10.8930   16.2940 C.3   201  GDP201      0.1799
     12  O4'        4.2410  -10.1020   15.6530 O.3   201  GDP201     -0.3326
     13  C3'        5.5480  -12.0540   15.3490 C.3   201  GDP201      0.2158
     14  O3'        4.7360  -13.1190   15.8580 O.3   201  GDP201     -0.2175
     15  C2'        5.0020  -11.6110   13.9930 C.3   201  GDP201      0.2310
     16  O2'        4.4120  -12.6450   13.2040 O.3   201  GDP201     -0.2158
     17  C1'        3.8650  -10.7150   14.4030 C.3   201  GDP201      0.2293
     18  N9         3.6090   -9.6320   13.4620 N.pl3 201  GDP201     -0.2354
     19  C8         4.5520   -8.7600   13.0050 C.3   201  GDP201      0.2246
     20  N7         3.9830   -7.8810   12.1510 N.2   201  GDP201     -0.2322
     21  C5         2.6340   -8.1710   12.1010 C.2   201  GDP201      0.2182
     22  C6         1.4750   -7.6710   11.3980 C.1   201  GDP201      0.2372
     23  O6         1.5410   -6.6730   10.6700 O.2   201  GDP201     -0.2069
     24  N1         0.2830   -8.2440   11.6080 N.2   201  GDP201     -0.2485
     25  C2         0.1210   -9.3420   12.3940 C.1   201  GDP201      0.2531
     26  N2        -1.1280   -9.8760   12.5360 N.pl3 201  GDP201     -0.0226
     27  N3         1.1460   -9.8910   13.0720 N.2   201  GDP201     -0.3074
     28  C4         2.4170   -9.3580   12.9430 C.2   201  GDP201      0.2300
@<TRIPOS>BOND
     1    23    22    2
     2    22    24    2
     3    22    21    1
     4    24    25    2
     5    21    20    2
     6    21    28    1
     7    20    19    1
     8    25    26    1
     9    25    27    2
    10    28    27    2
    11    28    18    1
    12    19    18    1
    13    16    15    1
    14     7     6    2
    15    18    17    1
    16    15    17    1
    17    15    13    1
    18    17    12    1
    19     6     9    1
    20     6     8    1
    21     6     5    1
    22     9    10    1
    23     2     1    2
    24    13    14    1
    25    13    11    1
    26    12    11    1
    27     5     1    1
    28     1     3    1
    29     1     4    1
    30    11    10    1
