@<TRIPOS>MOLECULE
4epx_0QR_A_1.pdb
 18 19 0 0 0
SMALL
GASTEIGER

@<TRIPOS>ATOM
      1  CAD       26.6560   -0.2720   13.5650 C.ar  203  0QR203      0.0226
      2  CAE       26.3610   -0.8030   14.8240 C.ar  203  0QR203      0.0310
      3  CAF       25.4640   -1.9100   14.7990 C.ar  203  0QR203      0.1402
      4  FAG       25.0900   -2.5010   15.9370 F     203  0QR203     -0.2042
      5  CAH       24.9070   -2.4740   13.6200 C.ar  203  0QR203      0.0310
      6  CAI       25.2320   -1.9320   12.3690 C.ar  203  0QR203      0.0226
      7  CAC       26.1040   -0.8210   12.3840 C.ar  203  0QR203      0.1273
      8  SAB       26.5770   -0.0910   10.8240 S.O2  203  0QR203      0.0949
      9  OAA       27.8850   -0.7730   10.3390 O.2   203  0QR203     -0.1482
     10  OAR       26.8030    1.3890   11.1190 O.2   203  0QR203     -0.1482
     11  NA2       25.4150   -0.4720    9.6880 N.pl3 203  0QR203     -0.0683
     12  CAK       24.2920    0.3090    9.5510 C.2   203  0QR203      0.2044
     13  NA3       23.4410   -0.0320    8.5370 N.2   203  0QR203     -0.3700
     14  CAQ       23.9900    1.4170   10.3740 C.3   203  0QR203      0.1042
     15  CAP       22.7870    2.1580   10.1320 C.2   203  0QR203     -0.0131
     16  CAO       21.9160    1.7380    9.0840 C.2   203  0QR203      0.0468
     17  CAM       22.3010    0.6460    8.2870 C.2   203  0QR203      0.2202
     18  NA1       21.5750    0.1910    7.2710 N.pl3 203  0QR203     -0.0931
@<TRIPOS>BOND
     1    18    17    1
     2    17    13    2
     3    17    16    1
     4    13    12    2
     5    16    15    2
     6    12    11    1
     7    12    14    1
     8    11     8    1
     9    15    14    1
    10     9     8    2
    11     8    10    2
    12     8     7    1
    13     6     7   ar
    14     6     5   ar
    15     7     1   ar
    16     1     2   ar
    17     5     3   ar
    18     3     2   ar
    19     3     4    1
