@<TRIPOS>MOLECULE
4epy_GDP_A_1.pdb
 28 30 0 0 0
SMALL
GASTEIGER

@<TRIPOS>ATOM
      1  PB         9.9430   -7.4460   16.1050 P.3   201  GDP201      0.5373
      2  O1B       10.8100   -7.6530   14.8990 O.2   201  GDP201     -0.2221
      3  O2B        9.6960   -5.9720   16.2920 O.3   201  GDP201     -0.1143
      4  O3B       10.5580   -8.0310   17.3530 O.3   201  GDP201     -0.1143
      5  O3A        8.5440   -8.1450   15.7810 O.3   201  GDP201     -0.2261
      6  PA         8.4200   -9.4230   14.8210 P.3   201  GDP201      0.2231
      7  O1A        8.6890   -9.0280   13.3910 O.2   201  GDP201     -0.5169
      8  O2A        9.3010  -10.5630   15.2770 O.3   201  GDP201     -0.4370
      9  O5'        6.8660   -9.7700   15.0440 O.3   201  GDP201     -0.3111
     10  C5'        6.4400  -10.2300   16.3300 C.3   201  GDP201      0.1813
     11  C4'        5.1380  -11.0020   16.1840 C.3   201  GDP201      0.1799
     12  O4'        4.1510  -10.1550   15.5940 O.3   201  GDP201     -0.3326
     13  C3'        5.3260  -12.1720   15.2400 C.3   201  GDP201      0.2158
     14  O3'        4.5320  -13.2630   15.7050 O.3   201  GDP201     -0.2175
     15  C2'        4.7690  -11.6970   13.9190 C.3   201  GDP201      0.2310
     16  O2'        4.2320  -12.7770   13.1540 O.3   201  GDP201     -0.2158
     17  C1'        3.6940  -10.7230   14.3650 C.3   201  GDP201      0.2293
     18  N9         3.4810   -9.6410   13.3830 N.pl3 201  GDP201     -0.2354
     19  C8         4.3940   -8.7910   12.8760 C.3   201  GDP201      0.2246
     20  N7         3.8100   -7.9200   12.0100 N.2   201  GDP201     -0.2322
     21  C5         2.4920   -8.2090   11.9770 C.2   201  GDP201      0.2182
     22  C6         1.2870   -7.6920   11.2880 C.1   201  GDP201      0.2372
     23  O6         1.3670   -6.7290   10.4940 O.2   201  GDP201     -0.2069
     24  N1         0.1120   -8.2870   11.5420 N.2   201  GDP201     -0.2485
     25  C2        -0.0070   -9.3250   12.3940 C.1   201  GDP201      0.2531
     26  N2        -1.2250   -9.8780   12.6000 N.pl3 201  GDP201     -0.0226
     27  N3         1.0490   -9.8510   13.0600 N.2   201  GDP201     -0.3074
     28  C4         2.2900   -9.3410   12.8890 C.2   201  GDP201      0.2300
@<TRIPOS>BOND
     1    23    22    2
     2    22    24    2
     3    22    21    1
     4    24    25    2
     5    21    20    2
     6    21    28    1
     7    20    19    1
     8    25    26    1
     9    25    27    2
    10    19    18    1
    11    28    27    2
    12    28    18    1
    13    16    15    1
    14    18    17    1
    15     7     6    2
    16    15    17    1
    17    15    13    1
    18    17    12    1
    19     6     9    1
    20     6     8    1
    21     6     5    1
    22     2     1    2
    23     9    10    1
    24    13    14    1
    25    13    11    1
    26    12    11    1
    27     5     1    1
    28     1     3    1
    29     1     4    1
    30    11    10    1
