@<TRIPOS>MOLECULE
4epy_0QY_A_1.pdb
 27 31 0 0 0
SMALL
GASTEIGER

@<TRIPOS>ATOM
      1  O01       25.2870   -8.2020   13.0740 O.2   203  0QY203     -0.2715
      2  C02       24.7460   -8.0830   14.1650 C.2   203  0QY203      0.2611
      3  C03       24.3900   -9.3380   14.9380 C.3   203  0QY203      0.1507
      4  N04       23.6910  -10.3540   14.1510 N.3   203  0QY203     -0.2102
      5  C05       24.5930  -11.4600   13.9890 C.3   203  0QY203      0.0893
      6  C06       25.5100  -11.4150   15.1590 C.3   203  0QY203      0.0208
      7  C07       25.6200   -9.9710   15.4930 C.3   203  0QY203      0.0282
      8  N08       24.4210   -6.7920   14.7530 N.am  203  0QY203     -0.1823
      9  C09       24.7220   -5.4850   14.1570 C.2   203  0QY203      0.0544
     10  C10       24.8460   -4.3000   15.0010 C.2   203  0QY203     -0.0059
     11  C11       25.1580   -2.9810   14.4140 C.3   203  0QY203      0.0893
     12  C12       24.9350   -5.3460   12.6920 C.3   203  0QY203      0.1051
     13  C13       25.2680   -3.9670   12.0760 C.2   203  0QY203      0.1532
     14  C14       25.3730   -2.8500   12.8850 C.2   203  0QY203      0.1519
     15  N15       25.6720   -1.7760   12.0890 N.2   203  0QY203     -0.3451
     16  C16       25.7510   -2.2240   10.7810 C.1   203  0QY203      0.1172
     17  C17       26.0680   -1.3840    9.5630 C.3   203  0QY203      0.1526
     18  C18       24.8460   -1.1380    8.7260 C.2   203  0QY203      0.0150
     19  C19       24.4500   -1.8610    7.6000 C.2   203  0QY203      0.0953
     20  N20       23.2730   -1.3000    7.1240 N.2   203  0QY203     -0.2481
     21  C21       22.9430   -0.2260    7.9510 C.2   203  0QY203      0.0631
     22  C22       21.7660    0.7680    7.9310 C.3   203  0QY203      0.0717
     23  C23       21.6840    1.8220    8.9630 C.2   203  0QY203     -0.0198
     24  C24       22.7060    1.9290    9.9970 C.2   203  0QY203     -0.0042
     25  C25       23.8330    0.9730   10.0160 C.2   203  0QY203      0.0006
     26  C26       23.9160   -0.1270    8.9390 C.2   203  0QY203      0.0125
     27  N27       25.5050   -3.5780   10.7810 N.2   203  0QY203     -0.3450
@<TRIPOS>BOND
     1    20    19    1
     2    20    21    2
     3    19    18    2
     4    22    21    1
     5    22    23    1
     6    21    26    1
     7    18    26    1
     8    18    17    1
     9    26    25    2
    10    23    24    2
    11    17    16    1
    12    24    25    1
    13    27    16    2
    14    27    13    2
    15    16    15    2
    16    13    12    1
    17    13    14    1
    18    15    14    2
    19    12     9    1
    20    14    11    1
    21     1     2    2
    22     5     4    1
    23     5     6    1
    24     4     3    1
    25     9     8    1
    26     9    10    2
    27     2     8   am
    28     2     3    1
    29    11    10    1
    30     3     7    1
    31     6     7    1
