@<TRIPOS>MOLECULE
4eq0_III_P_1.pdb
 48 47 0 0 0
SMALL
GASTEIGER

@<TRIPOS>ATOM
      1  N         10.2800  -11.5400   18.6250 N.3     2  ALA2       -0.1231
      2  CA         9.9600  -10.1240   18.9290 C.3     2  ALA2        0.1694
      3  C          8.7810   -9.6420   18.0790 C.2     2  ALA2        0.2592
      4  O          8.6600   -9.9990   16.8860 O.2     2  ALA2       -0.2718
      5  CB        11.1820   -9.2460   18.6830 C.3     2  ALA2        0.0304
      6  N          7.8880   -8.8700   18.6990 N.am    3  THR3       -0.1966
      7  CA         6.8390   -8.1610   17.9630 C.3     3  THR3        0.1728
      8  C          7.2250   -6.6870   17.9020 C.2     3  THR3        0.2616
      9  O          7.3010   -6.0290   18.9360 O.2     3  THR3       -0.2715
     10  CB         5.4620   -8.3100   18.6600 C.3     3  THR3        0.0334
     11  N          7.4570   -6.1910   16.6810 N.am    4  ILE4       -0.1963
     12  CA         7.9030   -4.8220   16.3970 C.3     4  ILE4        0.1727
     13  C          6.8580   -4.0980   15.5390 C.2     4  ILE4        0.2616
     14  O          6.8330   -4.2200   14.3000 O.2     4  ILE4       -0.2715
     15  CB         9.2420   -4.8330   15.6490 C.3     4  ILE4        0.0290
     16  CG1       10.2890   -5.7070   16.3840 C.3     4  ILE4        0.0022
     17  CG2        9.7570   -3.4220   15.4490 C.3     4  ILE4        0.0023
     18  CD1       10.2040   -5.7110   17.8930 C.3     4  ILE4        0.0001
     19  N          5.9880   -3.3520   16.2080 N.am    5  MET5       -0.1963
     20  CA         4.8400   -2.7260   15.5730 C.3     5  MET5        0.1736
     21  C          5.1930   -1.2860   15.2140 C.2     5  MET5        0.2616
     22  O          5.1680   -0.4120   16.0570 O.2     5  MET5       -0.2715
     23  CB         3.6150   -2.7640   16.5160 C.3     5  MET5        0.0427
     24  CG         3.1690   -4.1630   16.9440 C.3     5  MET5        0.0599
     25  SD         2.8320   -5.2700   15.5530 S.3     5  MET5       -0.1393
     26  CE         1.3640   -4.4830   14.8890 C.3     5  MET5        0.0692
     27  N          5.5610   -1.0700   13.9610 N.am    6  MET6       -0.1963
     28  CA         5.7030    0.2710   13.3960 C.3     6  MET6        0.1736
     29  C          4.7050    0.3960   12.2510 C.2     6  MET6        0.2616
     30  O          4.4250   -0.5950   11.5640 O.2     6  MET6       -0.2715
     31  CB         7.1200    0.4670   12.8840 C.3     6  MET6        0.0427
     32  CG         7.6210    1.8900   12.9900 C.3     6  MET6        0.0599
     33  SD         8.7210    2.3020   11.6400 S.3     6  MET6       -0.1393
     34  CE         7.4710    2.6350   10.3900 C.3     6  MET6        0.0692
     35  N          4.1500    1.5900   12.0480 N.am    7  GLN7       -0.1963
     36  CA         3.2080    1.8240   10.9270 C.3     7  GLN7        0.1733
     37  C          3.2580    3.2770   10.4300 C.2     7  GLN7        0.2616
     38  O          3.1880    4.2190   11.2080 O.2     7  GLN7       -0.2715
     39  CB         1.7710    1.4390   11.3220 C.3     7  GLN7        0.0408
     40  CG         0.7160    1.6620   10.2300 C.3     7  GLN7        0.0908
     41  CD         0.0910    3.0550   10.2330 C.2     7  GLN7        0.2608
     42  OE1        0.1910    3.7990   11.2120 O.2     7  GLN7       -0.2717
     43  NE2       -0.5790    3.4130    9.1290 N.am    7  GLN7       -0.0878
     44  N          3.3800    3.4340    9.1100 N.am    8  ARG8       -0.1977
     45  CA         3.3950    4.7400    8.4810 C.3     8  ARG8        0.1597
     46  C          2.1450    4.9030    7.6080 C.2     8  ARG8        0.2287
     47  O          1.4770    5.9570    7.6440 O.2     8  ARG8       -0.2864
     48  CB         4.6540    4.8890    7.6240 C.3     8  ARG8        0.0319
@<TRIPOS>BOND
     1    46    47    2
     2    46    45    1
     3    48    45    1
     4    45    44    1
     5    44    37   am
     6    43    41   am
     7    40    41    1
     8    40    39    1
     9    41    42    2
    10    34    33    1
    11    37    36    1
    12    37    38    2
    13    36    39    1
    14    36    35    1
    15    30    29    2
    16    33    32    1
    17    35    29   am
    18    29    28    1
    19    31    32    1
    20    31    28    1
    21    28    27    1
    22    27    21   am
    23    14    13    2
    24    26    25    1
    25    21    20    1
    26    21    22    2
    27    17    15    1
    28    13    19   am
    29    13    12    1
    30    25    24    1
    31    20    19    1
    32    20    23    1
    33    15    16    1
    34    15    12    1
    35    16    18    1
    36    12    11    1
    37    23    24    1
    38    11     8   am
    39     4     3    2
    40     8     7    1
    41     8     9    2
    42     7    10    1
    43     7     6    1
    44     3     6   am
    45     3     2    1
    46     1     2    1
    47     5     2    1
