@<TRIPOS>MOLECULE
4eq4_AMP_A_1.pdb
 23 25 0 0 0
SMALL
GASTEIGER

@<TRIPOS>ATOM
      1  P         37.8680   13.4430   14.7800 P.3   602  AMP602      0.5327
      2  O1P       37.3670   14.2270   13.5750 O.2   602  AMP602     -0.2224
      3  O2P       38.9990   14.0300   15.6100 O.3   602  AMP602     -0.1145
      4  O3P       36.6500   13.1730   15.6420 O.3   602  AMP602     -0.1145
      5  O5'       38.2980   11.9830   14.3060 O.3   602  AMP602     -0.2675
      6  C5'       37.3840   11.1290   13.6590 C.3   602  AMP602      0.1860
      7  C4'       37.5250    9.7030   14.1250 C.3   602  AMP602      0.1823
      8  O4'       36.4870    8.9060   13.5270 O.3   602  AMP602     -0.3135
      9  C3'       38.8260    9.0030   13.7440 C.3   602  AMP602      0.2184
     10  O3'       39.8960    9.2860   14.6270 O.3   602  AMP602     -0.2174
     11  C2'       38.4150    7.5350   13.7190 C.3   602  AMP602      0.2570
     12  O2'       38.4110    6.9840   15.0280 O.3   602  AMP602     -0.2130
     13  C1'       36.9670    7.6250   13.2160 C.3   602  AMP602      0.3186
     14  N9        36.8910    7.4680   11.7600 N.pl3 602  AMP602     -0.1439
     15  C8        37.0870    8.4310   10.8360 C.3   602  AMP602      0.3377
     16  N7        36.9460    7.9290    9.5870 N.2   602  AMP602     -0.2095
     17  C5        36.6370    6.6240    9.7410 C.2   602  AMP602      0.2526
     18  C6        36.3490    5.5020    8.8300 C.2   602  AMP602      0.4393
     19  N6        36.3740    5.7100    7.4930 N.pl3 602  AMP602      0.2180
     20  N1        36.0900    4.3030    9.4020 N.2   602  AMP602      0.0021
     21  C2        36.0820    4.1190   10.7410 C.3   602  AMP602      0.5254
     22  N3        36.3360    5.0900   11.6270 N.2   602  AMP602     -0.0055
     23  C4        36.6030    6.3300   11.1740 C.2   602  AMP602      0.3518
@<TRIPOS>BOND
     1    19    18    1
     2    18    20    2
     3    18    17    1
     4    20    21    1
     5    16    17    2
     6    16    15    1
     7    17    23    1
     8    21    22    1
     9    15    14    1
    10    23    22    2
    11    23    14    1
    12    14    13    1
    13    13     8    1
    14    13    11    1
    15     8     7    1
    16     2     1    2
    17     6     7    1
    18     6     5    1
    19    11     9    1
    20    11    12    1
    21     9     7    1
    22     9    10    1
    23     5     1    1
    24     1     3    1
    25     1     4    1
