@<TRIPOS>MOLECULE
4eq5_AMP_A_1.pdb
 23 25 0 0 0
SMALL
GASTEIGER

@<TRIPOS>ATOM
      1  P        -29.3480   13.0450  -15.9400 P.3   601  AMP601      0.5327
      2  O1P      -29.7980   13.9770  -17.0400 O.2   601  AMP601     -0.2224
      3  O2P      -29.4900   13.5190  -14.5070 O.3   601  AMP601     -0.1145
      4  O3P      -27.9040   12.6600  -16.1940 O.3   601  AMP601     -0.1145
      5  O5'      -30.0730   11.6260  -16.1140 O.3   601  AMP601     -0.2675
      6  C5'      -30.5230   10.8800  -14.9850 C.3   601  AMP601      0.1860
      7  C4'      -29.3630   10.4160  -14.1350 C.3   601  AMP601      0.1823
      8  O4'      -29.8430    9.9310  -12.8610 O.3   601  AMP601     -0.3135
      9  C3'      -28.5630    9.2490  -14.6760 C.3   601  AMP601      0.2184
     10  O3'      -27.6430    9.6350  -15.6850 O.3   601  AMP601     -0.2174
     11  C2'      -27.8980    8.6660  -13.4240 C.3   601  AMP601      0.2570
     12  O2'      -26.6560    9.3110  -13.1650 O.3   601  AMP601     -0.2130
     13  C1'      -28.8860    9.0550  -12.3140 C.3   601  AMP601      0.3186
     14  N9       -29.5890    7.8860  -11.7450 N.pl3 601  AMP601     -0.1439
     15  C8       -29.2600    7.2910  -10.5860 C.3   601  AMP601      0.3377
     16  N7       -30.0930    6.2580  -10.3020 N.2   601  AMP601     -0.2095
     17  C5       -30.9960    6.1760  -11.2910 C.2   601  AMP601      0.2526
     18  C6       -32.1550    5.3010  -11.6010 C.2   601  AMP601      0.4393
     19  N6       -32.5220    4.2890  -10.7750 N.pl3 601  AMP601      0.2180
     20  N1       -32.8310    5.5550  -12.7450 N.2   601  AMP601      0.0021
     21  C2       -32.4740    6.5610  -13.5740 C.3   601  AMP601      0.5254
     22  N3       -31.4340    7.3930  -13.3530 N.2   601  AMP601     -0.0055
     23  C4       -30.6620    7.2560  -12.2440 C.2   601  AMP601      0.3518
@<TRIPOS>BOND
     1     2     1    2
     2     4     1    1
     3     5     1    1
     4     5     6    1
     5     1     3    1
     6    10     9    1
     7     6     7    1
     8     9     7    1
     9     9    11    1
    10     7     8    1
    11    21    22    1
    12    21    20    1
    13    11    12    1
    14    11    13    1
    15    22    23    2
    16     8    13    1
    17    20    18    2
    18    13    14    1
    19    23    14    1
    20    23    17    1
    21    14    15    1
    22    18    17    1
    23    18    19    1
    24    17    16    2
    25    15    16    1
