@<TRIPOS>MOLECULE
4eq9_GSH_A_1.pdb
 20 19 0 0 0
SMALL
GASTEIGER

@<TRIPOS>ATOM
      1  N1        32.3580   32.0610   59.5230 N.3   301  GSH301     -0.1208
      2  CA1       32.9300   32.7670   60.7010 C.3   301  GSH301      0.1948
      3  C1        33.9230   33.8080   60.2980 C.2   301  GSH301      0.3819
      4  O11       34.1620   33.9430   59.0750 O.co2 301  GSH301     -0.2441
      5  O12       34.4820   34.5110   61.1420 O.co2 301  GSH301     -0.2441
      6  CB1       33.6210   31.7920   61.6770 C.3   301  GSH301      0.0402
      7  CG1       34.9370   31.2160   61.1240 C.3   301  GSH301      0.0889
      8  CD1       35.3850   29.9910   61.9050 C.2   301  GSH301      0.2418
      9  OE1       34.7110   28.8950   61.8070 O.2   301  GSH301     -0.2733
     10  N2        36.4630   30.0780   62.6900 N.am  301  GSH301     -0.1968
     11  CA2       36.9760   28.9170   63.3550 C.3   301  GSH301      0.1843
     12  C2        36.1560   28.5530   64.5520 C.2   301  GSH301      0.2627
     13  O2        36.2370   27.2990   65.0290 O.2   301  GSH301     -0.2714
     14  CB2       38.4080   29.1570   63.7900 C.3   301  GSH301      0.0997
     15  SG2       38.6640   30.6270   64.8180 S.3   301  GSH301     -0.0797
     16  N3        35.3610   29.4680   65.1480 N.am  301  GSH301     -0.1917
     17  CA3       34.6640   29.1490   66.3760 C.3   301  GSH301      0.2285
     18  C3        33.8410   30.3330   66.8270 C.2   301  GSH301      0.3865
     19  O31       33.2830   30.1760   67.9400 O.co2 301  GSH301     -0.2437
     20  O32       33.8160   31.3660   66.0860 O.co2 301  GSH301     -0.2437
@<TRIPOS>BOND
     1     4     3   ar
     2     1     2    1
     3     3     2    1
     4     3     5   ar
     5     2     6    1
     6     7     6    1
     7     7     8    1
     8     9     8    2
     9     8    10   am
    10    10    11    1
    11    11    14    1
    12    11    12    1
    13    14    15    1
    14    12    13    2
    15    12    16   am
    16    16    17    1
    17    20    18   ar
    18    17    18    1
    19    18    19   ar
