@<TRIPOS>MOLECULE
4eqe_KAA_B_1.pdb
 28 30 0 0 0
SMALL
GASTEIGER

@<TRIPOS>ATOM
      1  CB        33.1870    8.2590   25.3640 C.3   202  KAA202      0.0305
      2  CA        33.4690    7.5040   24.0690 C.3   202  KAA202      0.1710
      3  N         33.3940    8.4160   22.9460 N.3   202  KAA202     -0.1230
      4  C         32.4560    6.4160   23.8850 C.2   202  KAA202      0.2798
      5  O         31.4120    6.6390   23.2960 O.2   202  KAA202     -0.2701
      6  N8        32.7680    5.2260   24.3870 N.am  202  KAA202     -0.0577
      7  S1        31.7620    3.9940   24.2290 S.3   202  KAA202      0.0852
      8  O1S       31.3790    3.8410   22.8600 O.3   202  KAA202     -0.0508
      9  O2S       32.3910    2.7980   24.7090 O.3   202  KAA202     -0.0508
     10  O5'       30.5120    4.2720   25.0630 O.3   202  KAA202     -0.2230
     11  C5'       30.5360    4.0180   26.4610 C.3   202  KAA202      0.2064
     12  C4'       29.4500    4.8650   27.0980 C.3   202  KAA202      0.1842
     13  O4'       29.1720    4.3770   28.4090 O.3   202  KAA202     -0.3135
     14  C3'       29.8890    6.3180   27.2340 C.3   202  KAA202      0.2185
     15  O3'       28.9140    7.1500   26.5940 O.3   202  KAA202     -0.2174
     16  C2'       29.8940    6.5850   28.7320 C.3   202  KAA202      0.2570
     17  O2'       29.3350    7.8670   29.0240 O.3   202  KAA202     -0.2130
     18  C1'       28.9940    5.4900   29.2770 C.3   202  KAA202      0.3186
     19  N9        29.3280    5.1220   30.6700 N.pl3 202  KAA202     -0.1439
     20  C8        30.5550    4.9160   31.1790 C.3   202  KAA202      0.3377
     21  N7        30.4800    4.5910   32.4940 N.2   202  KAA202     -0.2095
     22  C5        29.1790    4.5860   32.8380 C.2   202  KAA202      0.2526
     23  C4        28.4260    4.9350   31.6290 C.2   202  KAA202      0.3518
     24  N3        27.0770    5.0050   31.6900 N.2   202  KAA202     -0.0055
     25  C2        26.4320    4.7560   32.8410 C.3   202  KAA202      0.5254
     26  N1        27.0540    4.4290   33.9890 N.2   202  KAA202      0.0021
     27  C6        28.3990    4.3260   34.0670 C.2   202  KAA202      0.4393
     28  N6        29.0160    3.9970   35.2280 N.pl3 202  KAA202      0.2180
@<TRIPOS>BOND
     1     8     7    1
     2     3     2    1
     3     5     4    2
     4     4     2    1
     5     4     6   am
     6     2     1    1
     7     7     6    1
     8     7     9    1
     9     7    10    1
    10    10    11    1
    11    11    12    1
    12    15    14    1
    13    12    14    1
    14    12    13    1
    15    14    16    1
    16    13    18    1
    17    16    17    1
    18    16    18    1
    19    18    19    1
    20    19    20    1
    21    19    23    1
    22    20    21    1
    23    23    24    2
    24    23    22    1
    25    24    25    1
    26    21    22    2
    27    22    27    1
    28    25    26    1
    29    26    27    2
    30    27    28    1
