@<TRIPOS>MOLECULE
4eqf_III_B_1.pdb
 48 47 0 0 0
SMALL
GASTEIGER

@<TRIPOS>ATOM
      1  N        -40.2050   10.2180    1.0700 N.3     2  ARG2       -0.1231
      2  CA       -40.3310   11.0320   -0.1370 C.3     2  ARG2        0.1694
      3  C        -39.2900   12.1660   -0.1560 C.2     2  ARG2        0.2592
      4  O        -39.0790   12.8200   -1.1810 O.2     2  ARG2       -0.2718
      5  CB       -41.7640   11.5710   -0.2720 C.3     2  ARG2        0.0321
      6  CG       -42.0210   12.3640   -1.5370 C.3     2  ARG2        0.0489
      7  CD       -41.6140   11.5810   -2.7760 C.3     2  ARG2        0.2205
      8  NE       -41.1050   12.4550   -3.8320 N.pl3   2  ARG2       -0.0865
      9  CZ       -39.8180   12.7440   -4.0180 C.cat   2  ARG2        0.5346
     10  NH1      -38.8880   12.2310   -3.2230 N.pl3   2  ARG2        0.1354
     11  NH2      -39.4570   13.5460   -5.0080 N.pl3   2  ARG2        0.1354
     12  N        -38.6320   12.3740    0.9830 N.am    3  LEU3       -0.1966
     13  CA       -37.6550   13.4520    1.1490 C.3     3  LEU3        0.1728
     14  C        -36.2060   12.9660    1.1430 C.2     3  LEU3        0.2617
     15  O        -35.9360   11.7900    0.8880 O.2     3  LEU3       -0.2715
     16  CB       -37.9430   14.2280    2.4310 C.3     3  LEU3        0.0311
     17  CG       -39.2590   15.0100    2.4310 C.3     3  LEU3        0.0022
     18  CD1      -39.9930   14.8240    3.7480 C.3     3  LEU3        0.0001
     19  CD2      -39.0180   16.4900    2.1310 C.3     3  LEU3        0.0001
     20  N        -35.2800   13.8870    1.4030 N.am    4  SER4       -0.1936
     21  CA       -33.8440   13.5990    1.3760 C.3     4  SER4        0.2055
     22  C        -33.1290   14.3600    2.4910 C.2     4  SER4        0.2644
     23  O        -33.3580   15.5500    2.6740 O.2     4  SER4       -0.2714
     24  CB       -33.2660   13.9810    0.0100 C.3     4  SER4        0.2130
     25  OG       -31.8770   14.2230    0.0790 O.3     4  SER4       -0.2179
     26  N        -32.2640   13.6870    3.2370 N.am    5  SER5       -0.1935
     27  CA       -31.5790   14.3400    4.3520 C.3     5  SER5        0.2055
     28  C        -30.1910   14.8670    3.9500 C.2     5  SER5        0.2643
     29  O        -29.5420   14.2920    3.0740 O.2     5  SER5       -0.2714
     30  CB       -31.5190   13.4170    5.5760 C.3     5  SER5        0.2130
     31  OG       -32.8040   13.2440    6.1590 O.3     5  SER5       -0.2179
     32  N        -29.7670   15.9830    4.5520 N.am    6  ASN6       -0.1957
     33  CA       -28.4910   16.6370    4.2010 C.3     6  ASN6        0.1819
     34  C        -27.2880   16.2600    5.0800 C.2     6  ASN6        0.2622
     35  O        -27.3700   16.2710    6.3080 O.2     6  ASN6       -0.2715
     36  CB       -28.6360   18.1610    4.2130 C.3     6  ASN6        0.1195
     37  CG       -29.4450   18.6950    3.0480 C.2     6  ASN6        0.2630
     38  OD1      -29.2510   18.2970    1.8990 O.2     6  ASN6       -0.2716
     39  ND2      -30.3470   19.6220    3.3420 N.am    6  ASN6       -0.0877
     40  N        -26.1560   15.9710    4.4440 N.am    7  LEU7       -0.1941
     41  CA       -24.9680   15.5100    5.1630 C.3     7  LEU7        0.1978
     42  C        -24.0030   16.6420    5.4990 C.2     7  LEU7        0.3842
     43  O        -23.7250   17.5070    4.6710 O.co2   7  LEU7       -0.2437
     44  CB       -24.2410   14.4200    4.3550 C.3     7  LEU7        0.0333
     45  CG       -24.6450   12.9340    4.4750 C.3     7  LEU7        0.0023
     46  CD1      -26.1290   12.7350    4.2540 C.3     7  LEU7        0.0001
     47  CD2      -23.8540   12.0910    3.4950 C.3     7  LEU7        0.0001
     48  OXT      -23.4710   16.7120    6.6100 O.co2   7  LEU7       -0.2437
@<TRIPOS>BOND
     1    11     9    1
     2     9     8    2
     3     9    10    1
     4     8     7    1
     5     7     6    1
     6     6     5    1
     7     4     3    2
     8     5     2    1
     9     3     2    1
    10     3    12   am
    11     2     1    1
    12    24    25    1
    13    24    21    1
    14    15    14    2
    15    12    13    1
    16    14    13    1
    17    14    20   am
    18    13    16    1
    19    21    20    1
    20    21    22    1
    21    38    37    2
    22    19    17    1
    23    17    16    1
    24    17    18    1
    25    22    23    2
    26    22    26   am
    27    37    39   am
    28    37    36    1
    29    29    28    2
    30    26    27    1
    31    47    45    1
    32    28    27    1
    33    28    32   am
    34    33    36    1
    35    33    32    1
    36    33    34    1
    37    46    45    1
    38    27    30    1
    39    44    45    1
    40    44    41    1
    41    40    34   am
    42    40    41    1
    43    43    42   ar
    44    34    35    2
    45    41    42    1
    46    42    48   ar
    47    30    31    1
