@<TRIPOS>MOLECULE
4eqg_A5A_B_1.pdb
 28 30 0 0 0
SMALL
GASTEIGER

@<TRIPOS>ATOM
      1  N         33.2980    8.2700   22.8000 N.3   201  A5A201     -0.1230
      2  CA        33.3870    7.3840   23.9460 C.3   201  A5A201      0.1710
      3  CB        33.1630    8.1420   25.2570 C.3   201  A5A201      0.0305
      4  C         32.3490    6.3210   23.7800 C.2   201  A5A201      0.2798
      5  O         31.2950    6.5570   23.2020 O.2   201  A5A201     -0.2701
      6  N3S       32.6580    5.1360   24.2970 N.am  201  A5A201     -0.0577
      7  S         31.6630    3.8970   24.1570 S.3   201  A5A201      0.0852
      8  O1S       31.1820    3.7000   22.8280 O.3   201  A5A201     -0.0508
      9  O2S       32.2880    2.7010   24.6860 O.3   201  A5A201     -0.0508
     10  O5'       30.4470    4.2400   25.0360 O.3   201  A5A201     -0.2230
     11  C5'       30.4510    3.8740   26.4080 C.3   201  A5A201      0.2064
     12  C4'       29.3920    4.7300   27.0750 C.3   201  A5A201      0.1842
     13  O4'       29.2550    4.2490   28.4070 O.3   201  A5A201     -0.3135
     14  C3'       29.7760    6.2080   27.1570 C.3   201  A5A201      0.2185
     15  O3'       28.7780    7.0060   26.4890 O.3   201  A5A201     -0.2174
     16  C2'       29.8720    6.4790   28.6580 C.3   201  A5A201      0.2570
     17  O2'       29.3930    7.7580   29.0800 O.3   201  A5A201     -0.2130
     18  C1'       29.0040    5.3750   29.2310 C.3   201  A5A201      0.3186
     19  N9        29.3280    5.0250   30.6230 N.pl3 201  A5A201     -0.1439
     20  C8        30.5440    4.8090   31.1490 C.3   201  A5A201      0.3377
     21  N7        30.4350    4.4970   32.4640 N.2   201  A5A201     -0.2095
     22  C5        29.1210    4.5030   32.7700 C.2   201  A5A201      0.2526
     23  C6        28.3200    4.2560   33.9780 C.2   201  A5A201      0.4393
     24  N6        28.9380    3.9300   35.1420 N.pl3 201  A5A201      0.2180
     25  N1        26.9760    4.3700   33.8650 N.2   201  A5A201      0.0021
     26  C2        26.3690    4.6950   32.6950 C.3   201  A5A201      0.5254
     27  N3        27.0470    4.9340   31.5530 N.2   201  A5A201     -0.0055
     28  C4        28.3950    4.8460   31.5490 C.2   201  A5A201      0.3518
@<TRIPOS>BOND
     1     1     2    1
     2     8     7    1
     3     5     4    2
     4     4     2    1
     5     4     6   am
     6     2     3    1
     7     7     6    1
     8     7     9    1
     9     7    10    1
    10    10    11    1
    11    11    12    1
    12    15    14    1
    13    12    14    1
    14    12    13    1
    15    14    16    1
    16    13    18    1
    17    16    17    1
    18    16    18    1
    19    18    19    1
    20    19    20    1
    21    19    28    1
    22    20    21    1
    23    28    27    2
    24    28    22    1
    25    27    26    1
    26    21    22    2
    27    26    25    1
    28    22    23    1
    29    25    23    2
    30    23    24    1
