@<TRIPOS>MOLECULE
4eqh_WSA_B_1.pdb
 28 30 0 0 0
SMALL
GASTEIGER

@<TRIPOS>ATOM
      1  CB        33.2430    8.3440   25.2060 C.3   201  WSA201      0.0305
      2  CA        33.6340    7.5530   23.9630 C.3   201  WSA201      0.1710
      3  NH3       33.6760    8.4110   22.7960 N.3   201  WSA201     -0.1230
      4  C         32.6150    6.4840   23.7280 C.2   201  WSA201      0.2798
      5  O         31.5920    6.7220   23.1060 O.2   201  WSA201     -0.2701
      6  NS        32.9030    5.2990   24.2560 N.am  201  WSA201     -0.0577
      7  S         31.9220    4.0430   24.0890 S.3   201  WSA201      0.0852
      8  O1S       32.5820    2.8550   24.5730 O.3   201  WSA201     -0.0508
      9  O2S       31.4790    3.8710   22.7470 O.3   201  WSA201     -0.0508
     10  O5'       30.6970    4.3490   24.9570 O.3   201  WSA201     -0.2230
     11  C5'       30.7220    4.0430   26.3440 C.3   201  WSA201      0.2064
     12  C4'       29.5970    4.8540   26.9570 C.3   201  WSA201      0.1842
     13  O4'       29.3360    4.3620   28.2670 O.3   201  WSA201     -0.3135
     14  C3'       29.9440    6.3330   27.0610 C.3   201  WSA201      0.2185
     15  O3'       28.9100    7.0850   26.3980 O.3   201  WSA201     -0.2174
     16  C2'       30.0150    6.5860   28.5630 C.3   201  WSA201      0.2570
     17  O2'       29.5290    7.8610   28.9860 O.3   201  WSA201     -0.2130
     18  C1'       29.1450    5.4740   29.1270 C.3   201  WSA201      0.3186
     19  N9        29.5010    5.1130   30.5130 N.pl3 201  WSA201     -0.1439
     20  C8        30.7270    4.8670   31.0130 C.3   201  WSA201      0.3377
     21  N7        30.6470    4.5630   32.3350 N.2   201  WSA201     -0.2095
     22  C5        29.3440    4.6060   32.6820 C.2   201  WSA201      0.2526
     23  C4        28.5950    4.9650   31.4730 C.2   201  WSA201      0.3518
     24  N3        27.2490    5.0860   31.5270 N.2   201  WSA201     -0.0055
     25  C2        26.5940    4.8690   32.6870 C.3   201  WSA201      0.5254
     26  N1        27.2160    4.5360   33.8420 N.2   201  WSA201      0.0021
     27  C6        28.5620    4.3880   33.9170 C.2   201  WSA201      0.4393
     28  N6        29.1930    4.0540   35.0750 N.pl3 201  WSA201      0.2180
@<TRIPOS>BOND
     1     9     7    1
     2     3     2    1
     3     5     4    2
     4     4     2    1
     5     4     6   am
     6     2     1    1
     7     7     6    1
     8     7     8    1
     9     7    10    1
    10    10    11    1
    11    11    12    1
    12    15    14    1
    13    12    14    1
    14    12    13    1
    15    14    16    1
    16    13    18    1
    17    16    17    1
    18    16    18    1
    19    18    19    1
    20    19    20    1
    21    19    23    1
    22    20    21    1
    23    23    24    2
    24    23    22    1
    25    24    25    1
    26    21    22    2
    27    22    27    1
    28    25    26    1
    29    26    27    2
    30    27    28    1
