@<TRIPOS>MOLECULE
4eqj_III_G_1.pdb
 47 48 0 0 0
SMALL
GASTEIGER

@<TRIPOS>ATOM
      1  N          2.4970    4.6270    8.1240 N.3     3  GLU3       -0.1231
      2  CA         3.6550    4.0680    8.8930 C.3     3  GLU3        0.1694
      3  C          3.1870    3.5500   10.2360 C.2     3  GLU3        0.2593
      4  O          3.0600    4.3030   11.1900 O.2     3  GLU3       -0.2718
      5  CB         4.7360    5.1180    9.1340 C.3     3  GLU3        0.0304
      6  N          2.9870    2.2450   10.3080 N.am    4  THR4       -0.1939
      7  CA         2.6410    1.5930   11.5590 C.3     4  THR4        0.2028
      8  C          3.7490    0.6680   12.0750 C.2     4  THR4        0.2642
      9  O          3.7190   -0.5460   11.8260 O.2     4  THR4       -0.2714
     10  CB         1.3950    0.7350   11.3820 C.3     4  THR4        0.1808
     11  OG1        0.3440    1.5340   10.8170 O.3     4  THR4       -0.2208
     12  CG2        0.9900    0.1580   12.7160 C.3     4  THR4        0.0379
     13  N          4.7060    1.2230   12.8130 N.am    5  PHE5       -0.1959
     14  CA         5.8790    0.4340   13.2080 C.3     5  PHE5        0.1771
     15  C          5.7080   -0.2020   14.5720 C.2     5  PHE5        0.2620
     16  O          5.0670    0.3330   15.4780 O.2     5  PHE5       -0.2715
     17  CB         7.1650    1.2430   13.1420 C.3     5  PHE5        0.0574
     18  CG         7.3800    1.8950   11.8160 C.ar    5  PHE5       -0.0200
     19  CD1        7.6560    1.1310   10.6830 C.ar    5  PHE5       -0.0042
     20  CD2        7.2290    3.2620   11.6750 C.ar    5  PHE5       -0.0042
     21  CE1        7.8200    1.7340    9.4430 C.ar    5  PHE5       -0.0003
     22  CE2        7.3950    3.8700   10.4400 C.ar    5  PHE5       -0.0003
     23  CZ         7.6880    3.1050    9.3240 C.ar    5  PHE5       -0.0000
     24  N          6.2880   -1.3720   14.6900 N.am    6  TYR6       -0.1960
     25  CA         5.8090   -2.3430   15.6350 C.3     6  TYR6        0.1771
     26  C          6.5470   -3.6270   15.3030 C.2     6  TYR6        0.2619
     27  O          6.6060   -4.0670   14.1460 O.2     6  TYR6       -0.2715
     28  CB         4.2870   -2.5340   15.5190 C.3     6  TYR6        0.0574
     29  CG         3.8410   -3.9190   15.9210 C.ar    6  TYR6       -0.0198
     30  CD1        3.7390   -4.2740   17.2590 C.ar    6  TYR6       -0.0009
     31  CD2        3.6000   -4.8940   14.9650 C.ar    6  TYR6       -0.0009
     32  CE1        3.3910   -5.5550   17.6330 C.ar    6  TYR6        0.0417
     33  CE2        3.2450   -6.1760   15.3270 C.ar    6  TYR6        0.0417
     34  CZ         3.1430   -6.5030   16.6610 C.ar    6  TYR6        0.1957
     35  OH         2.7950   -7.7840   17.0200 O.3     6  TYR6       -0.2866
     36  N          7.1360   -4.1940   16.3410 N.am    7  VAL7       -0.1963
     37  CA         8.0850   -5.2600   16.2130 C.3     7  VAL7        0.1727
     38  C          7.9050   -6.1840   17.4100 C.2     7  VAL7        0.2616
     39  O          8.4170   -5.9030   18.4930 O.2     7  VAL7       -0.2715
     40  CB         9.5170   -4.7110   16.2650 C.3     7  VAL7        0.0290
     41  CG1       10.4890   -5.8360   16.5840 C.3     7  VAL7        0.0023
     42  CG2        9.8740   -3.9910   14.9680 C.3     7  VAL7        0.0023
     43  N          7.1710   -7.2720   17.2080 N.am    8  ASP8       -0.1977
     44  CA         6.9500   -8.2810   18.2440 C.3     8  ASP8        0.1597
     45  C          8.0010   -9.3920   18.1870 C.2     8  ASP8        0.2287
     46  O          8.4000   -9.8180   17.1060 O.2     8  ASP8       -0.2864
     47  CB         5.5480   -8.8880   18.0880 C.3     8  ASP8        0.0319
@<TRIPOS>BOND
     1     1     2    1
     2     2     5    1
     3     2     3    1
     4    23    21   ar
     5    23    22   ar
     6    21    19   ar
     7     3     6   am
     8     3     4    2
     9     6     7    1
    10    22    20   ar
    11    19    18   ar
    12    11    10    1
    13    10     7    1
    14    10    12    1
    15     7     8    1
    16    20    18   ar
    17    18    17    1
    18     9     8    2
    19     8    13   am
    20    13    14    1
    21    17    14    1
    22    14    15    1
    23    27    26    2
    24    15    24   am
    25    15    16    2
    26    24    25    1
    27    31    33   ar
    28    31    29   ar
    29    42    40    1
    30    26    25    1
    31    26    36   am
    32    33    34   ar
    33    28    25    1
    34    28    29    1
    35    29    30   ar
    36    37    40    1
    37    37    36    1
    38    37    38    1
    39    40    41    1
    40    34    35    1
    41    34    32   ar
    42    46    45    2
    43    43    38   am
    44    43    44    1
    45    30    32   ar
    46    38    39    2
    47    47    44    1
    48    45    44    1
