@<TRIPOS>MOLECULE
4eqk_MGT_A_1.pdb
 33 35 0 0 0
SMALL
GASTEIGER

@<TRIPOS>ATOM
      1  PG         8.6590   24.8170   12.7290 P.3   502  MGT502      0.5373
      2  O1G        7.6520   24.2450   11.7310 O.2   502  MGT502     -0.2221
      3  O2G        8.8680   26.3260   12.7480 O.3   502  MGT502     -0.1143
      4  O3G        9.9780   24.0490   12.7340 O.3   502  MGT502     -0.1143
      5  O3B        7.8380   24.5780   14.1180 O.3   502  MGT502     -0.2258
      6  PB         7.6000   23.1130   14.7400 P.3   502  MGT502      0.2277
      7  O1B        6.5900   22.2650   13.9540 O.2   502  MGT502     -0.5168
      8  O2B        7.3150   23.2980   16.2150 O.3   502  MGT502     -0.4368
      9  O3A        9.1270   22.6450   14.4100 O.3   502  MGT502     -0.2700
     10  PA        10.0990   21.5710   15.1650 P.3   502  MGT502      0.2189
     11  O1A       10.5350   20.6610   14.0490 O.2   502  MGT502     -0.5170
     12  O2A        9.4550   21.1240   16.4840 O.3   502  MGT502     -0.4371
     13  O5'       11.4250   22.4570   15.5230 O.3   502  MGT502     -0.3112
     14  C5'       11.8000   22.7330   16.8710 C.3   502  MGT502      0.1813
     15  C4'       12.1170   24.2200   17.0450 C.3   502  MGT502      0.1799
     16  O4'       13.3800   24.4700   16.4500 O.3   502  MGT502     -0.3326
     17  C3'       11.1390   25.1870   16.3710 C.3   502  MGT502      0.2158
     18  O3'       10.9200   26.1830   17.3660 O.3   502  MGT502     -0.2175
     19  C2'       11.9090   25.7860   15.1970 C.3   502  MGT502      0.2310
     20  O2'       11.6210   27.1490   14.8970 O.3   502  MGT502     -0.2158
     21  C1'       13.2800   25.7460   15.8310 C.3   502  MGT502      0.2287
     22  N9        14.3470   25.9470   14.8490 N.pl3 502  MGT502     -0.2454
     23  C8        14.5730   24.8780   13.8970 C.3   502  MGT502      0.1735
     24  N7        15.6410   25.5780   13.2200 N.3   502  MGT502     -0.2343
     25  CM7       16.2300   24.8160   12.1040 C.3   502  MGT502      0.0924
     26  C5        15.9230   26.7720   13.7090 C.3   502  MGT502      0.2475
     27  C6        16.8990   27.7770   13.3520 C.1   502  MGT502      0.2145
     28  O6        17.6760   27.5300   12.4010 O.2   502  MGT502     -0.2115
     29  N1        16.8950   28.9120   14.1080 N.2   502  MGT502     -0.2526
     30  C2        16.0500   29.1300   15.1440 C.1   502  MGT502      0.2525
     31  N2        16.1220   30.2880   15.8290 N.pl3 502  MGT502     -0.0226
     32  N3        15.1250   28.2070   15.5100 N.2   502  MGT502     -0.3118
     33  C4        15.0360   27.0500   14.8110 C.2   502  MGT502      0.2086
@<TRIPOS>BOND
     1     2     1    2
     2    25    24    1
     3    28    27    2
     4     1     4    1
     5     1     3    1
     6     1     5    1
     7    24    26    1
     8    24    23    1
     9    27    26    1
    10    27    29    2
    11    26    33    1
    12    23    22    1
    13     7     6    2
    14    11    10    2
    15    29    30    2
    16     5     6    1
    17     9     6    1
    18     9    10    1
    19     6     8    1
    20    33    22    1
    21    33    32    2
    22    22    21    1
    23    20    19    1
    24    30    32    2
    25    30    31    1
    26    10    13    1
    27    10    12    1
    28    19    21    1
    29    19    17    1
    30    13    14    1
    31    21    16    1
    32    17    15    1
    33    17    18    1
    34    16    15    1
    35    14    15    1
