@<TRIPOS>MOLECULE
4eql_AMP_A_1.pdb
 23 25 0 0 0
SMALL
GASTEIGER

@<TRIPOS>ATOM
      1  P         38.2220   13.4270   14.7240 P.3   601  AMP601      0.5327
      2  O1P       37.8100   14.3010   13.5580 O.2   601  AMP601     -0.2224
      3  O2P       39.4750   13.7800   15.4830 O.3   601  AMP601     -0.1145
      4  O3P       37.0400   13.3460   15.6500 O.3   601  AMP601     -0.1145
      5  O5'       38.2860   11.8970   14.2590 O.3   601  AMP601     -0.2675
      6  C5'       37.2510   11.0190   14.6480 C.3   601  AMP601      0.1860
      7  C4'       37.6170    9.5540   14.5620 C.3   601  AMP601      0.1823
      8  O4'       36.6360    8.8740   13.7500 O.3   601  AMP601     -0.3135
      9  C3'       38.9140    9.1480   13.8840 C.3   601  AMP601      0.2184
     10  O3'       40.0820    9.4390   14.6260 O.3   601  AMP601     -0.2174
     11  C2'       38.6640    7.6550   13.7300 C.3   601  AMP601      0.2570
     12  O2'       38.7440    7.0070   14.9970 O.3   601  AMP601     -0.2130
     13  C1'       37.1950    7.6640   13.2950 C.3   601  AMP601      0.3186
     14  N9        37.0820    7.5980   11.8340 N.pl3 601  AMP601     -0.1439
     15  C8        37.3350    8.5380   10.8990 C.3   601  AMP601      0.3377
     16  N7        37.1980    8.0130    9.6500 N.2   601  AMP601     -0.2095
     17  C5        36.8780    6.7020    9.8200 C.2   601  AMP601      0.2526
     18  C6        36.5970    5.5420    8.9670 C.2   601  AMP601      0.4393
     19  N6        36.6270    5.6520    7.6260 N.pl3 601  AMP601      0.2180
     20  N1        36.3220    4.3600    9.5680 N.2   601  AMP601      0.0021
     21  C2        36.3020    4.2050   10.9020 C.3   601  AMP601      0.5254
     22  N3        36.5460    5.2150   11.7510 N.2   601  AMP601     -0.0055
     23  C4        36.8310    6.4440   11.2580 C.2   601  AMP601      0.3518
@<TRIPOS>BOND
     1    19    18    1
     2    18    20    2
     3    18    17    1
     4    20    21    1
     5    16    17    2
     6    16    15    1
     7    17    23    1
     8    15    14    1
     9    21    22    1
    10    23    22    2
    11    23    14    1
    12    14    13    1
    13    13    11    1
    14    13     8    1
    15     2     1    2
    16    11     9    1
    17    11    12    1
    18     8     7    1
    19     9     7    1
    20     9    10    1
    21     5     6    1
    22     5     1    1
    23     7     6    1
    24     1     3    1
    25     1     4    1
