@<TRIPOS>MOLECULE
4eqn_THP_A_1.pdb
 25 26 0 0 0
SMALL
GASTEIGER

@<TRIPOS>ATOM
      1  P2        -2.5430  -16.7770  -14.3980 P.3   202  THP202      0.5327
      2  O4P       -1.3400  -17.7750  -14.0870 O.2   202  THP202     -0.2224
      3  O5P       -2.3020  -15.4650  -13.7980 O.3   202  THP202     -0.1145
      4  O6P       -3.8870  -17.4210  -13.8070 O.3   202  THP202     -0.1145
      5  P1        -6.4490  -19.0540  -19.4210 P.3   202  THP202      0.5326
      6  O1P       -7.5070  -18.4790  -20.3150 O.2   202  THP202     -0.2224
      7  O2P       -6.7900  -19.2100  -17.9070 O.3   202  THP202     -0.1145
      8  O3P       -5.9140  -20.3310  -20.0890 O.3   202  THP202     -0.1145
      9  O5'       -2.6570  -16.5130  -15.9500 O.3   202  THP202     -0.2675
     10  C5'       -2.9370  -17.6750  -16.7330 C.3   202  THP202      0.1857
     11  C4'       -3.8040  -17.1620  -17.8720 C.3   202  THP202      0.1748
     12  O4'       -3.0930  -16.0460  -18.5070 O.3   202  THP202     -0.3340
     13  C3'       -4.0370  -18.2680  -18.9440 C.3   202  THP202      0.1600
     14  O3'       -5.2990  -17.9340  -19.5210 O.3   202  THP202     -0.2700
     15  C2'       -2.9560  -17.8500  -19.9750 C.3   202  THP202      0.0847
     16  C1'       -2.9540  -16.3070  -19.8820 C.3   202  THP202      0.2089
     17  N1        -1.5880  -15.8660  -20.2600 N.am  202  THP202     -0.1794
     18  C2        -1.3430  -15.5380  -21.5250 C.1   202  THP202      0.2844
     19  O2        -2.2960  -15.4700  -22.3600 O.2   202  THP202     -0.1918
     20  N3        -0.1010  -15.2200  -21.9460 N.2   202  THP202     -0.2455
     21  C4         0.9470  -15.2270  -21.0580 C.1   202  THP202      0.2134
     22  O4         2.0810  -14.9450  -21.4920 O.2   202  THP202     -0.2088
     23  C5         0.6810  -15.5650  -19.6950 C.2   202  THP202      0.0891
     24  C5M        1.8060  -15.5790  -18.6910 C.3   202  THP202      0.0462
     25  C6        -0.5910  -15.9010  -19.2960 C.2   202  THP202      0.0877
@<TRIPOS>BOND
     1    19    18    2
     2    20    18    2
     3    20    21    2
     4    18    17   am
     5    22    21    2
     6    21    23    1
     7     6     5    2
     8    17    16    1
     9    17    25    1
    10     8     5    1
    11    15    16    1
    12    15    13    1
    13    16    12    1
    14    23    25    2
    15    23    24    1
    16    14     5    1
    17    14    13    1
    18     5     7    1
    19    13    11    1
    20    12    11    1
    21    11    10    1
    22    10     9    1
    23     9     1    1
    24     1     2    2
    25     1     4    1
    26     1     3    1
