@<TRIPOS>MOLECULE
4eqo_THP_A_1.pdb
 25 26 0 0 0
SMALL
GASTEIGER

@<TRIPOS>ATOM
      1  P2       -13.1720   -4.3900    4.6730 P.3   202  THP202      0.5327
      2  O4P      -13.1790   -5.8640    5.0750 O.2   202  THP202     -0.2224
      3  O5P      -14.4140   -3.5990    5.2370 O.3   202  THP202     -0.1145
      4  O6P      -11.8900   -3.5850    5.2500 O.3   202  THP202     -0.1145
      5  P1        -9.9650   -0.9100    0.7860 P.3   202  THP202      0.5326
      6  O1P       -8.9640   -0.2890   -0.1750 O.2   202  THP202     -0.2224
      7  O2P       -9.2900   -2.0120    1.7220 O.3   202  THP202     -0.1145
      8  O3P      -10.5670   -0.0050    1.9000 O.3   202  THP202     -0.1145
      9  O5'      -13.2270   -4.3550    3.0810 O.3   202  THP202     -0.2675
     10  C5'      -13.1540   -3.0370    2.5390 C.3   202  THP202      0.1857
     11  C4'      -12.2730   -3.1810    1.2720 C.3   202  THP202      0.1748
     12  O4'      -12.6950   -4.3270    0.5500 O.3   202  THP202     -0.3340
     13  C3'      -12.2680   -1.8750    0.3900 C.3   202  THP202      0.1600
     14  O3'      -10.9540   -1.6370   -0.2080 O.3   202  THP202     -0.2700
     15  C2'      -13.1940   -2.4140   -0.7270 C.3   202  THP202      0.0847
     16  C1'      -12.9860   -3.9690   -0.7890 C.3   202  THP202      0.2089
     17  N1       -14.3030   -4.5640   -1.1670 N.am  202  THP202     -0.1794
     18  C2       -14.6180   -4.7810   -2.5040 C.1   202  THP202      0.2844
     19  O2       -13.8050   -4.4650   -3.3960 O.2   202  THP202     -0.1918
     20  N3       -15.8240   -5.2220   -2.9160 N.2   202  THP202     -0.2455
     21  C4       -16.7950   -5.5510   -2.0100 C.1   202  THP202      0.2134
     22  O4       -17.8380   -5.9540   -2.4510 O.2   202  THP202     -0.2088
     23  C5       -16.5100   -5.3230   -0.6380 C.2   202  THP202      0.0891
     24  C5M      -17.4980   -5.6500    0.4730 C.3   202  THP202      0.0462
     25  C6       -15.2800   -4.8590   -0.2660 C.2   202  THP202      0.0877
@<TRIPOS>BOND
     1    19    18    2
     2    20    18    2
     3    20    21    2
     4    18    17   am
     5    22    21    2
     6    21    23    1
     7    17    16    1
     8    17    25    1
     9    16    15    1
    10    16    12    1
    11    15    13    1
    12    23    25    2
    13    23    24    1
    14    14    13    1
    15    14     5    1
    16     6     5    2
    17    13    11    1
    18    12    11    1
    19     5     7    1
    20     5     8    1
    21    11    10    1
    22    10     9    1
    23     9     1    1
    24     1     2    2
    25     1     3    1
    26     1     4    1
