@<TRIPOS>MOLECULE
4eqp_THP_A_1.pdb
 25 26 0 0 0
SMALL
GASTEIGER

@<TRIPOS>ATOM
      1  P2        17.9770  -27.9600    4.9370 P.3   202  THP202      0.5327
      2  O4P       17.9740  -29.4190    5.1500 O.2   202  THP202     -0.2224
      3  O5P       16.7000  -27.2630    5.4330 O.3   202  THP202     -0.1145
      4  O6P       19.2580  -27.2320    5.4650 O.3   202  THP202     -0.1145
      5  P1        21.2040  -24.4340    1.0830 P.3   202  THP202      0.5326
      6  O1P       22.1990  -23.8310    0.1960 O.2   202  THP202     -0.2224
      7  O2P       21.8610  -25.6230    1.8570 O.3   202  THP202     -0.1145
      8  O3P       20.5400  -23.5050    2.0350 O.3   202  THP202     -0.1145
      9  O5'       17.9890  -27.8880    3.4020 O.3   202  THP202     -0.2675
     10  C5'       17.9410  -26.6130    2.7050 C.3   202  THP202      0.1857
     11  C4'       18.8740  -26.6780    1.4800 C.3   202  THP202      0.1748
     12  O4'       18.4350  -27.7950    0.6340 O.3   202  THP202     -0.3340
     13  C3'       18.7480  -25.4390    0.6090 C.3   202  THP202      0.1600
     14  O3'       20.0810  -25.0930    0.1030 O.3   202  THP202     -0.2700
     15  C2'       17.8780  -25.8520   -0.5810 C.3   202  THP202      0.0847
     16  C1'       18.1120  -27.3720   -0.6640 C.3   202  THP202      0.2089
     17  N1        16.8540  -28.0690   -1.0720 N.am  202  THP202     -0.1794
     18  C2        16.6050  -28.1930   -2.3790 C.1   202  THP202      0.2844
     19  O2        17.4680  -27.9080   -3.2550 O.2   202  THP202     -0.1918
     20  N3        15.4380  -28.7320   -2.8000 N.2   202  THP202     -0.2455
     21  C4        14.4270  -29.0610   -1.9390 C.1   202  THP202      0.2134
     22  O4        13.3350  -29.4390   -2.3470 O.2   202  THP202     -0.2088
     23  C5        14.6540  -28.8610   -0.5530 C.2   202  THP202      0.0891
     24  C5M       13.6460  -29.2170    0.5120 C.3   202  THP202      0.0462
     25  C6        15.8820  -28.3810   -0.1580 C.2   202  THP202      0.0877
@<TRIPOS>BOND
     1    19    18    2
     2    20    18    2
     3    20    21    2
     4    18    17   am
     5    22    21    2
     6    21    23    1
     7    17    16    1
     8    17    25    1
     9    16    15    1
    10    16    12    1
    11    15    13    1
    12    23    25    2
    13    23    24    1
    14    14    13    1
    15    14     5    1
    16     6     5    2
    17    13    11    1
    18    12    11    1
    19     5     7    1
    20     5     8    1
    21    11    10    1
    22    10     9    1
    23     9     1    1
    24     1     2    2
    25     1     3    1
    26     1     4    1
