@<TRIPOS>MOLECULE
4eqr_COA_A_1.pdb
 48 50 0 0 0
SMALL
GASTEIGER

@<TRIPOS>ATOM
      1  N1A       25.9720   -6.4680    1.7620 N.2   505  COA505      0.0021
      2  C2A       26.8810   -6.3250    2.7930 C.3   505  COA505      0.5254
      3  N3A       27.8230   -5.2570    2.7680 N.2   505  COA505     -0.0055
      4  C4A       27.8300   -4.3700    1.6810 C.2   505  COA505      0.3518
      5  C5A       26.8960   -4.5180    0.6170 C.2   505  COA505      0.2526
      6  C6A       25.9730   -5.5560    0.6500 C.2   505  COA505      0.4393
      7  N6A       24.9990   -5.7190   -0.4130 N.pl3 505  COA505      0.2180
      8  N7A       27.1380   -3.4590   -0.3390 N.2   505  COA505     -0.2095
      9  C8A       28.1830   -2.6870    0.1280 C.3   505  COA505      0.3377
     10  N9A       28.6280   -3.2640    1.3950 N.pl3 505  COA505     -0.1439
     11  C1B       29.7150   -2.7350    2.2560 C.3   505  COA505      0.3185
     12  C2B       31.0620   -3.1950    1.7800 C.3   505  COA505      0.2543
     13  O2B       31.4260   -4.5080    2.0960 O.3   505  COA505     -0.2131
     14  C3B       31.9220   -2.1280    2.3580 C.3   505  COA505      0.1928
     15  O3B       32.2080   -2.2550    3.7420 O.3   505  COA505     -0.2673
     16  P3B       33.7570   -1.9740    4.2570 P.3   505  COA505      0.5327
     17  O7A       33.9650   -2.6820    5.7370 O.3   505  COA505     -0.1145
     18  O8A       33.9900   -0.3380    4.3440 O.3   505  COA505     -0.1145
     19  O9A       34.6820   -2.5590    3.2900 O.2   505  COA505     -0.2224
     20  C4B       31.1420   -0.8510    1.9560 C.3   505  COA505      0.1795
     21  O4B       29.7110   -1.2780    2.1450 O.3   505  COA505     -0.3136
     22  C5B       31.4700   -0.3380    0.5450 C.3   505  COA505      0.1812
     23  O5B       31.5590   -1.3430   -0.4480 O.3   505  COA505     -0.3112
     24  P1A       31.3570   -0.8730   -2.0270 P.3   505  COA505      0.2189
     25  O1A       32.5160    0.2350   -2.4250 O.3   505  COA505     -0.4371
     26  O2A       31.3980   -2.0540   -2.8880 O.2   505  COA505     -0.5170
     27  O3A       29.8940   -0.1070   -2.0980 O.3   505  COA505     -0.2703
     28  P2A       28.8620   -0.2070   -3.4010 P.3   505  COA505      0.2188
     29  O4A       27.4800    0.4700   -2.8460 O.3   505  COA505     -0.4371
     30  O5A       28.6420   -1.5770   -3.8790 O.2   505  COA505     -0.5170
     31  O6A       29.4870    0.7290   -4.6270 O.3   505  COA505     -0.3138
     32  CBP       30.7080    2.7380   -5.4710 C.3   505  COA505      0.0646
     33  CCP       30.4750    1.7010   -4.3400 C.3   505  COA505      0.1519
     34  CDP       31.3550    3.9920   -4.8840 C.3   505  COA505      0.0056
     35  CEP       31.6180    2.1170   -6.5580 C.3   505  COA505      0.0056
     36  CAP       29.3280    3.1240   -6.0940 C.3   505  COA505      0.2315
     37  OAP       28.3080    3.2640   -5.1370 O.3   505  COA505     -0.2131
     38  C9P       29.4730    4.3910   -6.9630 C.2   505  COA505      0.2758
     39  O9P       30.1950    4.4180   -7.9010 O.2   505  COA505     -0.2702
     40  N8P       28.7520    5.5880   -6.5430 N.am  505  COA505     -0.1800
     41  C7P       28.8880    6.8370   -7.2920 C.2   505  COA505      0.0720
     42  C6P       28.2800    8.0820   -6.6240 C.3   505  COA505      0.1309
     43  C5P       27.0640    7.7900   -5.7290 C.2   505  COA505      0.2473
     44  O5P       26.8010    6.6940   -5.3410 O.2   505  COA505     -0.2729
     45  N4P       26.1170    8.8590   -5.5010 N.am  505  COA505     -0.2041
     46  C3P       25.1980    8.7660   -4.3560 C.3   505  COA505      0.1276
     47  C2P       24.9010   10.1720   -3.8300 C.3   505  COA505      0.0920
     48  S1P       24.7930   11.2850   -5.2590 S.3   505  COA505     -0.0802
@<TRIPOS>BOND
     1    39    38    2
     2    41    42    1
     3    41    40    2
     4    38    40    1
     5    38    36    1
     6    42    43    1
     7    35    32    1
     8    36    32    1
     9    36    37    1
    10    43    45   am
    11    43    44    2
    12    45    46    1
    13    32    34    1
    14    32    33    1
    15    48    47    1
    16    31    33    1
    17    31    28    1
    18    46    47    1
    19    30    28    2
    20    28    29    1
    21    28    27    1
    22    26    24    2
    23    25    24    1
    24    27    24    1
    25    24    23    1
    26    23    22    1
    27     7     6    1
    28     8     9    1
    29     8     5    2
    30     9    10    1
    31    22    20    1
    32     5     6    1
    33     5     4    1
    34     6     1    2
    35    10     4    1
    36    10    11    1
    37     4     3    2
    38     1     2    1
    39    12    13    1
    40    12    11    1
    41    12    14    1
    42    20    21    1
    43    20    14    1
    44    21    11    1
    45    14    15    1
    46     3     2    1
    47    19    16    2
    48    15    16    1
    49    16    18    1
    50    16    17    1
