@<TRIPOS>MOLECULE
4eqs_COA_A_1.pdb
 48 50 0 0 0
SMALL
GASTEIGER

@<TRIPOS>ATOM
      1  N1A       26.0830   -6.5530    1.9120 N.2   506  COA506      0.0021
      2  C2A       27.0130   -6.3520    2.9610 C.3   506  COA506      0.5254
      3  N3A       27.9780   -5.2860    2.8820 N.2   506  COA506     -0.0055
      4  C4A       28.0030   -4.4570    1.7470 C.2   506  COA506      0.3518
      5  C5A       27.0510   -4.6600    0.6650 C.2   506  COA506      0.2526
      6  C6A       26.1040   -5.7060    0.7470 C.2   506  COA506      0.4393
      7  N6A       25.1340   -5.9350   -0.3200 N.pl3 506  COA506      0.2180
      8  N7A       27.3140   -3.6710   -0.3340 N.2   506  COA506     -0.2095
      9  C8A       28.3840   -2.8720    0.1030 C.3   506  COA506      0.3377
     10  N9A       28.8110   -3.3800    1.4120 N.pl3 506  COA506     -0.1439
     11  C1B       29.8870   -2.8380    2.2770 C.3   506  COA506      0.3185
     12  C2B       31.2230   -3.3390    1.8280 C.3   506  COA506      0.2543
     13  O2B       31.5330   -4.6650    2.1630 O.3   506  COA506     -0.2131
     14  C3B       32.0970   -2.2830    2.3890 C.3   506  COA506      0.1928
     15  O3B       32.3830   -2.3990    3.7580 O.3   506  COA506     -0.2673
     16  P3B       33.9150   -1.9680    4.2070 P.3   506  COA506      0.5327
     17  O7A       34.1970   -2.4330    5.7710 O.3   506  COA506     -0.1145
     18  O8A       34.0240   -0.3260    4.0650 O.3   506  COA506     -0.1145
     19  O9A       34.8780   -2.6010    3.3110 O.2   506  COA506     -0.2224
     20  C4B       31.3640   -0.9850    1.9630 C.3   506  COA506      0.1795
     21  O4B       29.9210   -1.3880    2.0880 O.3   506  COA506     -0.3136
     22  C5B       31.7400   -0.4840    0.5460 C.3   506  COA506      0.1812
     23  O5B       31.7200   -1.5070   -0.4340 O.3   506  COA506     -0.3112
     24  P1A       31.4590   -1.1300   -2.0420 P.3   506  COA506      0.2189
     25  O1A       32.5090    0.0280   -2.5470 O.3   506  COA506     -0.4371
     26  O2A       31.5540   -2.3510   -2.8230 O.2   506  COA506     -0.5170
     27  O3A       29.8970   -0.5280   -2.0610 O.3   506  COA506     -0.2703
     28  P2A       28.9180   -0.3570   -3.4080 P.3   506  COA506      0.2188
     29  O4A       27.5910    0.4200   -2.8400 O.3   506  COA506     -0.4371
     30  O5A       28.5930   -1.6500   -4.0190 O.2   506  COA506     -0.5170
     31  O6A       29.6340    0.6220   -4.5390 O.3   506  COA506     -0.3138
     32  CBP       30.7240    2.6980   -5.3030 C.3   506  COA506      0.0645
     33  CCP       30.3940    1.7510   -4.1220 C.3   506  COA506      0.1519
     34  CDP       31.3640    3.9960   -4.7830 C.3   506  COA506      0.0056
     35  CEP       31.6370    1.9820   -6.3090 C.3   506  COA506      0.0056
     36  CAP       29.3620    3.0140   -6.0110 C.3   506  COA506      0.2312
     37  OAP       28.3050    3.2140   -5.0950 O.3   506  COA506     -0.2131
     38  C9P       29.5150    4.2470   -6.9200 C.2   506  COA506      0.2719
     39  O9P       30.2450    4.2590   -7.8610 O.2   506  COA506     -0.2706
     40  N8P       28.8110    5.4680   -6.4940 N.am  506  COA506     -0.2028
     41  C7P       28.9970    6.7080   -7.2560 C.3   506  COA506      0.1248
     42  C6P       28.3650    7.9550   -6.6090 C.3   506  COA506      0.1102
     43  C5P       27.0480    7.6850   -5.8430 C.2   506  COA506      0.2432
     44  O5P       26.8750    6.7230   -5.1720 O.2   506  COA506     -0.2733
     45  N4P       26.1280    8.7910   -5.6800 N.am  506  COA506     -0.2044
     46  C3P       25.1910    8.7220   -4.5460 C.3   506  COA506      0.1276
     47  C2P       24.9620   10.1130   -3.9400 C.3   506  COA506      0.0920
     48  S1P       24.8440   11.3020   -5.3080 S.3   506  COA506     -0.0802
@<TRIPOS>BOND
     1    39    38    2
     2    41    42    1
     3    41    40    1
     4    38    40   am
     5    38    36    1
     6    42    43    1
     7    35    32    1
     8    36    32    1
     9    36    37    1
    10    43    45   am
    11    43    44    2
    12    45    46    1
    13    48    47    1
    14    32    34    1
    15    32    33    1
    16    46    47    1
    17    31    33    1
    18    31    28    1
    19    30    28    2
    20    28    29    1
    21    28    27    1
    22    26    24    2
    23    25    24    1
    24    27    24    1
    25    24    23    1
    26    23    22    1
    27     8     9    1
    28     8     5    2
    29     7     6    1
    30     9    10    1
    31    22    20    1
    32     5     6    1
    33     5     4    1
    34     6     1    2
    35    10     4    1
    36    10    11    1
    37     4     3    2
    38    12    13    1
    39    12    11    1
    40    12    14    1
    41     1     2    1
    42    20    21    1
    43    20    14    1
    44    21    11    1
    45    14    15    1
    46     3     2    1
    47    19    16    2
    48    15    16    1
    49    18    16    1
    50    16    17    1
