@<TRIPOS>MOLECULE
4equ_G6I_A_1.pdb
 42 46 0 0 0
SMALL
GASTEIGER

@<TRIPOS>ATOM
      1  CAA       66.7860   26.2670   15.1030 C.3   401  G6I401      0.2525
      2  OBC       66.5960   25.9310   13.7030 O.3   401  G6I401     -0.4714
      3  CBH       66.8940   24.6350   13.3370 C.ar  401  G6I401      0.1388
      4  CAR       67.1270   23.6090   14.2670 C.ar  401  G6I401      0.0383
      5  CAP       67.4170   22.3080   13.8390 C.ar  401  G6I401      0.0205
      6  CAS       66.9610   24.3350   11.9770 C.ar  401  G6I401      0.0383
      7  CAQ       67.2640   23.0510   11.5490 C.ar  401  G6I401      0.0205
      8  CBF       67.4970   22.0160   12.4640 C.ar  401  G6I401      0.0828
      9  NBA       67.7780   20.8020   11.9380 N.pl3 401  G6I401     -0.1354
     10  CBK       68.1220   19.6820   12.5940 C.1   401  G6I401      0.1766
     11  NAY       68.1510   19.5740   13.9410 N.2   401  G6I401     -0.2822
     12  NAW       68.4490   18.6040   11.8470 N.2   401  G6I401     -0.1675
     13  CAJ       68.7930   17.4730   12.4570 C.3   401  G6I401      0.2741
     14  NAX       68.8180   17.3560   13.7860 N.2   401  G6I401     -0.1811
     15  CBM       68.5000   18.4130   14.5500 C.1   401  G6I401      0.1003
     16  CBO       68.5110   18.3270   15.9550 C.ar  401  G6I401      0.1079
     17  CAN       68.2630   19.5060   16.6640 C.ar  401  G6I401      0.0155
     18  CAG       68.2550   19.4760   18.0580 C.ar  401  G6I401      0.0215
     19  CAI       68.4870   18.2780   18.7130 C.ar  401  G6I401      0.1004
     20  NAV       68.7150   17.1610   18.0330 N.ar  401  G6I401     -0.2267
     21  CBN       68.7440   17.1300   16.6900 C.ar  401  G6I401      0.1621
     22  NBB       68.9920   15.9530   16.0990 N.pl3 401  G6I401     -0.1938
     23  CBL       69.3320   14.8450   16.7810 C.ar  401  G6I401      0.0695
     24  CAT       68.4130   13.7920   16.8920 C.ar  401  G6I401      0.0328
     25  CBE       70.5980   14.6940   17.3600 C.ar  401  G6I401     -0.0065
     26  CAB       71.6760   15.7590   17.2940 C.3   401  G6I401      0.0324
     27  CAM       70.9140   13.5340   18.0370 C.ar  401  G6I401     -0.0016
     28  CAO       69.9930   12.5200   18.1500 C.ar  401  G6I401      0.0164
     29  CBG       68.7380   12.6140   17.5810 C.ar  401  G6I401      0.0750
     30  NAZ       67.9390   11.5420   17.7500 N.am  401  G6I401     -0.1754
     31  CBD       66.7290   11.3250   17.1890 C.2   401  G6I401      0.2690
     32  OAC       66.1590   12.0990   16.4200 O.2   401  G6I401     -0.2680
     33  CBI       66.0400    9.9720   17.5380 C.ar  401  G6I401      0.0553
     34  CAU       65.1060    9.4130   16.6630 C.ar  401  G6I401      0.0084
     35  CAK       66.3160    9.2940   18.7240 C.ar  401  G6I401      0.0046
     36  CAH       65.6890    8.0850   19.0260 C.ar  401  G6I401      0.0001
     37  CAL       64.7660    7.5300   18.1430 C.ar  401  G6I401      0.0039
     38  CBJ       64.4770    8.2020   16.9590 C.ar  401  G6I401      0.0716
     39  CBP       63.4510    7.6160   15.9840 C.3   401  G6I401      0.4186
     40  FAF       62.7020    8.5870   15.4980 F     401  G6I401     -0.1659
     41  FAD       64.1090    6.9960   15.0180 F     401  G6I401     -0.1659
     42  FAE       62.6130    6.7840   16.5960 F     401  G6I401     -0.1659
@<TRIPOS>BOND
     1     7     6   ar
     2     7     8   ar
     3    12    13    1
     4    12    10    2
     5     9     8    1
     6     9    10    1
     7     6     3   ar
     8    13    14    1
     9     8     5   ar
    10    10    11    2
    11     3     2    1
    12     3     4   ar
    13     2     1    1
    14    14    15    2
    15     5     4   ar
    16    11    15    2
    17    15    16    1
    18    41    39    1
    19    40    39    1
    20    16    17   ar
    21    16    21   ar
    22    39    42    1
    23    39    38    1
    24    22    21    1
    25    22    23    1
    26    32    31    2
    27    34    38   ar
    28    34    33   ar
    29    17    18   ar
    30    21    20   ar
    31    23    24   ar
    32    23    25   ar
    33    24    29   ar
    34    38    37   ar
    35    31    33    1
    36    31    30   am
    37    26    25    1
    38    25    27   ar
    39    33    35   ar
    40    29    30    1
    41    29    28   ar
    42    20    19   ar
    43    27    28   ar
    44    18    19   ar
    45    37    36   ar
    46    35    36   ar
