@<TRIPOS>MOLECULE
4eqw_COA_A_1.pdb
 48 50 0 0 0
SMALL
GASTEIGER

@<TRIPOS>ATOM
      1  N1A       26.0980   -6.5900    1.9060 N.2   505  COA505      0.0021
      2  C2A       26.9540   -6.4200    2.9310 C.3   505  COA505      0.5254
      3  N3A       27.8900   -5.3700    2.9030 N.2   505  COA505     -0.0055
      4  C4A       27.9310   -4.5050    1.7740 C.2   505  COA505      0.3518
      5  C5A       27.0750   -4.6700    0.7400 C.2   505  COA505      0.2526
      6  C6A       26.1360   -5.7190    0.7720 C.2   505  COA505      0.4393
      7  N6A       25.1960   -5.9260   -0.3180 N.pl3 505  COA505      0.2180
      8  N7A       27.3510   -3.6650   -0.2070 N.2   505  COA505     -0.2095
      9  C8A       28.4320   -2.8550    0.2910 C.3   505  COA505      0.3377
     10  N9A       28.7900   -3.3450    1.4790 N.pl3 505  COA505     -0.1439
     11  C1B       29.8400   -2.8270    2.3710 C.3   505  COA505      0.3185
     12  C2B       31.1710   -3.3590    1.9620 C.3   505  COA505      0.2543
     13  O2B       31.4440   -4.6890    2.2940 O.3   505  COA505     -0.2131
     14  C3B       32.0640   -2.3330    2.5350 C.3   505  COA505      0.1928
     15  O3B       32.3810   -2.4480    3.8930 O.3   505  COA505     -0.2673
     16  P3B       33.9060   -1.9920    4.3340 P.3   505  COA505      0.5327
     17  O7A       34.2590   -2.5860    5.8310 O.3   505  COA505     -0.1145
     18  O8A       33.9890   -0.3350    4.3200 O.3   505  COA505     -0.1145
     19  O9A       34.8470   -2.5220    3.3540 O.2   505  COA505     -0.2224
     20  C4B       31.3650   -1.0120    2.1200 C.3   505  COA505      0.1795
     21  O4B       29.9110   -1.3750    2.2190 O.3   505  COA505     -0.3136
     22  C5B       31.7870   -0.4750    0.7380 C.3   505  COA505      0.1812
     23  O5B       31.7880   -1.4630   -0.2850 O.3   505  COA505     -0.3112
     24  P1A       31.4860   -1.0080   -1.8610 P.3   505  COA505      0.2189
     25  O1A       32.4750    0.2400   -2.2870 O.3   505  COA505     -0.4371
     26  O2A       31.6900   -2.1530   -2.7450 O.2   505  COA505     -0.5170
     27  O3A       29.8880   -0.5150   -1.9020 O.3   505  COA505     -0.2703
     28  P2A       28.9910   -0.3770   -3.3130 P.3   505  COA505      0.2188
     29  O4A       27.6650    0.5080   -2.8960 O.3   505  COA505     -0.4371
     30  O5A       28.6350   -1.6980   -3.8430 O.2   505  COA505     -0.5170
     31  O6A       29.8080    0.5050   -4.4810 O.3   505  COA505     -0.3138
     32  CBP       30.8280    2.6600   -5.2860 C.3   505  COA505      0.0645
     33  CCP       30.6220    1.6270   -4.1410 C.3   505  COA505      0.1519
     34  CDP       31.4270    3.9490   -4.7400 C.3   505  COA505      0.0056
     35  CEP       31.7630    2.0650   -6.3450 C.3   505  COA505      0.0056
     36  CAP       29.4440    2.9550   -5.9560 C.3   505  COA505      0.2312
     37  OAP       28.3860    3.0690   -5.0360 O.3   505  COA505     -0.2131
     38  C9P       29.5050    4.2000   -6.8980 C.2   505  COA505      0.2719
     39  O9P       30.2360    4.2160   -7.8360 O.2   505  COA505     -0.2706
     40  N8P       28.8260    5.4390   -6.4660 N.am  505  COA505     -0.2028
     41  C7P       28.9140    6.6730   -7.2780 C.3   505  COA505      0.1248
     42  C6P       28.4140    7.9260   -6.5340 C.3   505  COA505      0.1102
     43  C5P       27.1960    7.7290   -5.6120 C.2   505  COA505      0.2432
     44  O5P       26.9670    6.6890   -5.0920 O.2   505  COA505     -0.2733
     45  N4P       26.1780    8.7530   -5.5720 N.am  505  COA505     -0.2044
     46  C3P       25.2060    8.7100   -4.4870 C.3   505  COA505      0.1276
     47  C2P       24.8350   10.1080   -4.0280 C.3   505  COA505      0.0920
     48  S1P       24.8670   11.2580   -5.4250 S.3   505  COA505     -0.0802
@<TRIPOS>BOND
     1    39    38    2
     2    41    42    1
     3    41    40    1
     4    38    40   am
     5    38    36    1
     6    42    43    1
     7    35    32    1
     8    36    32    1
     9    36    37    1
    10    43    45   am
    11    43    44    2
    12    45    46    1
    13    48    47    1
    14    32    34    1
    15    32    33    1
    16    46    47    1
    17    31    33    1
    18    31    28    1
    19    30    28    2
    20    28    29    1
    21    28    27    1
    22    26    24    2
    23    25    24    1
    24    27    24    1
    25    24    23    1
    26     7     6    1
    27    23    22    1
    28     8     9    1
    29     8     5    2
    30     9    10    1
    31    22    20    1
    32     5     6    1
    33     5     4    1
    34     6     1    2
    35    10     4    1
    36    10    11    1
    37     4     3    2
    38     1     2    1
    39    12    13    1
    40    12    11    1
    41    12    14    1
    42    20    21    1
    43    20    14    1
    44    21    11    1
    45    14    15    1
    46     3     2    1
    47    19    16    2
    48    15    16    1
    49    18    16    1
    50    16    17    1
