@<TRIPOS>MOLECULE
4eqz_AW0_A_1.pdb
 36 39 0 0 0
SMALL
GASTEIGER

@<TRIPOS>ATOM
      1  N1        15.1660   59.7090   -9.9390 N.2   501  AW0501      0.0021
      2  C2        16.3830   59.0770   -9.6680 C.3   501  AW0501      0.5254
      3  N3        17.5300   59.8600   -9.5890 N.2   501  AW0501     -0.0055
      4  C4        17.4530   61.1880   -9.7200 C.2   501  AW0501      0.3518
      5  C5        16.2700   61.7730   -9.9750 C.2   501  AW0501      0.2526
      6  C6        15.1620   61.0310  -10.0940 C.2   501  AW0501      0.4393
      7  N6        14.0300   61.6650  -10.3490 N.pl3 501  AW0501      0.2180
      8  N7        16.4820   63.0870  -10.0580 N.2   501  AW0501     -0.2095
      9  C8        17.7870   63.3130   -9.8910 C.3   501  AW0501      0.3377
     10  N9        18.3950   62.1310   -9.6530 N.pl3 501  AW0501     -0.1439
     11  CAA       20.5070   65.7330    3.4570 C.3   501  AW0501      0.0310
     12  CAB       21.4370   65.8660   -5.4760 C.3   501  AW0501      0.0173
     13  CAC       19.4570   64.4600   -5.9790 C.3   501  AW0501      0.0173
     14  OAE       23.7620   63.4710   -1.6200 O.2   501  AW0501     -0.2488
     15  OAF       22.9220   61.4000   -9.9600 O.3   501  AW0501     -0.2175
     16  OAG       20.8850   61.8600  -11.5200 O.3   501  AW0501     -0.2130
     17  CAI       20.0720   63.9040    1.8520 C.ar  501  AW0501     -0.0029
     18  CAJ       22.2810   64.7910    2.0580 C.ar  501  AW0501     -0.0029
     19  CAK       20.5460   63.0500    0.8700 C.ar  501  AW0501      0.0163
     20  CAL       22.7520   63.9320    1.0620 C.ar  501  AW0501      0.0163
     21  CAN       23.5370   61.9430   -4.8230 C.3   501  AW0501      0.0408
     22  CAO       24.3120   61.6700   -3.5430 C.3   501  AW0501      0.1183
     23  CAP       22.8250   63.3000   -4.7590 C.3   501  AW0501      0.0739
     24  CAQ       21.9640   63.6210   -7.1430 C.3   501  AW0501      0.1048
     25  NAU       23.3820   61.4430   -2.4250 N.am  501  AW0501     -0.1869
     26  NAV       22.2420   62.1500   -0.5050 N.am  501  AW0501     -0.1610
     27  OAW       20.2400   62.2960   -8.0870 O.3   501  AW0501     -0.3147
     28  CAX       23.1270   62.4220   -1.5240 C.2   501  AW0501      0.3435
     29  CAY       20.9460   64.8010    2.4650 C.ar  501  AW0501     -0.0218
     30  CBA       21.8880   63.0300    0.4560 C.ar  501  AW0501      0.0749
     31  CBD       20.7810   64.4720   -5.2720 C.3   501  AW0501      0.0577
     32  CBE       22.1210   62.5780   -9.5420 C.3   501  AW0501      0.2173
     33  CBF       20.8030   62.5990  -10.3020 C.3   501  AW0501      0.2569
     34  CBG       21.7040   62.4020   -8.0610 C.3   501  AW0501      0.1682
     35  CBH       19.8530   61.8490   -9.3830 C.3   501  AW0501      0.3186
     36  NBI       21.6570   63.3440   -5.7140 N.3   501  AW0501     -0.2718
@<TRIPOS>BOND
     1    16    33    1
     2     7     6    1
     3    33    32    1
     4    33    35    1
     5     6     5    1
     6     6     1    2
     7     8     5    2
     8     8     9    1
     9     5     4    1
    10    15    32    1
    11     1     2    1
    12     9    10    1
    13     4    10    1
    14     4     3    2
    15     2     3    1
    16    10    35    1
    17    32    34    1
    18    35    27    1
    19    27    34    1
    20    34    24    1
    21    24    36    1
    22    13    31    1
    23    36    31    1
    24    36    23    1
    25    12    31    1
    26    21    23    1
    27    21    22    1
    28    22    25    1
    29    25    28   am
    30    14    28    2
    31    28    26   am
    32    26    30    1
    33    30    19   ar
    34    30    20   ar
    35    19    17   ar
    36    20    18   ar
    37    17    29   ar
    38    18    29   ar
    39    29    11    1
