@<TRIPOS>MOLECULE
4er0_AW1_A_1.pdb
 39 42 0 0 0
SMALL
GASTEIGER

@<TRIPOS>ATOM
      1  N1        15.1540   60.1400   -9.9610 N.2   501  AW1501      0.0021
      2  C2        16.3620   59.4370   -9.6940 C.3   501  AW1501      0.5254
      3  N3        17.5680   60.1600   -9.5660 N.2   501  AW1501     -0.0055
      4  C4        17.5410   61.4910   -9.7210 C.2   501  AW1501      0.3518
      5  C5        16.3840   62.1330   -9.9680 C.2   501  AW1501      0.2526
      6  C6        15.2300   61.4690  -10.0930 C.2   501  AW1501      0.4393
      7  N6        14.1630   62.2090  -10.3490 N.pl3 501  AW1501      0.2180
      8  N7        16.6540   63.4350  -10.0610 N.2   501  AW1501     -0.2095
      9  C8        17.9600   63.6050   -9.8860 C.3   501  AW1501      0.3377
     10  N9        18.5020   62.4060   -9.6630 N.pl3 501  AW1501     -0.1439
     11  CAA       22.1680   66.3190   -5.8020 C.3   501  AW1501      0.0173
     12  CAB       20.0230   65.1620   -5.7120 C.3   501  AW1501      0.0173
     13  CAC       23.1230   66.7820    3.8570 C.3   501  AW1501      0.0044
     14  CAD       20.7120   66.7080    3.1920 C.3   501  AW1501      0.0044
     15  CAE       21.6140   65.0260    4.7920 C.3   501  AW1501      0.0044
     16  OAG       24.3030   63.8910   -1.7860 O.2   501  AW1501     -0.2488
     17  OAH       22.8940   61.6910  -10.1940 O.3   501  AW1501     -0.2175
     18  OAI       20.9240   62.0610  -11.6600 O.3   501  AW1501     -0.2130
     19  CAK       21.4840   63.2480    0.9240 C.ar  501  AW1501      0.0163
     20  CAL       23.7020   64.1780    0.7090 C.ar  501  AW1501      0.0163
     21  CAM       21.2330   64.0920    2.0020 C.ar  501  AW1501     -0.0030
     22  CAN       23.4430   65.0280    1.7850 C.ar  501  AW1501     -0.0030
     23  CAP       23.8890   63.5600   -4.5240 C.3   501  AW1501      0.0408
     24  CAQ       24.6510   62.3120   -3.9630 C.3   501  AW1501      0.1183
     25  CAR       23.4110   63.2730   -5.8970 C.3   501  AW1501      0.0739
     26  CAS       21.9820   64.1560   -7.6270 C.3   501  AW1501      0.1048
     27  NAW       23.9140   61.9300   -2.7840 N.am  501  AW1501     -0.1869
     28  NAX       22.9160   62.4170   -0.7840 N.am  501  AW1501     -0.1610
     29  OAY       20.3550   62.6000   -8.2130 O.3   501  AW1501     -0.3147
     30  CAZ       23.7250   62.8000   -1.7880 C.2   501  AW1501      0.3435
     31  CBB       22.7170   63.2710    0.2680 C.ar  501  AW1501      0.0749
     32  CBC       22.2110   64.9820    2.4480 C.ar  501  AW1501     -0.0227
     33  CBF       21.5100   65.0140   -5.4320 C.3   501  AW1501      0.0577
     34  CBG       22.1610   62.8950   -9.8120 C.3   501  AW1501      0.2173
     35  CBH       20.8190   62.8500  -10.4830 C.3   501  AW1501      0.2569
     36  CBI       21.8360   62.8240   -8.3470 C.3   501  AW1501      0.1682
     37  CBJ       19.9180   62.1200   -9.4390 C.3   501  AW1501      0.3186
     38  NBK       22.0450   63.8470   -6.2000 N.3   501  AW1501     -0.2718
     39  CBM       21.9300   65.8510    3.5470 C.3   501  AW1501      0.0189
@<TRIPOS>BOND
     1    18    35    1
     2    35    34    1
     3    35    37    1
     4     7     6    1
     5    17    34    1
     6     6     5    1
     7     6     1    2
     8     8     5    2
     9     8     9    1
    10     5     4    1
    11     1     2    1
    12     9    10    1
    13    34    36    1
    14     4    10    1
    15     4     3    2
    16     2     3    1
    17    10    37    1
    18    37    29    1
    19    36    29    1
    20    36    26    1
    21    26    38    1
    22    38    25    1
    23    38    33    1
    24    25    23    1
    25    11    33    1
    26    12    33    1
    27    23    24    1
    28    24    27    1
    29    27    30   am
    30    30    16    2
    31    30    28   am
    32    28    31    1
    33    31    20   ar
    34    31    19   ar
    35    20    22   ar
    36    19    21   ar
    37    22    32   ar
    38    21    32   ar
    39    32    39    1
    40    14    39    1
    41    39    13    1
    42    39    15    1
