@<TRIPOS>MOLECULE
4er2_III_I_1.pdb
 48 47 0 0 0
SMALL
GASTEIGER

@<TRIPOS>ATOM
      1  CA         2.8600   25.3270   20.0930 C.3     1  IVA1        0.0868
      2  CB         1.4840   24.8890   20.5830 C.3     1  IVA1        0.0091
      3  CG1        0.4020   25.4700   19.6740 C.3     1  IVA1        0.0005
      4  CG2        1.2510   23.3880   20.7540 C.3     1  IVA1        0.0005
      5  C          3.0270   26.8360   20.1710 C.2     1  IVA1        0.2418
      6  O          2.8980   27.5360   21.1540 O.2     1  IVA1       -0.2733
      7  N          3.3910   27.2130   18.9640 N.am    2  VAL2       -0.1978
      8  CA         3.8960   28.5530   18.6470 C.3     2  VAL2        0.1726
      9  C          3.4620   28.9640   17.2340 C.2     2  VAL2        0.2616
     10  O          3.4300   28.0840   16.3520 O.2     2  VAL2       -0.2715
     11  CB         5.3810   28.5990   18.9350 C.3     2  VAL2        0.0290
     12  CG1        6.2870   28.9460   17.8130 C.3     2  VAL2        0.0023
     13  CG2        5.8850   29.0650   20.3080 C.3     2  VAL2        0.0023
     14  N          2.9420   30.1740   17.1360 N.am    3  VAL3       -0.1963
     15  CA         2.4810   30.8530   15.9210 C.3     3  VAL3        0.1727
     16  C          3.2560   32.1250   15.7040 C.2     3  VAL3        0.2612
     17  O          2.9260   33.0720   16.4570 O.2     3  VAL3       -0.2715
     18  CB         0.9600   31.0600   15.9490 C.3     3  VAL3        0.0290
     19  CG1        0.5030   31.6630   14.6070 C.3     3  VAL3        0.0023
     20  CG2        0.1760   29.7940   16.3250 C.3     3  VAL3        0.0023
     21  N          4.2550   32.0950   14.8200 N.am    4  STA4       -0.2031
     22  CA         5.1250   33.3130   14.6520 C.3     4  STA4        0.1261
     23  CB         6.5480   33.0030   15.1260 C.3     4  STA4        0.0243
     24  CG         6.6250   32.4210   16.5110 C.3     4  STA4        0.0018
     25  CD1        8.0080   31.9470   16.9330 C.3     4  STA4        0.0001
     26  CD2        6.2840   33.5640   17.6690 C.3     4  STA4        0.0001
     27  CH         5.1420   33.8020   13.2200 C.3     4  STA4        0.1809
     28  OH         5.6070   32.7440   12.3630 O.3     4  STA4       -0.2208
     29  CM         3.7370   34.1780   12.7080 C.3     4  STA4        0.1214
     30  C          3.4140   35.6300   13.0990 C.2     4  STA4        0.2444
     31  O          2.8250   35.7090   14.1540 O.2     4  STA4       -0.2732
     32  N          3.7630   36.6750   12.4300 N.am    5  ALA5       -0.1977
     33  CA         3.3790   38.0640   12.7460 C.3     5  ALA5        0.1728
     34  C          1.9250   38.3230   12.3910 C.2     5  ALA5        0.2612
     35  O          1.7580   38.9230   11.3560 O.2     5  ALA5       -0.2715
     36  CB         4.2260   38.9650   11.8660 C.3     5  ALA5        0.0334
     37  N          0.9420   37.8620   13.0910 N.am    6  STA6       -0.2031
     38  CA        -0.5050   38.0040   13.0580 C.3     6  STA6        0.1262
     39  CB        -1.2260   36.6870   13.0800 C.3     6  STA6        0.0243
     40  CG        -0.5150   35.5650   12.3400 C.3     6  STA6        0.0018
     41  CD1       -1.1660   34.2270   12.5960 C.3     6  STA6        0.0001
     42  CD2       -0.5580   35.8460   10.7730 C.3     6  STA6        0.0001
     43  CH        -1.0400   38.9330   14.1640 C.3     6  STA6        0.1830
     44  OH        -0.8030   38.3550   15.4410 O.3     6  STA6       -0.2207
     45  CM        -0.4120   40.3050   14.0930 C.3     6  STA6        0.1486
     46  C         -0.9000   41.2520   15.1680 C.2     6  STA6        0.3675
     47  O         -0.7080   41.0620   16.3770 O.co2   6  STA6       -0.2456
     48  OXT       -1.5070   42.3400   14.7190 O.co2   6  STA6       -0.2456
@<TRIPOS>BOND
     1    42    40    1
     2    35    34    2
     3    36    33    1
     4    40    41    1
     5    40    39    1
     6    28    27    1
     7    34    33    1
     8    34    37   am
     9    32    33    1
    10    32    30   am
    11    29    30    1
    12    29    27    1
    13    38    39    1
    14    38    37    1
    15    38    43    1
    16    30    31    2
    17    27    22    1
    18    45    43    1
    19    45    46    1
    20    43    44    1
    21    19    18    1
    22    22    21    1
    23    22    23    1
    24    48    46   ar
    25    21    16   am
    26    23    24    1
    27    46    47   ar
    28    16    15    1
    29    16    17    2
    30    15    18    1
    31    15    14    1
    32    18    20    1
    33    10     9    2
    34    24    25    1
    35    24    26    1
    36    14     9   am
    37     9     8    1
    38    12    11    1
    39     8    11    1
    40     8     7    1
    41    11    13    1
    42     7     5   am
    43     3     2    1
    44     1     5    1
    45     1     2    1
    46     5     6    2
    47     2     4    1
