@<TRIPOS>MOLECULE
4er3_0QK_A_1.pdb
 39 42 0 0 0
SMALL
GASTEIGER

@<TRIPOS>ATOM
      1  C2        17.8400   60.6590  -10.2240 C.3   401  0QK401      0.5248
      2  C4        18.8130   62.6590  -10.0790 C.2   401  0QK401      0.3215
      3  C5        17.5940   63.3200  -10.2650 C.3   401  0QK401      0.2444
      4  C6        16.4570   62.4900  -10.4390 C.2   401  0QK401      0.4064
      5  CBI       21.2000   67.5340    3.1820 C.3   401  0QK401      0.0044
      6  CBH       22.7040   67.2140    3.1220 C.3   401  0QK401      0.0189
      7  CBJ       23.4540   68.5410    2.9200 C.3   401  0QK401      0.0044
      8  CBK       23.1160   66.6380    4.4170 C.3   401  0QK401      0.0044
      9  CBE       23.0420   66.2670    1.9830 C.ar  401  0QK401     -0.0227
     10  CBF       22.0590   65.5220    1.3340 C.ar  401  0QK401     -0.0030
     11  CBG       22.3760   64.6800    0.2840 C.ar  401  0QK401      0.0163
     12  CBD       24.3640   66.1330    1.5470 C.ar  401  0QK401     -0.0030
     13  CBC       24.6920   65.2970    0.4920 C.ar  401  0QK401      0.0163
     14  CBB       23.7050   64.5510   -0.1390 C.ar  401  0QK401      0.0749
     15  NAZ       23.9810   63.6870   -1.2140 N.am  401  0QK401     -0.1610
     16  CAY       24.8460   63.9470   -2.2360 C.2   401  0QK401      0.3435
     17  OBA       25.4980   64.9830   -2.3140 O.2   401  0QK401     -0.2488
     18  NAX       24.9180   62.9860   -3.1690 N.am  401  0QK401     -0.1869
     19  CAW       25.7780   63.1360   -4.3350 C.3   401  0QK401      0.1183
     20  CAV       24.9910   63.5880   -5.5720 C.3   401  0QK401      0.0408
     21  CAT       24.1150   64.8180   -5.3430 C.3   401  0QK401      0.0739
     22  NAS       22.9670   65.0180   -6.2350 N.3   401  0QK401     -0.2718
     23  CAU       22.0980   66.1710   -5.8220 C.3   401  0QK401      0.0577
     24  CBM       20.7130   66.0880   -6.4370 C.3   401  0QK401      0.0173
     25  CBL       22.7670   67.5540   -6.0850 C.3   401  0QK401      0.0173
     26  CAR       23.4260   65.1860   -7.6320 C.3   401  0QK401      0.1048
     27  CAN       23.0540   63.9640   -8.4760 C.3   401  0QK401      0.1682
     28  OAO       21.6080   63.8010   -8.4570 O.3   401  0QK401     -0.3145
     29  CAM       23.4570   64.0820   -9.9540 C.3   401  0QK401      0.2173
     30  OAQ       24.2060   62.9390  -10.3350 O.3   401  0QK401     -0.2175
     31  CAL       22.0990   64.0740  -10.7050 C.3   401  0QK401      0.2573
     32  OAP       22.1030   63.3700  -11.9350 O.3   401  0QK401     -0.2130
     33  CAK       21.2140   63.3320   -9.7250 C.3   401  0QK401      0.3212
     34  NAG       19.7970   63.6100   -9.9240 N.pl3 401  0QK401     -0.1468
     35  CAH       19.1950   64.8640  -10.0340 C.2   401  0QK401      0.1741
     36  CAI       17.8660   64.7270  -10.2270 C.2   401  0QK401      0.0420
     37  N3        18.9900   61.3240  -10.0550 N.2   401  0QK401     -0.0106
     38  N1        16.6110   61.1500  -10.4130 N.2   401  0QK401     -0.0027
     39  NAJ       15.2230   62.9800  -10.6220 N.pl3 401  0QK401      0.2117
@<TRIPOS>BOND
     1    32    31    1
     2    31    29    1
     3    31    33    1
     4    39     4    1
     5     4    38    2
     6     4     3    1
     7    38     1    1
     8    30    29    1
     9     3    36    1
    10     3     2    1
    11    36    35    2
    12     1    37    1
    13     2    37    2
    14     2    34    1
    15    35    34    1
    16    29    27    1
    17    34    33    1
    18    33    28    1
    19    27    28    1
    20    27    26    1
    21    26    22    1
    22    24    23    1
    23    22    23    1
    24    22    21    1
    25    25    23    1
    26    20    21    1
    27    20    19    1
    28    19    18    1
    29    18    16   am
    30    17    16    2
    31    16    15   am
    32    15    14    1
    33    14    11   ar
    34    14    13   ar
    35    11    10   ar
    36    13    12   ar
    37    10     9   ar
    38    12     9   ar
    39     9     6    1
    40     7     6    1
    41     6     5    1
    42     6     8    1
