@<TRIPOS>MOLECULE
4er5_0QK_A_1.pdb
 39 42 0 0 0
SMALL
GASTEIGER

@<TRIPOS>ATOM
      1  C2        16.8590   59.3030   -9.8100 C.3   501  0QK501      0.5248
      2  C4        17.9010   61.2690   -9.7970 C.2   501  0QK501      0.3215
      3  C5        16.7080   61.9540  -10.0330 C.3   501  0QK501      0.2444
      4  C6        15.5450   61.1550  -10.1590 C.2   501  0QK501      0.4064
      5  CBI       20.6850   66.5880    3.1430 C.3   501  0QK501      0.0044
      6  CBH       22.0100   65.8700    3.3800 C.3   501  0QK501      0.0189
      7  CBJ       23.0730   66.9130    3.5360 C.3   501  0QK501      0.0044
      8  CBK       21.9210   65.0770    4.6610 C.3   501  0QK501      0.0044
      9  CBE       22.3240   64.9560    2.2210 C.ar  501  0QK501     -0.0227
     10  CBF       21.3350   64.1600    1.6620 C.ar  501  0QK501     -0.0030
     11  CBG       21.6060   63.3200    0.6120 C.ar  501  0QK501      0.0163
     12  CBD       23.6030   64.8800    1.6850 C.ar  501  0QK501     -0.0030
     13  CBC       23.8800   64.0460    0.6270 C.ar  501  0QK501      0.0163
     14  CBB       22.8760   63.2670    0.0770 C.ar  501  0QK501      0.0749
     15  NAZ       23.1120   62.3880   -0.9980 N.am  501  0QK501     -0.1610
     16  CAY       23.9870   62.5930   -2.0160 C.2   501  0QK501      0.3435
     17  OBA       24.6670   63.6090   -2.1260 O.2   501  0QK501     -0.2488
     18  NAX       24.0260   61.5860   -2.9030 N.am  501  0QK501     -0.1869
     19  CAW       24.8680   61.6400   -4.0840 C.3   501  0QK501      0.1183
     20  CAV       24.0580   62.0150   -5.3220 C.3   501  0QK501      0.0408
     21  CAT       23.4760   63.4120   -5.2620 C.3   501  0QK501      0.0739
     22  NAS       22.2330   63.6250   -6.0130 N.3   501  0QK501     -0.2718
     23  CAU       21.4650   64.7970   -5.5280 C.3   501  0QK501      0.0577
     24  CBM       20.0830   64.8700   -6.1510 C.3   501  0QK501      0.0173
     25  CBL       22.2630   66.0960   -5.6880 C.3   501  0QK501      0.0173
     26  CAR       22.5140   63.7700   -7.4550 C.3   501  0QK501      0.1048
     27  CAN       22.1720   62.4900   -8.2020 C.3   501  0QK501      0.1682
     28  OAO       20.7260   62.3240   -8.2030 O.3   501  0QK501     -0.3145
     29  CAM       22.6070   62.5050   -9.6800 C.3   501  0QK501      0.2173
     30  OAQ       23.2980   61.2950  -10.0120 O.3   501  0QK501     -0.2175
     31  CAL       21.2670   62.6110  -10.4380 C.3   501  0QK501      0.2573
     32  OAP       21.3020   61.9250  -11.6780 O.3   501  0QK501     -0.2130
     33  CAK       20.3290   61.8860   -9.4770 C.3   501  0QK501      0.3212
     34  NAG       18.9160   62.1970   -9.6920 N.pl3 501  0QK501     -0.1468
     35  CAH       18.3530   63.4650   -9.8790 C.2   501  0QK501      0.1741
     36  CAI       17.0250   63.3580  -10.0780 C.2   501  0QK501      0.0420
     37  N3        18.0300   59.9410   -9.6800 N.2   501  0QK501     -0.0106
     38  N1        15.6510   59.8200  -10.0450 N.2   501  0QK501     -0.0027
     39  NAJ       14.3530   61.6650  -10.3920 N.pl3 501  0QK501      0.2117
@<TRIPOS>BOND
     1    32    31    1
     2    31    29    1
     3    31    33    1
     4    39     4    1
     5     4    38    2
     6     4     3    1
     7    36     3    1
     8    36    35    2
     9    38     1    1
    10     3     2    1
    11    30    29    1
    12    35    34    1
    13     1    37    1
    14     2    34    1
    15     2    37    2
    16    34    33    1
    17    29    27    1
    18    33    28    1
    19    28    27    1
    20    27    26    1
    21    26    22    1
    22    24    23    1
    23    22    23    1
    24    22    21    1
    25    25    23    1
    26    20    21    1
    27    20    19    1
    28    19    18    1
    29    18    16   am
    30    17    16    2
    31    16    15   am
    32    15    14    1
    33    14    11   ar
    34    14    13   ar
    35    11    10   ar
    36    13    12   ar
    37    10     9   ar
    38    12     9   ar
    39     9     6    1
    40     5     6    1
    41     6     7    1
    42     6     8    1
