@<TRIPOS>MOLECULE
4er6_AW2_A_1.pdb
 40 43 0 0 0
SMALL
GASTEIGER

@<TRIPOS>ATOM
      1 BR9        15.0900   64.9800  -10.6170 Br    502  AW2502     -0.0488
      2  N01       13.7990   61.8480  -10.5650 N.pl3 502  AW2502      0.2117
      3  C02       15.0200   61.4130  -10.2550 C.2   502  AW2502      0.4070
      4  N03       15.1970   60.0850  -10.0720 N.2   502  AW2502     -0.0027
      5  C04       16.4200   59.6430   -9.7590 C.3   502  AW2502      0.5248
      6  N05       17.5480   60.3440   -9.5960 N.2   502  AW2502     -0.0106
      7  C06       17.3590   61.6630   -9.7810 C.2   502  AW2502      0.3221
      8  C07       16.1360   62.2720  -10.1090 C.3   502  AW2502      0.2508
      9  C08       16.4050   63.6740  -10.1990 C.2   502  AW2502      0.0760
     10  C10       17.7250   63.8700   -9.9400 C.2   502  AW2502      0.1810
     11  N11       18.3160   62.6460   -9.6700 N.pl3 502  AW2502     -0.1463
     12  C12       19.7360   62.4280   -9.3720 C.3   502  AW2502      0.3212
     13  O13       20.0680   63.0090   -8.1420 O.3   502  AW2502     -0.3145
     14  C14       21.5140   63.0090   -8.0860 C.3   502  AW2502      0.1682
     15  C15       21.9610   64.1050   -7.1850 C.3   502  AW2502      0.1048
     16  N16       21.9150   63.9040   -5.7330 N.3   502  AW2502     -0.2718
     17  C17       23.2600   63.7820   -5.1440 C.3   502  AW2502      0.0739
     18  C18       23.9630   62.4680   -5.4460 C.3   502  AW2502      0.0408
     19  C19       24.6370   61.8170   -4.2580 C.3   502  AW2502      0.1183
     20  N20       23.7080   61.6060   -3.1540 N.am  502  AW2502     -0.1869
     21  C21       23.6480   62.4460   -2.1100 C.2   502  AW2502      0.3435
     22  N22       22.7160   62.1150   -1.1720 N.am  502  AW2502     -0.1610
     23  C23       22.4640   62.8340    0.0200 C.ar  502  AW2502      0.0749
     24  C24       23.3850   63.7890    0.4350 C.ar  502  AW2502      0.0163
     25  C25       23.1720   64.5020    1.5930 C.ar  502  AW2502     -0.0030
     26  C26       22.0430   64.2890    2.3710 C.ar  502  AW2502     -0.0227
     27  C27       21.8180   65.0980    3.6540 C.3   502  AW2502      0.0189
     28  C28       20.5380   65.9250    3.5210 C.3   502  AW2502      0.0044
     29  C29       21.6870   64.1790    4.8660 C.3   502  AW2502      0.0044
     30  C30       23.0170   66.0290    3.9140 C.3   502  AW2502      0.0044
     31  C31       21.1280   63.3320    1.9450 C.ar  502  AW2502     -0.0030
     32  C32       21.3310   62.6130    0.7840 C.ar  502  AW2502      0.0163
     33  O33       24.3730   63.4360   -2.0110 O.2   502  AW2502     -0.2488
     34  C34       21.1040   64.9840   -5.1580 C.3   502  AW2502      0.0577
     35  C35       19.6250   64.6880   -5.3120 C.3   502  AW2502      0.0173
     36  C36       21.4910   66.3440   -5.7230 C.3   502  AW2502      0.0173
     37  C37       22.0000   63.1630   -9.5300 C.3   502  AW2502      0.2173
     38  O38       22.9650   62.1530   -9.8030 O.3   502  AW2502     -0.2175
     39  C39       20.7030   63.0590  -10.3690 C.3   502  AW2502      0.2573
     40  O40       20.8420   62.2180  -11.5000 O.3   502  AW2502     -0.2130
@<TRIPOS>BOND
     1    40    39    1
     2     1     9    1
     3     2     3    1
     4    39    37    1
     5    39    12    1
     6     3     8    1
     7     3     4    2
     8     9     8    1
     9     9    10    2
    10     8     7    1
    11     4     5    1
    12    10    11    1
    13    38    37    1
    14     7    11    1
    15     7     6    2
    16     5     6    1
    17    11    12    1
    18    37    14    1
    19    12    13    1
    20    13    14    1
    21    14    15    1
    22    15    16    1
    23    16    34    1
    24    16    17    1
    25    36    34    1
    26    18    17    1
    27    18    19    1
    28    35    34    1
    29    19    20    1
    30    20    21   am
    31    21    33    2
    32    21    22   am
    33    22    23    1
    34    23    24   ar
    35    23    32   ar
    36    24    25   ar
    37    32    31   ar
    38    25    26   ar
    39    31    26   ar
    40    26    27    1
    41    28    27    1
    42    27    30    1
    43    27    29    1
