@<TRIPOS>MOLECULE
4er7_AW3_A_1.pdb
 37 40 0 0 0
SMALL
GASTEIGER

@<TRIPOS>ATOM
      1  N1        15.0940   60.1570  -10.0080 N.2   501  AW3501     -0.0027
      2  C2        16.3400   59.5360   -9.7880 C.3   501  AW3501      0.5248
      3  N3        17.4500   60.3400   -9.6390 N.2   501  AW3501     -0.0106
      4  C4        17.3170   61.6690   -9.6930 C.2   501  AW3501      0.3221
      5  C5        16.1250   62.2480   -9.8990 C.3   501  AW3501      0.2508
      6  C6        15.0390   61.5020  -10.0640 C.2   501  AW3501      0.4070
      7 BRH        15.0070   64.9470  -10.1130 Br    501  AW3501     -0.0488
      8  CAA       22.9580   66.5350    4.5390 C.3   501  AW3501      0.0044
      9  CAB       20.5150   66.5100    3.9480 C.3   501  AW3501      0.0044
     10  CAC       21.5810   64.6400    5.2060 C.3   501  AW3501      0.0044
     11  NAD       13.9050   62.1550  -10.2690 N.pl3 501  AW3501      0.2117
     12  OAE       24.2420   63.9470   -1.6020 O.2   501  AW3501     -0.2488
     13  OAF       22.6600   62.1100   -9.8870 O.3   501  AW3501     -0.2175
     14  OAG       20.6670   62.4830  -11.5200 O.3   501  AW3501     -0.2130
     15  CAJ       23.5660   64.1820    1.1000 C.ar  501  AW3501      0.0163
     16  CAK       21.2890   63.4360    1.1680 C.ar  501  AW3501      0.0163
     17  CAL       23.3490   64.9270    2.2690 C.ar  501  AW3501     -0.0030
     18  CAM       21.0690   64.1710    2.3240 C.ar  501  AW3501     -0.0030
     19  CAN       17.6050   63.8170   -9.6860 C.2   501  AW3501      0.1810
     20  CAO       24.3200   63.6100   -4.4680 C.3   501  AW3501      0.0423
     21  CAP       22.9020   64.1210   -4.7460 C.3   501  AW3501      0.0906
     22  CAQ       24.3140   62.1940   -3.8160 C.3   501  AW3501      0.1183
     23  CAR       21.9950   64.1140   -7.0670 C.3   501  AW3501      0.1210
     24  NAU       22.2890   63.3610   -5.8250 N.3   501  AW3501     -0.2153
     25  NAV       23.4650   62.1000   -2.6250 N.am  501  AW3501     -0.1869
     26  NAW       22.6360   62.6740   -0.5860 N.am  501  AW3501     -0.1610
     27  OAX       19.9900   63.0910   -8.0720 O.3   501  AW3501     -0.3144
     28  CAY       23.4920   62.9630   -1.6000 C.2   501  AW3501      0.3435
     29  CBA       22.5290   63.4320    0.5290 C.ar  501  AW3501      0.0749
     30  CBB       16.3250   63.5670   -9.8830 C.2   501  AW3501      0.0760
     31  CBC       22.0890   64.9340    2.8970 C.ar  501  AW3501     -0.0227
     32  CBF       21.8770   63.2560   -9.5100 C.3   501  AW3501      0.2174
     33  CBG       20.5560   63.2270  -10.2850 C.3   501  AW3501      0.2573
     34  CBH       21.4350   63.0630   -8.0590 C.3   501  AW3501      0.1696
     35  CBI       19.6590   62.4660   -9.3140 C.3   501  AW3501      0.3212
     36  NBJ       18.2200   62.6400   -9.5710 N.pl3 501  AW3501     -0.1463
     37  CBK       21.8130   65.6460    4.0990 C.3   501  AW3501      0.0189
@<TRIPOS>BOND
     1    14    33    1
     2    33    32    1
     3    33    35    1
     4    11     6    1
     5     7    30    1
     6     6     1    2
     7     6     5    1
     8     1     2    1
     9     5    30    1
    10     5     4    1
    11    13    32    1
    12    30    19    2
    13     2     3    1
    14     4     3    2
    15     4    36    1
    16    19    36    1
    17    36    35    1
    18    32    34    1
    19    35    27    1
    20    27    34    1
    21    34    23    1
    22    23    24    1
    23    24    21    1
    24    21    20    1
    25    20    22    1
    26    22    25    1
    27    25    28   am
    28    12    28    2
    29    28    26   am
    30    26    29    1
    31    29    15   ar
    32    29    16   ar
    33    15    17   ar
    34    16    18   ar
    35    17    31   ar
    36    18    31   ar
    37    31    37    1
    38     9    37    1
    39    37     8    1
    40    37    10    1
