@<TRIPOS>MOLECULE
4ere_0R2_A_1.pdb
 35 37 0 0 0
SMALL
GASTEIGER

@<TRIPOS>ATOM
      1 CL1         6.8170   24.5610   22.6940 Cl    201  0R2201     -0.0822
      2  C1         8.3220   25.0140   21.8320 C.ar  201  0R2201      0.0577
      3  C2         8.1530   25.8890   20.7410 C.ar  201  0R2201      0.0111
      4  C3         9.2580   26.2910   19.9530 C.ar  201  0R2201     -0.0018
      5  C4         9.6140   24.5190   22.1620 C.ar  201  0R2201      0.0111
      6  C5        10.7110   24.9150   21.3830 C.ar  201  0R2201     -0.0018
      7  C6        10.5380   25.7980   20.2830 C.ar  201  0R2201     -0.0039
      8  C7        11.7560   26.2730   19.4860 C.3   201  0R2201      0.1023
      9  N1        11.6390   25.9590   18.0710 N.am  201  0R2201     -0.2689
     10  C8        11.2760   24.5800   17.7880 C.3   201  0R2201      0.1748
     11  C9        12.8120   24.1200   17.4490 C.2   201  0R2201      0.3350
     12  O4        13.7910   24.8510   17.4610 O.2   201  0R2201     -0.2483
     13  C11       11.9220   26.8180   17.0340 C.2   201  0R2201      0.2263
     14  O1        11.7930   26.4570   15.8880 O.2   201  0R2201     -0.2749
     15  C12       12.4820   28.2390   17.3520 C.3   201  0R2201      0.0884
     16  C13       11.3600   29.2640   17.1030 C.3   201  0R2201      0.1231
     17  C14       11.9110   30.6820   16.8340 C.2   201  0R2201      0.3654
     18  O2        11.8950   31.5220   17.6840 O.co2 201  0R2201     -0.2456
     19  O3        12.3700   30.8950   15.5950 O.co2 201  0R2201     -0.2456
     20  C15       13.0990   28.2900   18.7360 C.3   201  0R2201      0.0160
     21  C16       12.1450   27.7790   19.7870 C.3   201  0R2201      0.0453
     22  C17       12.5630   28.0520   21.2290 C.ar  201  0R2201     -0.0197
     23  C18       13.9190   27.9980   21.6120 C.ar  201  0R2201     -0.0042
     24  C19       14.2970   28.1450   22.9560 C.ar  201  0R2201      0.0005
     25  C20       13.3160   28.3540   23.9370 C.ar  201  0R2201      0.0114
     26  C21       11.9770   28.4190   23.5650 C.ar  201  0R2201      0.0574
     27 CL2        10.7840   28.6540   24.7730 Cl    201  0R2201     -0.0823
     28  C22       11.5900   28.2790   22.2400 C.ar  201  0R2201      0.0072
     29  C10       10.2490   24.3790   16.5810 C.3   201  0R2201      0.0313
     30  C23        8.7940   24.7600   16.9540 C.3   201  0R2201      0.0024
     31  O5        12.8170   22.7390   17.1720 O.3   201  0R2201     -0.4546
     32  C24       13.9950   21.9680   16.6390 C.3   201  0R2201      0.1363
     33  C25       13.4470   20.5590   16.5200 C.3   201  0R2201      0.0437
     34  C26       15.0750   22.0720   17.7190 C.3   201  0R2201      0.0437
     35  C27       14.2290   22.5700   15.2440 C.3   201  0R2201      0.0437
@<TRIPOS>BOND
     1    35    32    1
     2    19    17   ar
     3    14    13    2
     4    33    32    1
     5    29    30    1
     6    29    10    1
     7    32    31    1
     8    32    34    1
     9    17    16    1
    10    17    18   ar
    11    13    15    1
    12    13     9   am
    13    16    15    1
    14    31    11    1
    15    15    20    1
    16    11    12    2
    17    11    10    1
    18    10     9    1
    19     9     8    1
    20    20    21    1
    21     8    21    1
    22     8     7    1
    23    21    22    1
    24     4     7   ar
    25     4     3   ar
    26     7     6   ar
    27     3     2   ar
    28    22    23   ar
    29    22    28   ar
    30     6     5   ar
    31    23    24   ar
    32     2     5   ar
    33     2     1    1
    34    28    26   ar
    35    24    25   ar
    36    26    25   ar
    37    26    27    1
