@<TRIPOS>MOLECULE
4erf_0R3_A_1.pdb
 32 34 0 0 0
SMALL
GASTEIGER

@<TRIPOS>ATOM
      1  C17      -16.2000    2.5780  -15.1270 C.ar  201  0R3201      0.0072
      2  C16      -17.1310    3.5980  -15.0790 C.ar  201  0R3201      0.0574
      3 CL2       -16.6580    5.0130  -14.2760 Cl    201  0R3201     -0.0823
      4  C15      -18.3540    3.4980  -15.7150 C.ar  201  0R3201      0.0114
      5  C14      -18.6690    2.3290  -16.4450 C.ar  201  0R3201      0.0005
      6  C13      -17.7270    1.2860  -16.5120 C.ar  201  0R3201     -0.0042
      7  C6       -16.4780    1.4050  -15.8540 C.ar  201  0R3201     -0.0197
      8  C2       -15.3970    0.3340  -15.9730 C.3   201  0R3201      0.0452
      9  C3       -15.8800   -1.0360  -15.5960 C.3   201  0R3201      0.0155
     10  C4       -14.7530   -2.0620  -15.4650 C.3   201  0R3201      0.0801
     11  C23      -13.9350   -1.9460  -14.1610 C.3   201  0R3201      0.1226
     12  C25      -14.7890   -2.1830  -12.9140 C.2   201  0R3201      0.3653
     13  O3       -15.5260   -1.3630  -12.4310 O.co2 201  0R3201     -0.2456
     14  O2       -14.6350   -3.4510  -12.3850 O.co2 201  0R3201     -0.2456
     15  C24      -15.3940   -3.4360  -15.5690 C.3   201  0R3201      0.0097
     16  C5       -13.7380   -1.9480  -16.6200 C.2   201  0R3201      0.2255
     17  O1       -12.8710   -2.8140  -16.6780 O.2   201  0R3201     -0.2749
     18  N1       -13.8240   -0.9130  -17.5360 N.am  201  0R3201     -0.2762
     19  C18      -13.0890   -1.0350  -18.7890 C.3   201  0R3201      0.1058
     20  C19      -11.5780   -1.2090  -18.4880 C.3   201  0R3201      0.0224
     21  C22      -10.6990   -0.0520  -19.0120 C.3   201  0R3201      0.0018
     22  C20      -13.6990   -2.1230  -19.6950 C.3   201  0R3201      0.1701
     23  O4       -15.1090   -2.2280  -19.5420 O.3   201  0R3201     -0.2214
     24  C21      -13.5130   -1.7570  -21.1560 C.3   201  0R3201      0.0373
     25  C1       -14.6260    0.3290  -17.3080 C.3   201  0R3201      0.1018
     26  C7       -13.9150    1.6460  -17.5450 C.ar  201  0R3201     -0.0039
     27  C8       -12.7980    2.0510  -16.7610 C.ar  201  0R3201     -0.0018
     28  C9       -12.2120    3.2990  -17.0070 C.ar  201  0R3201      0.0111
     29  C10      -12.7230    4.1440  -18.0130 C.ar  201  0R3201      0.0577
     30 CL1       -12.0140    5.6910  -18.2350 Cl    201  0R3201     -0.0822
     31  C11      -13.8140    3.7720  -18.8000 C.ar  201  0R3201      0.0111
     32  C12      -14.4120    2.5100  -18.5640 C.ar  201  0R3201     -0.0018
@<TRIPOS>BOND
     1    24    22    1
     2    22    23    1
     3    22    19    1
     4    21    20    1
     5    31    32   ar
     6    31    29   ar
     7    19    20    1
     8    19    18    1
     9    32    26   ar
    10    30    29    1
    11    29    28   ar
    12    26    25    1
    13    26    27   ar
    14    18    25    1
    15    18    16   am
    16    25     8    1
    17    28    27   ar
    18    17    16    2
    19    16    10    1
    20     6     5   ar
    21     6     7   ar
    22     5     4   ar
    23     8     7    1
    24     8     9    1
    25     7     1   ar
    26     4     2   ar
    27     9    10    1
    28    15    10    1
    29    10    11    1
    30     1     2   ar
    31     2     3    1
    32    11    12    1
    33    12    13   ar
    34    12    14   ar
