@<TRIPOS>MOLECULE
4erk_OLO_A_1.pdb
 22 24 0 0 0
SMALL
GASTEIGER

@<TRIPOS>ATOM
      1  N        -16.1700   11.5950   40.3310 N.pl3 800  OLO800     -0.2590
      2  C        -17.3070   10.9990   40.8410 C.3   800  OLO800      0.2221
      3  N1       -18.2010   11.6870   41.6460 N.2   800  OLO800     -0.2400
      4  C3A      -17.5580   12.9100   41.6680 C.2   800  OLO800      0.1718
      5  C7A      -16.3480   12.8600   40.8850 C.2   800  OLO800      0.2200
      6  C1       -17.9310   14.1240   42.3390 C.2   800  OLO800      0.2485
      7  N2       -17.0780   15.2450   42.2000 N.2   800  OLO800     -0.3055
      8  C2       -15.8920   15.2120   41.4290 C.1   800  OLO800      0.2230
      9  N3       -15.5210   14.0210   40.7700 N.2   800  OLO800     -0.3099
     10  C3       -15.1040   11.0360   39.4660 C.3   800  OLO800      0.1165
     11  N4       -15.0640   16.3990   41.3210 N.pl3 800  OLO800     -0.1489
     12  C4       -15.4540   17.8110   41.4880 C.3   800  OLO800      0.1617
     13  C5       -14.3390   18.6630   42.1060 C.3   800  OLO800      0.2063
     14  O        -14.3720   18.5960   43.5260 O.3   800  OLO800     -0.2184
     15  N5       -19.1570   14.1480   43.1310 N.2   800  OLO800     -0.2123
     16  C6       -19.7900   15.1930   43.9790 C.2   800  OLO800      0.1016
     17  C7       -17.9580   16.5340   45.1360 C.ar  800  OLO800      0.0015
     18  C8       -17.2480   17.7320   45.3730 C.ar  800  OLO800      0.0000
     19  C9       -17.6120   18.9170   44.6800 C.ar  800  OLO800      0.0000
     20  C10      -18.6880   18.8980   43.7490 C.ar  800  OLO800      0.0000
     21  C11      -19.4050   17.6950   43.5070 C.ar  800  OLO800      0.0015
     22  C12      -19.0450   16.5060   44.1970 C.ar  800  OLO800      0.0192
@<TRIPOS>BOND
     1    10     1    1
     2     1     2    1
     3     1     5    1
     4     9     5    2
     5     9     8    2
     6     2     3    1
     7     5     4    1
     8    11     8    1
     9    11    12    1
    10     8     7    2
    11    12    13    1
    12     3     4    2
    13     4     6    1
    14    13    14    1
    15     7     6    2
    16     6    15    1
    17    15    16    2
    18    21    20   ar
    19    21    22   ar
    20    20    19   ar
    21    16    22    1
    22    22    17   ar
    23    19    18   ar
    24    17    18   ar
