@<TRIPOS>MOLECULE
4erm_DTP_A_1.pdb
 30 32 0 0 0
SMALL
GASTEIGER

@<TRIPOS>ATOM
      1  PG        33.7130  -47.6730   85.9100 P.3   801  DTP801      0.5373
      2  O1G       34.6610  -48.8060   86.2100 O.3   801  DTP801     -0.1143
      3  O2G       33.3110  -46.9990   87.2300 O.3   801  DTP801     -0.1143
      4  O3G       34.4130  -46.6820   85.0050 O.2   801  DTP801     -0.2221
      5  PB        31.4360  -47.2920   84.4680 P.3   801  DTP801      0.2277
      6  O1B       30.0660  -47.4880   85.0800 O.3   801  DTP801     -0.4368
      7  O2B       31.8360  -45.8450   84.6400 O.2   801  DTP801     -0.5168
      8  O3B       32.4540  -48.2450   85.1940 O.3   801  DTP801     -0.2258
      9  PA        32.6410  -47.9620   82.0660 P.3   801  DTP801      0.2189
     10  O1A       33.6720  -48.6470   82.8760 O.3   801  DTP801     -0.4371
     11  O2A       32.2570  -48.8470   80.9540 O.2   801  DTP801     -0.5170
     12  O3A       31.3610  -47.6430   82.9160 O.3   801  DTP801     -0.2700
     13  O5'       33.2480  -46.6230   81.4600 O.3   801  DTP801     -0.3112
     14  C5'       33.2690  -46.4560   80.1330 C.3   801  DTP801      0.1813
     15  C4'       34.1380  -45.4630   79.5990 C.3   801  DTP801      0.1795
     16  O4'       33.7940  -44.1560   80.1250 O.3   801  DTP801     -0.3155
     17  C3'       35.5250  -45.7260   79.9510 C.3   801  DTP801      0.1883
     18  O3'       36.3530  -45.4820   78.9180 O.3   801  DTP801     -0.2202
     19  C2'       35.8160  -44.8040   81.0400 C.3   801  DTP801      0.1151
     20  C1'       34.9110  -43.6530   80.8080 C.3   801  DTP801      0.2873
     21  N9        34.5770  -42.9480   82.0630 N.pl3 801  DTP801     -0.1460
     22  C8        34.1100  -43.5030   83.1980 C.3   801  DTP801      0.3377
     23  N7        33.9260  -42.5420   84.1190 N.2   801  DTP801     -0.2095
     24  C5        34.2810  -41.3560   83.5640 C.2   801  DTP801      0.2526
     25  C6        34.3040  -40.0430   84.0290 C.2   801  DTP801      0.4393
     26  N6        33.8770  -39.7390   85.3980 N.pl3 801  DTP801      0.2180
     27  N1        34.7230  -39.0460   83.2160 N.2   801  DTP801      0.0021
     28  C2        35.1080  -39.3450   81.9750 C.3   801  DTP801      0.5254
     29  N3        35.1040  -40.5920   81.4790 N.2   801  DTP801     -0.0055
     30  C4        34.6940  -41.6140   82.2580 C.2   801  DTP801      0.3518
@<TRIPOS>BOND
     1    18    17    1
     2    15    17    1
     3    15    16    1
     4    15    14    1
     5    17    19    1
     6    16    20    1
     7    14    13    1
     8    20    19    1
     9    20    21    1
    10    11     9    2
    11    13     9    1
    12    29    28    1
    13    29    30    2
    14    28    27    1
    15    21    30    1
    16    21    22    1
    17     9    10    1
    18     9    12    1
    19    30    24    1
    20    12     5    1
    21    22    23    1
    22    27    25    2
    23    24    25    1
    24    24    23    2
    25    25    26    1
    26     5     7    2
    27     5     6    1
    28     5     8    1
    29     4     1    2
    30     8     1    1
    31     1     2    1
    32     1     3    1
