@<TRIPOS>MOLECULE
4erm_DAT_A_1.pdb
 26 28 0 0 0
SMALL
GASTEIGER

@<TRIPOS>ATOM
      1  PB        28.2520  -66.9830   56.8280 P.3   802  DAT802      0.5373
      2  O1B       28.4560  -68.1380   57.9290 O.3   802  DAT802     -0.1143
      3  O2B       29.5290  -66.2520   56.6130 O.2   802  DAT802     -0.2221
      4  O3B       27.2340  -66.0440   57.2990 O.3   802  DAT802     -0.1143
      5  PA        28.4300  -68.8990   54.9630 P.3   802  DAT802      0.2231
      6  O1A       27.7650  -70.1900   55.4530 O.3   802  DAT802     -0.4370
      7  O2A       29.9920  -68.8640   55.4180 O.2   802  DAT802     -0.5169
      8  O3A       27.7700  -67.6190   55.4750 O.3   802  DAT802     -0.2261
      9  O5'       28.4470  -68.8460   53.3710 O.3   802  DAT802     -0.3111
     10  C5'       27.4530  -69.4410   52.6690 C.3   802  DAT802      0.1813
     11  C4'       25.9930  -69.2260   53.1490 C.3   802  DAT802      0.1795
     12  O4'       25.5610  -67.8220   53.4300 O.3   802  DAT802     -0.3155
     13  C3'       25.0190  -69.7050   52.1820 C.3   802  DAT802      0.1883
     14  O3'       24.8650  -71.1270   52.2540 O.3   802  DAT802     -0.2202
     15  C2'       23.7750  -68.9590   52.4830 C.3   802  DAT802      0.1151
     16  C1'       24.1590  -67.8460   53.3470 C.3   802  DAT802      0.2873
     17  N9        23.4010  -66.6230   52.9590 N.pl3 802  DAT802     -0.1460
     18  C8        23.2630  -66.1190   51.7310 C.3   802  DAT802      0.3377
     19  N7        22.5020  -64.9980   51.7970 N.2   802  DAT802     -0.2095
     20  C5        22.1660  -64.8110   53.0850 C.2   802  DAT802      0.2526
     21  C6        21.4070  -63.8350   53.7380 C.2   802  DAT802      0.4393
     22  N6        20.8290  -62.7990   53.0160 N.pl3 802  DAT802      0.2180
     23  N1        21.2350  -63.9000   55.0620 N.2   802  DAT802      0.0021
     24  C2        21.7950  -64.9030   55.7620 C.3   802  DAT802      0.5254
     25  N3        22.5340  -65.8600   55.1590 N.2   802  DAT802     -0.0055
     26  C4        22.7320  -65.8330   53.8340 C.2   802  DAT802      0.3518
@<TRIPOS>BOND
     1    18    19    1
     2    18    17    1
     3    19    20    2
     4    13    14    1
     5    13    15    1
     6    13    11    1
     7    15    16    1
     8    10    11    1
     9    10     9    1
    10    17    16    1
    11    17    26    1
    12    22    21    1
    13    20    21    1
    14    20    26    1
    15    11    12    1
    16    16    12    1
    17     9     5    1
    18    21    23    2
    19    26    25    2
    20     5     7    2
    21     5     6    1
    22     5     8    1
    23    23    24    1
    24    25    24    1
    25     8     1    1
    26     3     1    2
    27     1     4    1
    28     1     2    1
