@<TRIPOS>MOLECULE
4erp_ATP_A_1.pdb
 31 33 0 0 0
SMALL
GASTEIGER

@<TRIPOS>ATOM
      1  PG        -4.8770 -108.1010   24.5400 P.3   801  ATP801      0.5373
      2  O1G       -5.5270 -108.0470   25.9140 O.3   801  ATP801     -0.1143
      3  O2G       -5.6880 -109.0680   23.6400 O.2   801  ATP801     -0.2221
      4  O3G       -3.4470 -108.6240   24.6840 O.3   801  ATP801     -0.1143
      5  PB        -4.8980 -105.3400   24.7010 P.3   801  ATP801      0.2277
      6  O1B       -5.2220 -105.4930   26.2060 O.3   801  ATP801     -0.4368
      7  O2B       -5.9820 -104.4000   24.1310 O.2   801  ATP801     -0.5168
      8  O3B       -4.8600 -106.6750   23.8700 O.3   801  ATP801     -0.2258
      9  PA        -2.2620 -105.1650   25.3260 P.3   801  ATP801      0.2189
     10  O1A       -1.7350 -106.4650   24.7220 O.2   801  ATP801     -0.5170
     11  O2A       -1.1590 -104.0920   25.2400 O.3   801  ATP801     -0.4371
     12  O3A       -3.5150 -104.6320   24.5650 O.3   801  ATP801     -0.2700
     13  O5'       -2.5140 -105.4820   26.8610 O.3   801  ATP801     -0.3112
     14  C5'       -2.7040 -104.3920   27.7650 C.3   801  ATP801      0.1813
     15  C4'       -2.4990 -104.6540   29.2610 C.3   801  ATP801      0.1821
     16  O4'       -3.6760 -104.7110   29.9870 O.3   801  ATP801     -0.3135
     17  C3'       -1.7350 -105.9070   29.5320 C.3   801  ATP801      0.2184
     18  O3'       -0.8100 -105.5930   30.4860 O.3   801  ATP801     -0.2174
     19  C2'       -2.6610 -106.8560   30.0090 C.3   801  ATP801      0.2570
     20  O2'       -2.1620 -107.4290   31.1650 O.3   801  ATP801     -0.2130
     21  C1'       -3.8170 -106.0950   30.4970 C.3   801  ATP801      0.3186
     22  N9        -5.0230 -106.8270   30.1800 N.pl3 801  ATP801     -0.1439
     23  C8        -5.3420 -107.4130   29.0290 C.3   801  ATP801      0.3377
     24  N7        -6.5540 -107.9870   29.1490 N.2   801  ATP801     -0.2095
     25  C5        -6.9900 -107.7530   30.3940 C.2   801  ATP801      0.2526
     26  C6        -8.1530 -108.0930   31.0780 C.2   801  ATP801      0.4393
     27  N6        -9.2210 -108.8900   30.4000 N.pl3 801  ATP801      0.2180
     28  N1        -8.3210 -107.7110   32.3530 N.2   801  ATP801      0.0021
     29  C2        -7.3630 -106.9960   32.9640 C.3   801  ATP801      0.5254
     30  N3        -6.2270 -106.6520   32.3250 N.2   801  ATP801     -0.0055
     31  C4        -6.0240 -107.0170   31.0520 C.2   801  ATP801      0.3518
@<TRIPOS>BOND
     1     3     1    2
     2     8     1    1
     3     8     5    1
     4     7     5    2
     5     1     4    1
     6     1     2    1
     7    12     5    1
     8    12     9    1
     9     5     6    1
    10    10     9    2
    11    11     9    1
    12     9    13    1
    13    13    14    1
    14    14    15    1
    15    23    24    1
    16    23    22    1
    17    24    25    2
    18    15    17    1
    19    15    16    1
    20    17    19    1
    21    17    18    1
    22    16    21    1
    23    19    21    1
    24    19    20    1
    25    22    21    1
    26    22    31    1
    27    25    31    1
    28    25    26    1
    29    27    26    1
    30    31    30    2
    31    26    28    2
    32    30    29    1
    33    28    29    1
