@<TRIPOS>MOLECULE
4erw_STU_A_1.pdb
 35 42 0 0 0
SMALL
GASTEIGER

@<TRIPOS>ATOM
      1  O4         0.1090  -10.3950   27.0790 O.3   301  STU301     -0.3186
      2  C25       -1.3380  -10.1870   27.2060 C.3   301  STU301      0.2078
      3  C24       -2.1750  -10.5230   25.9560 C.3   301  STU301      0.0739
      4  C23       -1.2570  -10.8750   24.8530 C.3   301  STU301      0.1086
      5  C22       -0.2640   -9.7690   24.7040 C.3   301  STU301      0.1761
      6  C21        0.6950   -9.7820   25.9750 C.3   301  STU301      0.1915
      7  C26        1.8400  -10.7380   25.6710 C.3   301  STU301      0.0566
      8  N2         1.1580   -8.3350   26.1810 N.ar  301  STU301     -0.3054
      9  C18        0.4020   -7.4870   26.9140 C.ar  301  STU301      0.0774
     10  C19       -0.7870   -7.6990   27.5900 C.ar  301  STU301      0.0783
     11  C6        -1.4450   -6.6360   28.3290 C.ar  301  STU301      0.0293
     12  C7        -0.8150   -5.2830   28.3510 C.ar  301  STU301      0.0822
     13  C10        0.3680   -5.0600   27.6660 C.ar  301  STU301      0.0154
     14  C11        1.0050   -6.1670   26.9220 C.ar  301  STU301      0.0173
     15  C12        2.2510   -6.2780   26.1040 C.ar  301  STU301      0.0171
     16  C17        2.3350   -7.6060   25.6510 C.ar  301  STU301      0.0617
     17  C16        3.4580   -7.9580   24.8300 C.ar  301  STU301      0.0172
     18  C15        4.4300   -7.0170   24.5150 C.ar  301  STU301      0.0015
     19  C14        4.3210   -5.6970   24.9760 C.ar  301  STU301      0.0001
     20  C13        3.2160   -5.3270   25.7810 C.ar  301  STU301      0.0015
     21  C9         0.7190   -3.6710   27.8680 C.3   301  STU301      0.1650
     22  N1        -0.2390   -3.1070   28.6350 N.2   301  STU301     -0.1976
     23  C8        -1.1710   -4.0150   28.9650 C.1   301  STU301      0.1501
     24  O5        -2.2740   -3.7760   29.7170 O.2   301  STU301     -0.2222
     25  C5        -2.7210   -7.2570   28.9420 C.ar  301  STU301      0.0180
     26  C20       -2.7600   -8.6430   28.5390 C.ar  301  STU301      0.0618
     27  C1        -3.8310   -9.4880   28.9590 C.ar  301  STU301      0.0172
     28  C2        -4.8640   -8.9540   29.7770 C.ar  301  STU301      0.0015
     29  C3        -4.8290   -7.5780   30.1710 C.ar  301  STU301      0.0001
     30  C4        -3.7500   -6.7330   29.7530 C.ar  301  STU301      0.0015
     31  N3        -1.5710   -8.8530   27.7200 N.ar  301  STU301     -0.3039
     32  O6        -0.9630   -8.5490   24.5810 O.3   301  STU301     -0.3478
     33  C27       -0.5720   -7.5750   23.6500 C.3   301  STU301      0.1743
     34  N4        -2.0480  -11.0390   23.6320 N.3   301  STU301     -0.2152
     35  C28       -2.6750  -12.3510   23.5940 C.3   301  STU301      0.1075
@<TRIPOS>BOND
     1    35    34    1
     2    34     4    1
     3    33    32    1
     4    18    17   ar
     5    18    19   ar
     6    32     5    1
     7     5     4    1
     8     5     6    1
     9    17    16   ar
    10     4     3    1
    11    19    20   ar
    12    16    15   ar
    13    16     8   ar
    14     7     6    1
    15    20    15   ar
    16     3     2    1
    17     6     8    1
    18     6     1    1
    19    15    14   ar
    20     8     9   ar
    21     9    14   ar
    22     9    10   ar
    23    14    13   ar
    24     1     2    1
    25     2    31    1
    26    10    31   ar
    27    10    11   ar
    28    13    21    1
    29    13    12   ar
    30    31    26   ar
    31    21    22    1
    32    11    12   ar
    33    11    25   ar
    34    12    23    1
    35    26    25   ar
    36    26    27   ar
    37    22    23    2
    38    25    30   ar
    39    27    28   ar
    40    23    24    2
    41    30    29   ar
    42    28    29   ar
