@<TRIPOS>MOLECULE
4es0_III_C_1.pdb
 45 44 0 0 0
SMALL
GASTEIGER

@<TRIPOS>ATOM
      1  N        -11.1080  -31.2260  -12.7000 N.3   1702  GLY1702    -0.1210
      2  CA        -9.9740  -30.3370  -12.9010 C.3   1702  GLY1702     0.1956
      3  C         -9.7330  -29.4290  -11.7080 C.2   1702  GLY1702     0.2612
      4  O         -8.6030  -29.0030  -11.4660 O.2   1702  GLY1702    -0.2717
      5  N        -10.7880  -29.1230  -10.9540 N.am  1703  CYS1703    -0.1956
      6  CA       -10.6200  -28.3240   -9.7400 C.3   1703  CYS1703     0.1843
      7  C        -11.6340  -28.7310   -8.6790 C.2   1703  CYS1703     0.2625
      8  O        -12.6720  -29.3080   -8.9950 O.2   1703  CYS1703    -0.2714
      9  CB       -10.7170  -26.8170  -10.0380 C.3   1703  CYS1703     0.0997
     10  SG       -12.3830  -26.1860  -10.3310 S.3   1703  CYS1703    -0.0797
     11  N        -11.3280  -28.4240   -7.4230 N.am  1704  ALA1704    -0.1963
     12  CA       -12.1810  -28.8500   -6.3230 C.3   1704  ALA1704     0.1728
     13  C        -13.6220  -28.3610   -6.4650 C.2   1704  ALA1704     0.2616
     14  O        -14.5680  -29.1160   -6.2060 O.2   1704  ALA1704    -0.2715
     15  CB       -11.5860  -28.4300   -4.9930 C.3   1704  ALA1704     0.0334
     16  N        -13.8080  -27.1150   -6.8870 N.am  1705  ARG1705    -0.1963
     17  CA       -15.1740  -26.5920   -6.9800 C.3   1705  ARG1705     0.1729
     18  C        -16.0400  -27.2870   -8.0440 C.2   1705  ARG1705     0.2617
     19  O        -17.2290  -27.5380   -7.8170 O.2   1705  ARG1705    -0.2715
     20  CB       -15.1810  -25.0700   -7.1770 C.3   1705  ARG1705     0.0348
     21  CG       -16.5860  -24.4700   -7.1000 C.3   1705  ARG1705     0.0492
     22  CD       -16.5960  -22.9510   -7.2840 C.3   1705  ARG1705     0.2205
     23  NE       -15.7370  -22.2630   -6.3160 N.pl3 1705  ARG1705    -0.0865
     24  CZ       -16.1450  -21.7610   -5.1520 C.cat 1705  ARG1705     0.5346
     25  NH1      -17.4210  -21.8580   -4.7720 N.pl3 1705  ARG1705     0.1354
     26  NH2      -15.2720  -21.1520   -4.3610 N.pl3 1705  ARG1705     0.1354
     27  N        -15.4580  -27.5920   -9.2020 N.am  1706  SER1706    -0.1936
     28  CA       -16.2160  -28.2320  -10.2720 C.3   1706  SER1706     0.2055
     29  C        -16.4190  -29.7180   -9.9950 C.2   1706  SER1706     0.2643
     30  O        -17.2670  -30.3610  -10.6140 O.2   1706  SER1706    -0.2714
     31  CB       -15.5400  -28.0250  -11.6320 C.3   1706  SER1706     0.2130
     32  OG       -14.2540  -28.6320  -11.6750 O.3   1706  SER1706    -0.2179
     33  N        -15.6490  -30.2550   -9.0570 N.am  1707  GLU1707    -0.1963
     34  CA       -15.7970  -31.6540   -8.6570 C.3   1707  GLU1707     0.1733
     35  C        -16.9690  -31.8080   -7.6990 C.2   1707  GLU1707     0.2616
     36  O        -17.6780  -32.8160   -7.7300 O.2   1707  GLU1707    -0.2715
     37  CB       -14.5260  -32.1810   -7.9840 C.3   1707  GLU1707     0.0429
     38  CG       -13.4040  -32.5260   -8.9480 C.3   1707  GLU1707     0.1163
     39  CD       -13.7700  -33.6580   -9.8960 C.2   1707  GLU1707     0.3649
     40  OE1      -14.0500  -34.7780   -9.4120 O.co2 1707  GLU1707    -0.2457
     41  OE2      -13.7790  -33.4240  -11.1240 O.co2 1707  GLU1707    -0.2457
     42  N        -17.1670  -30.8010   -6.8530 N.am  1708  GLY1708    -0.1955
     43  CA       -18.2190  -30.8330   -5.8560 C.3   1708  GLY1708     0.1869
     44  C        -18.0580  -31.9590   -4.8570 C.2   1708  GLY1708     0.2309
     45  O        -16.9470  -32.3010   -4.4660 O.2   1708  GLY1708    -0.2863
@<TRIPOS>BOND
     1     2     1    1
     2     2     3    1
     3     3     4    2
     4     3     5   am
     5    32    31    1
     6    31    28    1
     7    41    39   ar
     8     5     6    1
     9    30    29    2
    10    10     9    1
    11    28    29    1
    12    28    27    1
    13     9     6    1
    14    29    33   am
    15    39    40   ar
    16    39    38    1
    17     6     7    1
    18    27    18   am
    19    33    34    1
    20     8     7    2
    21    38    37    1
    22     7    11   am
    23    34    37    1
    24    34    35    1
    25    18    19    2
    26    18    17    1
    27    36    35    2
    28    35    42   am
    29    11    12    1
    30    22    21    1
    31    22    23    1
    32    20    21    1
    33    20    17    1
    34    17    16    1
    35    16    13   am
    36    42    43    1
    37    13    12    1
    38    13    14    2
    39    12    15    1
    40    23    24    2
    41    43    44    1
    42    24    25    1
    43    24    26    1
    44    44    45    2
