@<TRIPOS>MOLECULE
4es5_MGT_A_1.pdb
 33 35 0 0 0
SMALL
GASTEIGER

@<TRIPOS>ATOM
      1  PG         4.8190   15.0360    0.8860 P.3   501  MGT501      0.5373
      2  O1G        4.1030   14.1430   -0.1490 O.2   501  MGT501     -0.2221
      3  O2G        6.3320   15.1950    0.7200 O.3   501  MGT501     -0.1143
      4  O3G        4.0560   16.3200    1.0990 O.3   501  MGT501     -0.1143
      5  O3B        4.8520   14.3290    2.3030 O.3   501  MGT501     -0.2258
      6  PB         4.2930   14.6850    3.7630 P.3   501  MGT501      0.2277
      7  O1B        2.8510   14.2410    3.8270 O.2   501  MGT501     -0.5168
      8  O2B        4.7670   15.9910    4.3540 O.3   501  MGT501     -0.4368
      9  O3A        5.1780   13.5970    4.5750 O.3   501  MGT501     -0.2700
     10  PA         5.3480   11.9440    4.4950 P.3   501  MGT501      0.2189
     11  O1A        6.7010   11.7290    4.0390 O.3   501  MGT501     -0.4371
     12  O2A        4.1620   11.2660    3.8240 O.2   501  MGT501     -0.5170
     13  O5'        5.2600   11.7430    6.0920 O.3   501  MGT501     -0.3112
     14  C5'        4.0530   11.7330    6.8120 C.3   501  MGT501      0.1813
     15  C4'        4.1700   12.6220    8.0560 C.3   501  MGT501      0.1799
     16  O4'        5.2260   12.2050    8.9280 O.3   501  MGT501     -0.3326
     17  C3'        4.4870   14.0990    7.7550 C.3   501  MGT501      0.2158
     18  O3'        3.7410   14.9330    8.7180 O.3   501  MGT501     -0.2175
     19  C2'        5.9680   14.2040    8.0430 C.3   501  MGT501      0.2310
     20  O2'        6.4080   15.5130    8.4720 O.3   501  MGT501     -0.2158
     21  C1'        5.9580   13.3180    9.2720 C.3   501  MGT501      0.2287
     22  N9         7.2920   12.8200    9.6040 N.pl3 501  MGT501     -0.2454
     23  C8         7.8800   11.6660    8.8970 C.3   501  MGT501      0.1735
     24  N7         9.1620   11.5240    9.5830 N.3   501  MGT501     -0.2343
     25  CM7       10.0670   10.3810    9.2970 C.3   501  MGT501      0.0924
     26  C5         9.1740   12.2590   10.7700 C.3   501  MGT501      0.2475
     27  C6        10.1140   12.4490   11.8530 C.1   501  MGT501      0.2145
     28  O6        11.1720   11.7740   11.9740 O.2   501  MGT501     -0.2115
     29  N1         9.8040   13.4580   12.7340 N.2   501  MGT501     -0.2526
     30  C2         8.7030   14.2290   12.6400 C.1   501  MGT501      0.2525
     31  N2         8.4970   15.1720   13.5830 N.pl3 501  MGT501     -0.0226
     32  N3         7.8020   14.0900   11.6480 N.2   501  MGT501     -0.3118
     33  C4         8.0430   13.1910   10.6950 C.2   501  MGT501      0.2086
@<TRIPOS>BOND
     1     2     1    2
     2     3     1    1
     3     1     4    1
     4     1     5    1
     5     5     6    1
     6     6     7    2
     7     6     8    1
     8     6     9    1
     9    12    10    2
    10    11    10    1
    11    10     9    1
    12    10    13    1
    13    13    14    1
    14    14    15    1
    15    17    19    1
    16    17    15    1
    17    17    18    1
    18    19    20    1
    19    19    21    1
    20    15    16    1
    21    23    24    1
    22    23    22    1
    23    16    21    1
    24    21    22    1
    25    25    24    1
    26    24    26    1
    27    22    33    1
    28    33    26    1
    29    33    32    2
    30    26    27    1
    31    32    30    2
    32    27    28    2
    33    27    29    2
    34    30    29    2
    35    30    31    1
