@<TRIPOS>MOLECULE
4esa_HEM_A_1.pdb
 43 50 0 0 0
SMALL
GASTEIGER

@<TRIPOS>ATOM
      1  CHA      -38.4780   13.7420  -39.8400 C.2   202  HEM202      0.0000
      2  CHB      -36.8700    9.9930  -37.2380 C.2   202  HEM202      0.0000
      3  CHC      -32.6250   12.1950  -36.7410 C.2   202  HEM202      0.0000
      4  CHD      -34.4310   16.1780  -38.8140 C.2   202  HEM202      0.0000
      5  C1A      -38.4100   12.5460  -39.1600 C.2   202  HEM202      0.0000
      6  C2A      -39.4700   11.5550  -39.1030 C.2   202  HEM202      0.0000
      7  C3A      -39.0320   10.5260  -38.3850 C.2   202  HEM202      0.0000
      8  C4A      -37.6830   10.8290  -37.9690 C.2   202  HEM202      0.0000
      9  CMA      -39.7750    9.2240  -37.9980 C.3   202  HEM202      0.0000
     10  CAA      -40.8000   11.7140  -39.8610 C.3   202  HEM202      0.0000
     11  CBA      -40.7120   11.4470  -41.3940 C.3   202  HEM202      0.0000
     12  CGA      -42.0150   11.8890  -42.0830 C.2   202  HEM202      0.0000
     13  O1A      -42.0330   13.0650  -42.4950 O.co2 202  HEM202      0.0000
     14  O2A      -42.9020   11.0100  -42.1160 O.co2 202  HEM202      0.0000
     15  C1B      -35.5500   10.2350  -36.9270 C.ar  202  HEM202      0.0000
     16  C2B      -34.6630    9.2990  -36.2700 C.ar  202  HEM202      0.0000
     17  C3B      -33.4730    9.9080  -36.1190 C.ar  202  HEM202      0.0000
     18  C4B      -33.5760   11.2080  -36.7290 C.ar  202  HEM202      0.0000
     19  CMB      -35.0750    7.8670  -35.8800 C.3   202  HEM202      0.0000
     20  CAB      -32.2120    9.3370  -35.4430 C.2   202  HEM202      0.0000
     21  CBB      -31.0150    9.4230  -36.0110 C.2   202  HEM202      0.0000
     22  C1C      -32.7710   13.4760  -37.2230 C.2   202  HEM202      0.0000
     23  C2C      -31.7940   14.5340  -37.0460 C.2   202  HEM202      0.0000
     24  C3C      -32.2860   15.6380  -37.6090 C.2   202  HEM202      0.0000
     25  C4C      -33.6190   15.3120  -38.1070 C.2   202  HEM202      0.0000
     26  CMC      -30.4400   14.2810  -36.3370 C.3   202  HEM202      0.0000
     27  CAC      -31.7070   17.0530  -37.7220 C.2   202  HEM202      0.0000
     28  CBC      -30.9850   17.6040  -36.7490 C.2   202  HEM202      0.0000
     29  C1D      -35.6950   15.8660  -39.2900 C.ar  202  HEM202      0.0000
     30  C2D      -36.5480   16.7550  -40.0420 C.ar  202  HEM202      0.0000
     31  C3D      -37.6390   16.0490  -40.4010 C.ar  202  HEM202      0.0000
     32  C4D      -37.5410   14.7500  -39.8020 C.ar  202  HEM202      0.0000
     33  CMD      -36.1760   18.2120  -40.3880 C.3   202  HEM202      0.0000
     34  CAD      -38.9110   16.5740  -41.1090 C.3   202  HEM202      0.0000
     35  CBD      -39.7470   17.5670  -40.2600 C.3   202  HEM202      0.0000
     36  CGD      -40.9500   18.0900  -41.0430 C.2   202  HEM202      0.0000
     37  O1D      -41.9480   17.3280  -41.0450 O.co2 202  HEM202      0.0000
     38  O2D      -40.8040   19.1910  -41.5940 O.co2 202  HEM202      0.0000
     39  NA       -37.3210   12.0790  -38.4510 N.2   202  HEM202      0.0000
     40  NB       -34.8870   11.4160  -37.1740 N.ar  202  HEM202      0.0000
     41  NC       -33.8640   13.9660  -37.9050 N.2   202  HEM202      0.0000
     42  ND       -36.3180   14.6430  -39.1380 N.ar  202  HEM202      0.0000
     43 FE        -35.6320   13.0350  -38.1360 Fe    202  HEM202      0.0000
@<TRIPOS>BOND
     1    13    12   ar
     2    14    12   ar
     3    12    11    1
     4    38    36   ar
     5    11    10    1
     6    34    31    1
     7    34    35    1
     8    37    36   ar
     9    36    35    1
    10    31    30   ar
    11    31    32   ar
    12    33    30    1
    13    30    29   ar
    14    10     6    1
    15     1    32    2
    16     1     5    1
    17    32    42   ar
    18    29    42   ar
    19    29     4    2
    20     5     6    1
    21     5    39    2
    22    42    43    1
    23     6     7    2
    24     4    25    1
    25    39    43    1
    26    39     8    1
    27     7     9    1
    28     7     8    1
    29    43    41    1
    30    43    40    1
    31    25    41    2
    32    25    24    1
    33     8     2    2
    34    41    22    1
    35    27    24    1
    36    27    28    2
    37    24    23    2
    38     2    15    1
    39    22    23    1
    40    22     3    2
    41    40    15   ar
    42    40    18   ar
    43    23    26    1
    44    15    16   ar
    45     3    18    1
    46    18    17   ar
    47    16    17   ar
    48    16    19    1
    49    17    20    1
    50    21    20    2
