@<TRIPOS>MOLECULE
4ese_FMN_A_1.pdb
 31 33 0 0 0
SMALL
GASTEIGER

@<TRIPOS>ATOM
      1  N1       -34.6790  -13.6540   11.1050 N.2   301  FMN301     -0.2887
      2  C2       -34.2380  -14.9460   11.2880 C.1   301  FMN301      0.3669
      3  O2       -33.2150  -15.1570   11.9370 O.2   301  FMN301     -0.1744
      4  N3       -34.9390  -16.0010   10.7460 N.2   301  FMN301     -0.2300
      5  C4       -36.0850  -15.7720   10.0130 C.1   301  FMN301      0.2513
      6  O4       -36.7060  -16.7210    9.5330 O.2   301  FMN301     -0.2057
      7  C4A      -36.5270  -14.4700    9.8270 C.2   301  FMN301      0.2703
      8  N5       -37.6670  -14.2190    9.1000 N.2   301  FMN301     -0.3882
      9  C5A      -38.1110  -12.9200    8.9240 C.2   301  FMN301      0.1277
     10  C6       -39.2620  -12.6720    8.1830 C.3   301  FMN301      0.0820
     11  C7       -39.7170  -11.3700    8.0030 C.2   301  FMN301     -0.0408
     12  C7M      -40.9710  -11.1130    7.2170 C.3   301  FMN301      0.0265
     13  C8       -39.0030  -10.3040    8.5580 C.2   301  FMN301     -0.0280
     14  C8M      -39.4970   -8.9020    8.3510 C.3   301  FMN301      0.0304
     15  C9       -37.8440  -10.5520    9.2840 C.2   301  FMN301      0.0123
     16  C9A      -37.3970  -11.8560    9.4760 C.2   301  FMN301      0.0793
     17  N10      -36.2440  -12.1120   10.1960 N.pl3 301  FMN301     -0.2545
     18  C10      -35.8220  -13.4110   10.3800 C.2   301  FMN301      0.2449
     19  C1'      -35.4570  -10.9900   10.8110 C.3   301  FMN301      0.1336
     20  C2'      -34.4980  -10.3740    9.7990 C.3   301  FMN301      0.2048
     21  O2'      -33.6100  -11.3550    9.3300 O.3   301  FMN301     -0.2185
     22  C3'      -33.6480   -9.2880   10.4430 C.3   301  FMN301      0.2165
     23  O3'      -33.2120   -9.7160   11.7150 O.3   301  FMN301     -0.2175
     24  C4'      -34.3800   -7.9630   10.5820 C.3   301  FMN301      0.2147
     25  O4'      -35.6480   -8.0040    9.9640 O.3   301  FMN301     -0.2176
     26  C5'      -33.5060   -6.9100    9.9250 C.3   301  FMN301      0.1892
     27  O5'      -33.9930   -5.6210   10.1890 O.3   301  FMN301     -0.2674
     28  P        -32.9960   -4.3880    9.9370 P.3   301  FMN301      0.5327
     29  O1P      -32.6750   -4.3420    8.4620 O.2   301  FMN301     -0.2224
     30  O2P      -33.6610   -3.1000   10.3640 O.3   301  FMN301     -0.1145
     31  O3P      -31.7350   -4.6220   10.7350 O.3   301  FMN301     -0.1145
@<TRIPOS>BOND
     1    12    11    1
     2    11    10    1
     3    11    13    2
     4    10     9    1
     5    14    13    1
     6    29    28    2
     7    13    15    1
     8     9     8    2
     9     9    16    1
    10     8     7    2
    11    15    16    2
    12    21    20    1
    13    16    17    1
    14     6     5    2
    15    20    22    1
    16    20    19    1
    17     7     5    1
    18     7    18    1
    19    26    27    1
    20    26    24    1
    21    28    27    1
    22    28    30    1
    23    28    31    1
    24    25    24    1
    25     5     4    2
    26    17    18    1
    27    17    19    1
    28    18     1    2
    29    22    24    1
    30    22    23    1
    31     4     2    2
    32     1     2    2
    33     2     3    2
