@<TRIPOS>MOLECULE
4esi_0RB_A_1.pdb
 21 23 0 0 0
SMALL
GASTEIGER

@<TRIPOS>ATOM
      1  C1       -24.1160    8.9850   -6.5720 C.1   301  0RB301      0.2617
      2  C2       -22.8850    9.0710   -8.5940 C.1   301  0RB301      0.2452
      3  C3       -23.3110   10.4330   -8.8210 C.2   301  0RB301      0.2585
      4  C4       -24.2310   10.9530   -7.8090 C.1   301  0RB301      0.1811
      5  C5       -24.3260   12.9010   -9.0980 C.2   301  0RB301      0.2005
      6  C6       -23.4560   12.3860  -10.0850 C.3   301  0RB301      0.1914
      7  O2       -25.6970   14.6750   -8.3970 O.2   301  0RB301     -0.2658
      8  C7       -24.9570   14.2350   -9.2640 C.2   301  0RB301      0.2936
      9  N5       -22.9570   11.1380   -9.9340 N.2   301  0RB301     -0.2401
     10  O1       -22.1290    8.5150   -9.4200 O.2   301  0RB301     -0.2062
     11  N2       -23.3190    8.4520   -7.4930 N.2   301  0RB301     -0.2474
     12  N4       -24.6600   12.2030   -8.0060 N.2   301  0RB301     -0.3352
     13  N3       -24.5480   10.2350   -6.7200 N.2   301  0RB301     -0.2561
     14  N1       -24.4630    8.2060   -5.4990 N.pl3 301  0RB301     -0.0220
     15  N6       -24.8400   14.7770  -10.4830 N.am  301  0RB301     -0.1930
     16  C8       -25.6200   15.8770  -10.9930 C.3   301  0RB301      0.1645
     17  C9       -27.0850   15.5690  -11.1140 C.ar  301  0RB301      0.1249
     18  N9       -27.7140   14.3900  -10.8330 N.ar  301  0RB301     -0.1297
     19  N8       -29.0810   14.5700  -11.0530 N.ar  301  0RB301     -0.0423
     20  N7       -29.2510   15.8980  -11.4540 N.ar  301  0RB301     -0.1257
     21  C10      -28.0450   16.4970  -11.4900 C.ar  301  0RB301      0.1421
@<TRIPOS>BOND
     1    21    20   ar
     2    21    17   ar
     3    20    19   ar
     4    17    16    1
     5    17    18   ar
     6    19    18   ar
     7    16    15    1
     8    15     8   am
     9     6     9    1
    10     6     5    1
    11     9     3    2
    12    10     2    2
    13     8     5    1
    14     8     7    2
    15     5    12    2
    16     3     2    1
    17     3     4    1
    18     2    11    2
    19    12     4    2
    20     4    13    2
    21    11     1    2
    22    13     1    2
    23     1    14    1
