@<TRIPOS>MOLECULE
4eso_NAP_A_1.pdb
 48 52 0 0 0
SMALL
GASTEIGER

@<TRIPOS>ATOM
      1  PA         3.2400    5.8250  -20.4990 P.3   700  NAP700      0.2189
      2  O1A        1.8840    6.1620  -19.9360 O.3   700  NAP700     -0.4371
      3  O2A        3.8960    6.6880  -21.5540 O.2   700  NAP700     -0.5170
      4  O5B        3.1300    4.3610  -21.1530 O.3   700  NAP700     -0.3112
      5  C5B        3.0360    3.2360  -20.2870 C.3   700  NAP700      0.1813
      6  C4B        3.0850    1.9800  -21.1330 C.3   700  NAP700      0.1820
      7  O4B        1.9390    1.9280  -21.9680 O.3   700  NAP700     -0.3136
      8  C3B        4.2730    1.9900  -22.0640 C.3   700  NAP700      0.2157
      9  O3B        4.9310    0.7450  -21.8520 O.3   700  NAP700     -0.2175
     10  C2B        3.7050    2.0290  -23.4760 C.3   700  NAP700      0.2314
     11  O2B        4.4430    1.2070  -24.3830 O.3   700  NAP700     -0.2630
     12  C1B        2.3220    1.4590  -23.2570 C.3   700  NAP700      0.3158
     13  N9A        1.3260    1.8120  -24.3090 N.pl3 700  NAP700     -0.1439
     14  C8A        0.9630    3.0380  -24.7390 C.3   700  NAP700      0.3377
     15  N7A        0.0240    2.9260  -25.7200 N.2   700  NAP700     -0.2095
     16  C5A       -0.2230    1.6180  -25.9300 C.2   700  NAP700      0.2526
     17  C6A       -1.0960    0.8190  -26.8180 C.2   700  NAP700      0.4393
     18  N6A       -1.9270    1.4130  -27.7220 N.pl3 700  NAP700      0.2180
     19  N1A       -1.0300   -0.5320  -26.6960 N.2   700  NAP700      0.0021
     20  C2A       -0.2120   -1.1480  -25.8190 C.3   700  NAP700      0.5254
     21  N3A        0.6110   -0.4800  -24.9850 N.2   700  NAP700     -0.0055
     22  C4A        0.6430    0.8830  -24.9970 C.2   700  NAP700      0.3518
     23  O3         4.3370    5.5110  -19.3500 O.3   700  NAP700     -0.2703
     24  PN         4.3460    5.9370  -17.7890 P.3   700  NAP700      0.2189
     25  O1N        4.6920    7.4060  -17.6590 O.2   700  NAP700     -0.5170
     26  O2N        5.2120    4.9030  -17.0650 O.3   700  NAP700     -0.4371
     27  O5D        2.8190    5.7160  -17.3750 O.3   700  NAP700     -0.3112
     28  C5D        2.3560    4.4840  -16.8180 C.3   700  NAP700      0.1813
     29  C4D        0.8830    4.6540  -16.4760 C.3   700  NAP700      0.1799
     30  O4D        0.7710    5.5990  -15.4100 O.3   700  NAP700     -0.3327
     31  C3D        0.1000    5.2520  -17.6320 C.3   700  NAP700      0.2158
     32  O3D       -1.1700    4.6150  -17.5850 O.3   700  NAP700     -0.2175
     33  C2D       -0.0380    6.7180  -17.2920 C.3   700  NAP700      0.2309
     34  O2D       -1.1950    7.2840  -17.9110 O.3   700  NAP700     -0.2158
     35  C1D       -0.1030    6.6770  -15.7750 C.3   700  NAP700      0.2263
     36  N1N        0.4040    7.8330  -15.0390 N.pl3 700  NAP700     -0.2787
     37  C2N        1.6410    8.3000  -15.2690 C.3   700  NAP700      0.1244
     38  C3N        2.1080    9.3810  -14.5210 C.2   700  NAP700      0.0544
     39  C7N        3.4720    9.9570  -14.7220 C.2   700  NAP700      0.2818
     40  O7N        3.7430   10.9490  -14.0580 O.2   700  NAP700     -0.2670
     41  N7N        4.3270    9.3570  -15.5630 N.am  700  NAP700     -0.0839
     42  C4N        1.2990    9.9590  -13.5400 C.2   700  NAP700      0.0033
     43  C5N        0.0370    9.4440  -13.3010 C.2   700  NAP700      0.0157
     44  C6N       -0.3780    8.3610  -14.0700 C.2   700  NAP700      0.0633
     45  P2B        5.0160    1.7550  -25.7910 P.3   700  NAP700      0.5328
     46  O1X        6.2820    0.9560  -26.0090 O.3   700  NAP700     -0.1145
     47  O2X        5.2530    3.2350  -25.5430 O.3   700  NAP700     -0.1145
     48  O3X        3.9410    1.4720  -26.8310 O.2   700  NAP700     -0.2224
@<TRIPOS>BOND
     1    18    17    1
     2    48    45    2
     3    17    19    2
     4    17    16    1
     5    19    20    1
     6    46    45    1
     7    16    15    2
     8    16    22    1
     9    20    21    1
    10    45    47    1
    11    45    11    1
    12    15    14    1
    13    22    21    2
    14    22    13    1
    15    14    13    1
    16    11    10    1
    17    13    12    1
    18    10    12    1
    19    10     8    1
    20    12     7    1
    21     8     9    1
    22     8     6    1
    23     7     6    1
    24     3     1    2
    25     4     1    1
    26     4     5    1
    27     6     5    1
    28     1     2    1
    29     1    23    1
    30    23    24    1
    31    34    33    1
    32    24    25    2
    33    24    27    1
    34    24    26    1
    35    31    32    1
    36    31    33    1
    37    31    29    1
    38    27    28    1
    39    33    35    1
    40    28    29    1
    41    29    30    1
    42    35    30    1
    43    35    36    1
    44    41    39   am
    45    37    36    1
    46    37    38    1
    47    36    44    1
    48    39    38    1
    49    39    40    2
    50    38    42    2
    51    44    43    2
    52    42    43    1
