@<TRIPOS>MOLECULE
4est_III_I_1.pdb
 36 37 0 0 0
SMALL
GASTEIGER

@<TRIPOS>ATOM
      1  C        -15.7140   18.5650   39.5850 C.2     1  ACE1        0.2423
      2  O        -15.1390   17.4920   39.2350 O.2     1  ACE1       -0.2733
      3  CH3      -16.6380   18.6530   40.8010 C.3     1  ACE1        0.0964
      4  N        -15.6320   19.7190   38.9060 N.am    2  ALA2       -0.1978
      5  CA       -14.8230   19.8430   37.7090 C.3     2  ALA2        0.1716
      6  C        -13.5520   20.6370   38.0640 C.2     2  ALA2        0.2496
      7  O        -13.5300   21.8720   38.0000 O.2     2  ALA2       -0.2727
      8  CB       -15.6560   20.5910   36.6980 C.3     2  ALA2        0.0333
      9  N        -12.5350   19.9370   38.5850 N.am    3  PRO3       -0.2490
     10  CA       -11.2670   20.5480   38.9520 C.3     3  PRO3        0.1619
     11  C        -10.8150   21.3500   37.7690 C.2     3  PRO3        0.2601
     12  O        -10.7290   20.8130   36.6500 O.2     3  PRO3       -0.2715
     13  CB       -10.2700   19.4580   39.1440 C.3     3  PRO3        0.0570
     14  CG       -10.9600   18.1360   38.7770 C.2     3  PRO3       -0.0077
     15  CD       -12.4030   18.5000   38.4260 C.2     3  PRO3        0.0634
     16  N        -10.5810   22.6310   38.0010 N.am    4  VAL4       -0.2030
     17  CA       -10.1080   23.6630   37.0890 C.3     4  VAL4        0.1312
     18  C         -8.5480   23.7550   37.1250 C.3     4  VAL4        0.2363
     19  O         -8.1160   24.9530   36.5630 O.3     4  VAL4       -0.2153
     20  CB       -10.7780   24.9550   37.5420 C.3     4  VAL4        0.0227
     21  CG1      -12.1960   24.7750   37.1310 C.3     4  VAL4        0.0019
     22  CG2      -10.6960   25.1770   39.0450 C.3     4  VAL4        0.0019
     23  C1        -7.9720   22.7280   36.1770 C.3     5  FPA5        0.3356
     24  F1        -7.9340   21.4980   36.5290 F       5  FPA5       -0.1971
     25  F2        -8.6720   22.5810   35.1320 F       5  FPA5       -0.1971
     26  C2        -6.7660   22.9560   35.3890 C.3     5  FPA5        0.2894
     27  O1        -5.9140   22.0690   35.4780 O.3     5  FPA5       -0.1975
     28  C1'       -6.1460   23.8760   30.5680 C.ar    6  PEA6       -0.0207
     29  C6'       -4.8920   23.2880   30.2330 C.ar    6  PEA6       -0.0042
     30  C5'       -4.2110   23.7600   29.0910 C.ar    6  PEA6       -0.0003
     31  C4'       -4.8410   24.7240   28.2550 C.ar    6  PEA6       -0.0000
     32  C3'       -6.1170   25.2590   28.5520 C.ar    6  PEA6       -0.0003
     33  C2'       -6.7500   24.8570   29.7430 C.ar    6  PEA6       -0.0042
     34  C2        -6.8730   23.4210   31.8320 C.3     6  PEA6        0.0452
     35  C1        -6.0850   23.4870   33.1180 C.3     6  PEA6        0.0962
     36  N         -7.0740   23.4350   34.1790 N.3     6  PEA6       -0.1841
@<TRIPOS>BOND
     1    31    32   ar
     2    31    30   ar
     3    32    33   ar
     4    30    29   ar
     5    33    28   ar
     6    29    28   ar
     7    28    34    1
     8    34    35    1
     9    35    36    1
    10    36    26    1
    11    25    23    1
    12    26    27    1
    13    26    23    1
    14    23    24    1
    15    23    18    1
    16    19    18    1
    17    12    11    2
    18     8     5    1
    19    17    18    1
    20    17    20    1
    21    17    16    1
    22    21    20    1
    23    20    22    1
    24     5     6    1
    25     5     4    1
    26    11    16   am
    27    11    10    1
    28     7     6    2
    29     6     9   am
    30    15     9    1
    31    15    14    2
    32     9    10    1
    33    14    13    1
    34     4     1   am
    35    10    13    1
    36     2     1    2
    37     1     3    1
