@<TRIPOS>MOLECULE
4esv_GDP_A_1.pdb
 28 30 0 0 0
SMALL
GASTEIGER

@<TRIPOS>ATOM
      1  PB       128.4180   66.5660   85.2860 P.3   502  GDP502      0.5373
      2  O1B      127.6190   66.8400   84.0210 O.2   502  GDP502     -0.2221
      3  O2B      129.0860   65.2210   85.2340 O.3   502  GDP502     -0.1143
      4  O3B      127.4650   66.4230   86.4510 O.3   502  GDP502     -0.1143
      5  O3A      129.4920   67.7600   85.5890 O.3   502  GDP502     -0.2261
      6  PA       131.0740   67.4750   85.3960 P.3   502  GDP502      0.2231
      7  O1A      131.3800   67.4930   83.9270 O.2   502  GDP502     -0.5169
      8  O2A      131.4090   66.1380   85.9960 O.3   502  GDP502     -0.4370
      9  O5'      131.9900   68.5320   86.2060 O.3   502  GDP502     -0.3111
     10  C5'      133.4200   68.3250   86.1800 C.3   502  GDP502      0.1813
     11  C4'      134.1030   67.8080   87.4670 C.3   502  GDP502      0.1799
     12  O4'      135.4900   68.2160   87.5900 O.3   502  GDP502     -0.3326
     13  C3'      133.4500   68.2570   88.7600 C.3   502  GDP502      0.2158
     14  O3'      133.4250   67.0560   89.5040 O.3   502  GDP502     -0.2175
     15  C2'      134.3820   69.2720   89.3940 C.3   502  GDP502      0.2310
     16  O2'      134.5330   69.0250   90.7620 O.3   502  GDP502     -0.2158
     17  C1'      135.7430   68.9390   88.8310 C.3   502  GDP502      0.2293
     18  N9       136.5270   70.2230   88.7070 N.pl3 502  GDP502     -0.2354
     19  C8       136.1470   71.2180   87.8900 C.3   502  GDP502      0.2246
     20  N7       136.9950   72.2660   87.8970 N.2   502  GDP502     -0.2322
     21  C5       137.9560   71.9680   88.7580 C.2   502  GDP502      0.2182
     22  C6       139.1330   72.7190   89.2200 C.1   502  GDP502      0.2372
     23  O6       139.3360   73.8790   88.7640 O.2   502  GDP502     -0.2069
     24  N1       139.9140   72.1020   90.1220 N.2   502  GDP502     -0.2485
     25  C2       139.6240   70.8660   90.5810 C.1   502  GDP502      0.2531
     26  N2       140.4560   70.3280   91.4790 N.pl3 502  GDP502     -0.0226
     27  N3       138.5520   70.1360   90.2020 N.2   502  GDP502     -0.3074
     28  C4       137.6720   70.6280   89.3010 C.2   502  GDP502      0.2300
@<TRIPOS>BOND
     1     7     6    2
     2     2     1    2
     3     3     1    1
     4     1     5    1
     5     1     4    1
     6     6     5    1
     7     6     8    1
     8     6     9    1
     9    10     9    1
    10    10    11    1
    11    11    12    1
    12    11    13    1
    13    12    17    1
    14    19    20    1
    15    19    18    1
    16    20    21    2
    17    18    17    1
    18    18    28    1
    19    21    22    1
    20    21    28    1
    21    13    15    1
    22    13    14    1
    23    23    22    2
    24    17    15    1
    25    22    24    2
    26    28    27    2
    27    15    16    1
    28    24    25    2
    29    27    25    2
    30    25    26    1
