@<TRIPOS>MOLECULE
4etj_PE6_A_1.pdb
 16 15 0 0 0
SMALL
GASTEIGER

@<TRIPOS>ATOM
      1  C3        11.3940    8.0340   18.5950 C.3   204  PE6204      0.2140
      2  O2        10.9050    9.3680   18.4690 O.3   204  PE6204     -0.2176
      3  C4        12.1350    7.7060   17.2520 C.3   204  PE6204      0.1777
      4  O5        11.1540    7.0780   16.4020 O.3   204  PE6204     -0.3483
      5  C6        11.5820    6.9930   15.0210 C.3   204  PE6204      0.1742
      6  C7        10.5840    6.0030   14.3160 C.3   204  PE6204      0.1742
      7  O8         9.5600    6.8500   13.7870 O.3   204  PE6204     -0.3484
      8  C9         8.4950    6.1710   13.1950 C.3   204  PE6204      0.1742
      9  C10        7.4230    7.2470   13.0090 C.3   204  PE6204      0.1742
     10  O11        6.4770    6.6420   12.1510 O.3   204  PE6204     -0.3484
     11  O17        3.1660    2.3540   11.0210 O.3   204  PE6204     -0.2176
     12  C16        3.0390    3.3560   11.9610 C.3   204  PE6204      0.2140
     13  C15        2.9800    4.6550   11.1650 C.3   204  PE6204      0.1777
     14  O14        3.8540    5.5430   11.8370 O.3   204  PE6204     -0.3483
     15  C13        4.4410    6.4970   10.9650 C.3   204  PE6204      0.1742
     16  C12        5.3370    7.4320   11.8770 C.3   204  PE6204      0.1742
@<TRIPOS>BOND
     1    15    14    1
     2    15    16    1
     3    11    12    1
     4    13    14    1
     5    13    12    1
     6    16    10    1
     7    10     9    1
     8     9     8    1
     9     8     7    1
    10     7     6    1
    11     6     5    1
    12     5     4    1
    13     4     3    1
    14     3     1    1
    15     2     1    1
