@<TRIPOS>MOLECULE
4etp_EBC_B_1.pdb
 10 9 0 0 0
SMALL
GASTEIGER

@<TRIPOS>ATOM
      1  O10       17.0070  -41.3960  -33.7970 O.2   701  EBC701     -0.2733
      2  C2        17.3970  -42.5070  -33.4670 C.2   701  EBC701      0.2419
      3  C1        17.1160  -43.0660  -32.1040 C.3   701  EBC701      0.0964
      4  N3        18.1010  -43.3070  -34.2710 N.am  701  EBC701     -0.2035
      5  C4        18.3440  -43.0200  -35.6740 C.3   701  EBC701      0.1385
      6  C5        19.7990  -42.6480  -35.9360 C.3   701  EBC701      0.1385
      7  N6        20.1360  -41.3460  -35.3880 N.am  701  EBC701     -0.2035
      8  C7        20.8320  -41.2150  -34.2600 C.2   701  EBC701      0.2419
      9  O9        20.3730  -41.5170  -33.1700 O.2   701  EBC701     -0.2733
     10  C8        22.2230  -40.6700  -34.4020 C.3   701  EBC701      0.0964
@<TRIPOS>BOND
     1     6     5    1
     2     6     7    1
     3     5     4    1
     4     7     8   am
     5    10     8    1
     6     4     2   am
     7     8     9    2
     8     1     2    2
     9     2     3    1
