@<TRIPOS>MOLECULE
4etp_ADP_A_1.pdb
 27 29 0 0 0
SMALL
GASTEIGER

@<TRIPOS>ATOM
      1  PB       -10.9320  -15.0200   -6.0210 P.3   801  ADP801      0.5373
      2  O1B       -9.9100  -14.0890   -6.6330 O.2   801  ADP801     -0.2221
      3  O2B      -10.3670  -16.3120   -5.4770 O.3   801  ADP801     -0.1143
      4  O3B      -11.9130  -14.3280   -5.1120 O.3   801  ADP801     -0.1143
      5  PA       -12.4940  -16.8900   -7.5360 P.3   801  ADP801      0.2231
      6  O1A      -11.4540  -17.9200   -7.9180 O.2   801  ADP801     -0.5169
      7  O2A      -13.4330  -17.1620   -6.3890 O.3   801  ADP801     -0.4370
      8  O3A      -11.7920  -15.4590   -7.3030 O.3   801  ADP801     -0.2261
      9  O5'      -13.3480  -16.5580   -8.8600 O.3   801  ADP801     -0.3111
     10  C5'      -14.5660  -15.8040   -8.8160 C.3   801  ADP801      0.1813
     11  C4'      -15.5510  -16.3640   -9.8460 C.3   801  ADP801      0.1821
     12  O4'      -14.9940  -16.2540  -11.1600 O.3   801  ADP801     -0.3135
     13  C3'      -15.8270  -17.8460   -9.6380 C.3   801  ADP801      0.2184
     14  O3'      -17.1920  -18.1160   -9.9610 O.3   801  ADP801     -0.2174
     15  C2'      -14.9390  -18.5490  -10.6420 C.3   801  ADP801      0.2570
     16  O2'      -15.5160  -19.7890  -11.0560 O.3   801  ADP801     -0.2130
     17  C1'      -14.8560  -17.5410  -11.7740 C.3   801  ADP801      0.3186
     18  N9       -13.5550  -17.5730  -12.4780 N.pl3 801  ADP801     -0.1439
     19  C8       -12.4020  -17.0590  -12.0120 C.3   801  ADP801      0.3377
     20  N7       -11.3940  -17.2380  -12.8990 N.2   801  ADP801     -0.2095
     21  C5       -11.9090  -17.8720  -13.9680 C.2   801  ADP801      0.2526
     22  C6       -11.3970  -18.3660  -15.2640 C.2   801  ADP801      0.4393
     23  N6       -10.0960  -18.2070  -15.6040 N.pl3 801  ADP801      0.2180
     24  N1       -12.2760  -18.9820  -16.0950 N.2   801  ADP801      0.0021
     25  C2       -13.5750  -19.1460  -15.7780 C.3   801  ADP801      0.5254
     26  N3       -14.1000  -18.7230  -14.6140 N.2   801  ADP801     -0.0055
     27  C4       -13.3350  -18.0920  -13.6880 C.2   801  ADP801      0.3518
@<TRIPOS>BOND
     1    24    25    1
     2    24    22    2
     3    25    26    1
     4    23    22    1
     5    22    21    1
     6    26    27    2
     7    21    27    1
     8    21    20    2
     9    27    18    1
    10    20    19    1
    11    18    19    1
    12    18    17    1
    13    17    12    1
    14    17    15    1
    15    12    11    1
    16    16    15    1
    17    15    13    1
    18    14    13    1
    19    11    13    1
    20    11    10    1
    21     9    10    1
    22     9     5    1
    23     6     5    2
    24     5     8    1
    25     5     7    1
    26     8     1    1
    27     2     1    2
    28     1     3    1
    29     1     4    1
