@<TRIPOS>MOLECULE
4etw_ZMK_B_1.pdb
 33 32 0 0 0
SMALL
GASTEIGER

@<TRIPOS>ATOM
      1  OAE      -12.6600  -10.9230   25.9650 O.2   600  ZMK600     -0.2501
      2  CBB      -13.6460  -11.2820   25.3520 C.2   600  ZMK600      0.3171
      3  OAX      -13.7820  -12.6740   24.9800 O.3   600  ZMK600     -0.4444
      4  CAA      -13.7020  -13.7460   25.9380 C.3   600  ZMK600      0.2556
      5  CAR      -14.7270  -10.3070   24.9380 C.3   600  ZMK600      0.1096
      6  CAM      -16.0350  -10.7850   25.5730 C.3   600  ZMK600      0.0117
      7  CAL      -17.2220  -10.5500   24.6570 C.3   600  ZMK600      0.0010
      8  CAN      -18.1310   -9.4910   25.2590 C.3   600  ZMK600      0.0087
      9  CAT      -19.2680  -10.1300   26.0410 C.3   600  ZMK600      0.0759
     10  CBC      -20.4260  -10.3500   25.1030 C.2   600  ZMK600      0.1988
     11  OAF      -20.7000  -11.4570   24.6740 O.2   600  ZMK600     -0.2845
     12  SAZ      -21.3880   -9.0990   24.5880 S.3   600  ZMK600     -0.0753
     13  CAQ      -22.7090   -9.9940   23.8420 C.3   600  ZMK600      0.0883
     14  CAO      -22.4440  -10.1510   22.3570 C.3   600  ZMK600      0.1272
     15  NAV      -23.5050  -11.0240   21.8720 N.am  600  ZMK600     -0.2044
     16  CBA      -23.6500  -11.4040   20.6050 C.2   600  ZMK600      0.2432
     17  OAD      -22.8930  -11.0500   19.7210 O.2   600  ZMK600     -0.2733
     18  CAS      -24.7970  -12.3150   20.2840 C.3   600  ZMK600      0.1102
     19  CAP      -25.6030  -11.7030   19.1490 C.3   600  ZMK600      0.1248
     20  NAW      -25.8630  -12.8750   18.3450 N.am  600  ZMK600     -0.2028
     21  CBD      -27.0080  -13.5310   18.2560 C.2   600  ZMK600      0.2719
     22  OAG      -28.0200  -13.2100   18.8600 O.2   600  ZMK600     -0.2706
     23  CBE      -26.9610  -14.7170   17.3460 C.3   600  ZMK600      0.2312
     24  OAI      -25.6010  -15.1500   17.2160 O.3   600  ZMK600     -0.2131
     25  CBF      -27.7930  -15.8640   17.8970 C.3   600  ZMK600      0.0647
     26  CAC      -29.2750  -15.5150   17.8630 C.3   600  ZMK600      0.0056
     27  CAB      -27.3640  -16.2020   19.3210 C.3   600  ZMK600      0.0056
     28  CAU      -27.5330  -17.0440   16.9860 C.3   600  ZMK600      0.1565
     29  OAY      -28.6170  -17.9300   17.1600 O.3   600  ZMK600     -0.2702
     30  PBG      -28.7180  -19.2560   16.2770 P.3   600  ZMK600      0.5326
     31  OAJ      -27.9180  -18.9480   15.0370 O.2   600  ZMK600     -0.2224
     32  OAK      -28.1100  -20.3060   17.1690 O.3   600  ZMK600     -0.1145
     33  OAH      -30.2110  -19.3870   16.0730 O.3   600  ZMK600     -0.1145
@<TRIPOS>BOND
     1    31    30    2
     2    33    30    1
     3    30    29    1
     4    30    32    1
     5    28    29    1
     6    28    25    1
     7    24    23    1
     8    23    25    1
     9    23    21    1
    10    26    25    1
    11    25    27    1
    12    21    20   am
    13    21    22    2
    14    20    19    1
    15    19    18    1
    16    17    16    2
    17    18    16    1
    18    16    15   am
    19    15    14    1
    20    14    13    1
    21    13    12    1
    22    12    10    1
    23     7     8    1
    24     7     6    1
    25    11    10    2
    26     5     2    1
    27     5     6    1
    28     3     2    1
    29     3     4    1
    30    10     9    1
    31     8     9    1
    32     2     1    2
