@<TRIPOS>MOLECULE
4etz_C2E_A_1.pdb
 46 52 0 0 0
SMALL
GASTEIGER

@<TRIPOS>ATOM
      1  P1        14.3220   -1.9770   -7.3880 P.3   501  C2E501      0.2141
      2  O2P       13.3200   -1.5670   -8.4480 O.2   501  C2E501     -0.5172
      3  O1P       13.9960   -3.1720   -6.5240 O.3   501  C2E501     -0.4373
      4  O5'       14.6630   -0.8090   -6.3830 O.3   501  C2E501     -0.3114
      5  C5'       15.0260    0.5130   -6.8030 C.3   501  C2E501      0.1812
      6  C4'       15.4940    1.3300   -5.5990 C.3   501  C2E501      0.1771
      7  O4'       14.4500    1.3880   -4.6400 O.3   501  C2E501     -0.3327
      8  C3'       16.6400    0.6970   -4.8060 C.3   501  C2E501      0.1857
      9  O3'       17.9360    0.9830   -5.3050 O.3   501  C2E501     -0.3112
     10  C2'       16.4800    1.2100   -3.3960 C.3   501  C2E501      0.2282
     11  O2'       17.1770    2.4450   -3.2150 O.3   501  C2E501     -0.2159
     12  C1'       14.9810    1.3840   -3.2910 C.3   501  C2E501      0.2292
     13  N9        14.4090    0.1840   -2.6110 N.pl3 501  C2E501     -0.2354
     14  C8        13.6570   -0.7290   -3.2360 C.3   501  C2E501      0.2246
     15  N7        13.2250   -1.6870   -2.4140 N.2   501  C2E501     -0.2322
     16  C5        13.7370   -1.4060   -1.1900 C.2   501  C2E501      0.2182
     17  C6        13.6950   -2.0160    0.1570 C.1   501  C2E501      0.2372
     18  O6        13.0070   -3.1630    0.4290 O.2   501  C2E501     -0.2069
     19  N1        14.3630   -1.3820    1.1580 N.2   501  C2E501     -0.2485
     20  C2        15.0960   -0.2360    0.9770 C.1   501  C2E501      0.2531
     21  N2        15.7260    0.3000    2.0410 N.pl3 501  C2E501     -0.0226
     22  N3        15.1650    0.3850   -0.2250 N.2   501  C2E501     -0.3074
     23  C4        14.5250   -0.1560   -1.3210 C.2   501  C2E501      0.2300
     24  P11       19.1220   -0.0920   -5.1190 P.3   501  C2E501      0.2141
     25  O21       20.3620    0.5770   -5.6550 O.2   501  C2E501     -0.5172
     26  O11       19.1670   -0.5890   -3.6950 O.3   501  C2E501     -0.4373
     27  O5A       18.6920   -1.2560   -6.1080 O.3   501  C2E501     -0.3114
     28  C5A       18.6840   -1.0690   -7.5080 C.3   501  C2E501      0.1812
     29  C4A       18.1610   -2.3540   -8.0980 C.3   501  C2E501      0.1771
     30  O4A       19.0310   -3.4010   -7.6760 O.3   501  C2E501     -0.3327
     31  C3A       16.8270   -2.7700   -7.5240 C.3   501  C2E501      0.1857
     32  O3A       15.7060   -2.2160   -8.1830 O.3   501  C2E501     -0.3112
     33  C2A       16.8260   -4.2670   -7.6830 C.3   501  C2E501      0.2282
     34  O2A       16.4850   -4.6730   -8.9990 O.3   501  C2E501     -0.2159
     35  C1A       18.2760   -4.6040   -7.4540 C.3   501  C2E501      0.2292
     36  N91       18.4130   -4.9940   -6.0410 N.pl3 501  C2E501     -0.2354
     37  C81       18.9180   -4.2080   -5.0690 C.3   501  C2E501      0.2246
     38  N71       18.9100   -4.8600   -3.8770 N.2   501  C2E501     -0.2322
     39  C51       18.3650   -6.0690   -4.1010 C.2   501  C2E501      0.2182
     40  C61       18.0700   -7.2390   -3.2640 C.1   501  C2E501      0.2372
     41  O61       18.3850   -7.1790   -1.9590 O.2   501  C2E501     -0.2069
     42  N11       17.4840   -8.3110   -3.8000 N.2   501  C2E501     -0.2485
     43  C21       17.1910   -8.3390   -5.1310 C.1   501  C2E501      0.2531
     44  N21       16.6160   -9.4520   -5.6430 N.pl3 501  C2E501     -0.0226
     45  N31       17.4520   -7.2890   -5.9550 N.2   501  C2E501     -0.3074
     46  C41       18.0290   -6.1550   -5.5070 C.2   501  C2E501      0.2300
@<TRIPOS>BOND
     1    34    33    1
     2     2     1    2
     3    32    31    1
     4    32     1    1
     5    29    30    1
     6    29    31    1
     7    29    28    1
     8    33    31    1
     9    33    35    1
    10    30    35    1
    11    28    27    1
    12    35    36    1
    13     1     3    1
    14     1     4    1
    15     5     4    1
    16     5     6    1
    17    27    24    1
    18    36    46    1
    19    36    37    1
    20    45    46    2
    21    45    43    2
    22    25    24    2
    23    44    43    1
    24     6     8    1
    25     6     7    1
    26    46    39    1
    27     9    24    1
    28     9     8    1
    29    43    42    2
    30    24    26    1
    31    37    38    1
    32     8    10    1
    33     7    12    1
    34    39    38    2
    35    39    40    1
    36    42    40    2
    37    10    12    1
    38    10    11    1
    39    12    13    1
    40    40    41    2
    41    14    13    1
    42    14    15    1
    43    13    23    1
    44    15    16    2
    45    23    16    1
    46    23    22    2
    47    16    17    1
    48    22    20    2
    49    17    18    2
    50    17    19    2
    51    20    19    2
    52    20    21    1
