@<TRIPOS>MOLECULE
4eu0_C2E_A_1.pdb
 46 52 0 0 0
SMALL
GASTEIGER

@<TRIPOS>ATOM
      1  P1        17.2080    3.3670   13.6760 P.3   501  C2E501      0.2141
      2  O2P       18.5850    2.7980   13.9410 O.2   501  C2E501     -0.5172
      3  O1P       16.7930    4.6390   14.3690 O.3   501  C2E501     -0.4373
      4  O5'       16.1080    2.2500   13.9770 O.3   501  C2E501     -0.3114
      5  C5'       16.2350    0.9100   13.5050 C.3   501  C2E501      0.1812
      6  C4'       14.9400    0.1330   13.7180 C.3   501  C2E501      0.1771
      7  O4'       14.7250   -0.0990   15.1200 O.3   501  C2E501     -0.3327
      8  C3'       13.6760    0.8240   13.2180 C.3   501  C2E501      0.1857
      9  O3'       13.3520    0.5600   11.8480 O.3   501  C2E501     -0.3112
     10  C2'       12.6190    0.2410   14.1200 C.3   501  C2E501      0.2282
     11  O2'       12.2920   -1.0720   13.6540 O.3   501  C2E501     -0.2159
     12  C1'       13.3490    0.0990   15.4380 C.3   501  C2E501      0.2292
     13  N9        13.1940    1.3330   16.2600 N.pl3 501  C2E501     -0.2354
     14  C8        14.1610    2.2180   16.5600 C.3   501  C2E501      0.2246
     15  N7        13.6800    3.2230   17.3380 N.2   501  C2E501     -0.2322
     16  C5        12.3780    2.9550   17.5440 C.2   501  C2E501      0.2182
     17  C6        11.2690    3.6010   18.2620 C.1   501  C2E501      0.2372
     18  O6        11.4860    4.7490   18.9390 O.2   501  C2E501     -0.2069
     19  N1        10.0500    3.0160   18.2310 N.2   501  C2E501     -0.2485
     20  C2         9.8000    1.8680   17.5440 C.1   501  C2E501      0.2531
     21  N2         8.5440    1.3710   17.5670 N.pl3 501  C2E501     -0.0226
     22  N3        10.7810    1.2200   16.8550 N.2   501  C2E501     -0.3074
     23  C4        12.0530    1.7120   16.8240 C.2   501  C2E501      0.2300
     24  P11       12.4960    1.6370   11.0100 P.3   501  C2E501      0.2141
     25  O21       12.1790    1.0560    9.6410 O.2   501  C2E501     -0.5172
     26  O11       11.3610    2.2150   11.8300 O.3   501  C2E501     -0.4373
     27  O5A       13.5790    2.7950   10.7690 O.3   501  C2E501     -0.3114
     28  C5A       14.8060    2.5130   10.0980 C.3   501  C2E501      0.1812
     29  C4A       15.6720    3.7560   10.1340 C.3   501  C2E501      0.1771
     30  O4A       14.9740    4.8680    9.5720 O.3   501  C2E501     -0.3327
     31  C3A       15.9760    4.1940   11.5520 C.3   501  C2E501      0.1857
     32  O3A       17.1110    3.5440   12.0840 O.3   501  C2E501     -0.3112
     33  C2A       16.1970    5.6790   11.4310 C.3   501  C2E501      0.2282
     34  O2A       17.5200    5.9490   10.9460 O.3   501  C2E501     -0.2159
     35  C1A       15.1830    6.0390   10.3670 C.3   501  C2E501      0.2292
     36  N91       13.9130    6.4780   11.0080 N.pl3 501  C2E501     -0.2354
     37  C81       12.7590    5.7890   11.0850 C.3   501  C2E501      0.2246
     38  N71       11.7990    6.5020   11.7290 N.2   501  C2E501     -0.2322
     39  C51       12.3480    7.6810   12.0800 C.2   501  C2E501      0.2182
     40  C61       11.9040    8.9110   12.7810 C.1   501  C2E501      0.2372
     41  O61       10.6390    9.0340   13.2590 O.2   501  C2E501     -0.2069
     42  N11       12.7970    9.9140   12.9380 N.2   501  C2E501     -0.2485
     43  C21       14.0700    9.8260   12.4750 C.1   501  C2E501      0.2531
     44  N21       14.9110   10.8730   12.6670 N.pl3 501  C2E501     -0.0226
     45  N31       14.5370    8.7310   11.8200 N.2   501  C2E501     -0.3074
     46  C41       13.7380    7.6560   11.6010 C.2   501  C2E501      0.2300
@<TRIPOS>BOND
     1    30    29    1
     2    30    35    1
     3    25    24    2
     4    28    29    1
     5    28    27    1
     6    29    31    1
     7    35    36    1
     8    35    33    1
     9    27    24    1
    10    34    33    1
    11    36    37    1
    12    36    46    1
    13    24    26    1
    14    24     9    1
    15    37    38    1
    16    33    31    1
    17    31    32    1
    18    46    45    2
    19    46    39    1
    20    38    39    2
    21    45    43    2
    22     9     8    1
    23    39    40    1
    24    32     1    1
    25    43    44    1
    26    43    42    2
    27    40    42    2
    28    40    41    2
    29     8     6    1
    30     8    10    1
    31     5     6    1
    32     5     4    1
    33    11    10    1
    34     1     2    2
    35     1     4    1
    36     1     3    1
    37     6     7    1
    38    10    12    1
    39     7    12    1
    40    12    13    1
    41    13    14    1
    42    13    23    1
    43    14    15    1
    44    23    22    2
    45    23    16    1
    46    22    20    2
    47    15    16    2
    48    20    21    1
    49    20    19    2
    50    16    17    1
    51    19    17    2
    52    17    18    2
