@<TRIPOS>MOLECULE
4eu3_CIT_B_1.pdb
 13 12 0 0 0
SMALL
GASTEIGER

@<TRIPOS>ATOM
      1  C1       -19.2100  -27.2950  -30.9930 C.2   2502  CIT2502     0.3680
      2  O1       -20.2970  -27.8200  -31.0560 O.co2 2502  CIT2502    -0.2455
      3  O2       -18.2660  -27.6060  -31.8850 O.co2 2502  CIT2502    -0.2455
      4  C2       -18.8910  -26.3170  -29.8920 C.3   2502  CIT2502     0.1560
      5  C3       -20.1340  -25.5020  -29.5330 C.3   2502  CIT2502     0.2402
      6  O7       -21.1290  -26.3860  -29.0070 O.3   2502  CIT2502    -0.2129
      7  C4       -19.7220  -24.4710  -28.4820 C.3   2502  CIT2502     0.1560
      8  C5       -20.8670  -23.5990  -28.0420 C.2   2502  CIT2502     0.3680
      9  O3       -21.9910  -23.7690  -28.4450 O.co2 2502  CIT2502    -0.2455
     10  O4       -20.5950  -22.5570  -27.2620 O.co2 2502  CIT2502    -0.2455
     11  C6       -20.6440  -24.7980  -30.7640 C.2   2502  CIT2502     0.3927
     12  O5       -21.7590  -25.0060  -31.1790 O.co2 2502  CIT2502    -0.2429
     13  O6       -19.8750  -23.8830  -31.3710 O.co2 2502  CIT2502    -0.2429
@<TRIPOS>BOND
     1     3     1   ar
     2    13    11   ar
     3    12    11   ar
     4     2     1   ar
     5     1     4    1
     6    11     5    1
     7     4     5    1
     8     5     6    1
     9     5     7    1
    10     7     8    1
    11     9     8   ar
    12     8    10   ar
