@<TRIPOS>MOLECULE
4eu4_COA_A_1.pdb
 48 50 0 0 0
SMALL
GASTEIGER

@<TRIPOS>ATOM
      1  N1A       -2.5450  -37.5850   15.6740 N.2   2598  COA2598     0.0021
      2  C2A       -2.2330  -38.8090   15.2330 C.3   2598  COA2598     0.5254
      3  N3A       -2.0740  -39.8270   16.0780 N.2   2598  COA2598    -0.0055
      4  C4A       -2.2430  -39.6260   17.4030 C.2   2598  COA2598     0.3518
      5  C5A       -2.5780  -38.3660   17.8960 C.2   2598  COA2598     0.2526
      6  C6A       -2.7230  -37.3330   16.9860 C.2   2598  COA2598     0.4393
      7  N6A       -3.0610  -36.0050   17.4330 N.pl3 2598  COA2598     0.2180
      8  N7A       -2.6790  -38.4720   19.2350 N.2   2598  COA2598    -0.2095
      9  C8A       -2.4220  -39.7430   19.5860 C.3   2598  COA2598     0.3377
     10  N9A       -2.1610  -40.4380   18.4690 N.pl3 2598  COA2598    -0.1439
     11  C1B       -1.8770  -41.8220   18.3220 C.3   2598  COA2598     0.3185
     12  C2B       -0.7360  -42.2360   19.1940 C.3   2598  COA2598     0.2543
     13  O2B        0.4810  -42.0040   18.5560 O.3   2598  COA2598    -0.2131
     14  C3B       -1.0180  -43.6130   19.3610 C.3   2598  COA2598     0.1928
     15  O3B       -0.6820  -44.2800   18.1550 O.3   2598  COA2598    -0.2673
     16  P3B        0.0560  -45.7110   18.1230 P.3   2598  COA2598     0.5327
     17  O7A       -0.0530  -46.3880   19.4640 O.3   2598  COA2598    -0.1145
     18  O8A       -0.5970  -46.5480   17.0230 O.2   2598  COA2598    -0.2224
     19  O9A        1.5280  -45.4630   17.8310 O.3   2598  COA2598    -0.1145
     20  C4B       -2.4790  -43.6640   19.4690 C.3   2598  COA2598     0.1795
     21  O4B       -2.9730  -42.5950   18.6950 O.3   2598  COA2598    -0.3136
     22  C5B       -2.9160  -43.5030   20.8700 C.3   2598  COA2598     0.1812
     23  O5B       -1.9320  -43.4950   21.9130 O.3   2598  COA2598    -0.3112
     24  P1A       -1.9790  -42.4080   23.0980 P.3   2598  COA2598     0.2189
     25  O1A       -1.2880  -41.1260   22.6440 O.2   2598  COA2598    -0.5170
     26  O2A       -1.2440  -42.9730   24.2960 O.3   2598  COA2598    -0.4371
     27  O3A       -3.4720  -42.0140   23.5100 O.3   2598  COA2598    -0.2703
     28  P2A       -4.4800  -42.9310   24.3260 P.3   2598  COA2598     0.2188
     29  O4A       -4.1570  -44.4140   24.1560 O.2   2598  COA2598    -0.5170
     30  O5A       -4.4080  -42.5760   25.7900 O.3   2598  COA2598    -0.4371
     31  O6A       -5.9300  -42.6610   23.7910 O.3   2598  COA2598    -0.3138
     32  CBP       -7.4670  -42.4500   21.8350 C.3   2598  COA2598     0.0645
     33  CCP       -6.1180  -42.1390   22.5400 C.3   2598  COA2598     0.1519
     34  CDP       -8.2330  -41.1520   21.5270 C.3   2598  COA2598     0.0056
     35  CEP       -7.2190  -43.2110   20.5530 C.3   2598  COA2598     0.0056
     36  CAP       -8.3450  -43.2650   22.7740 C.3   2598  COA2598     0.2312
     37  OAP       -8.5430  -42.5240   23.9440 O.3   2598  COA2598    -0.2131
     38  C9P       -9.7140  -43.6050   22.2090 C.2   2598  COA2598     0.2719
     39  O9P       -9.8010  -44.2780   21.1600 O.2   2598  COA2598    -0.2706
     40  N8P      -10.9020  -42.9750   22.7870 N.am  2598  COA2598    -0.2028
     41  C7P      -12.2050  -43.2400   22.1960 C.3   2598  COA2598     0.1248
     42  C6P      -13.3270  -43.8070   23.0710 C.3   2598  COA2598     0.1102
     43  C5P      -13.2640  -43.5170   24.5750 C.2   2598  COA2598     0.2432
     44  O5P      -12.7380  -42.4890   24.9730 O.2   2598  COA2598    -0.2733
     45  N4P      -14.0690  -44.3440   25.4770 N.am  2598  COA2598    -0.2044
     46  C3P      -13.8930  -44.3450   26.9540 C.3   2598  COA2598     0.1276
     47  C2P      -13.1050  -45.5000   27.5950 C.3   2598  COA2598     0.0920
     48  S1P      -11.5480  -46.0900   26.8880 S.3   2598  COA2598    -0.0802
@<TRIPOS>BOND
     1     2     1    1
     2     2     3    1
     3     1     6    2
     4     3     4    2
     5     6     7    1
     6     6     5    1
     7    18    16    2
     8     4     5    1
     9     4    10    1
    10    19    16    1
    11     5     8    2
    12    16    15    1
    13    16    17    1
    14    15    14    1
    15    11    10    1
    16    11    21    1
    17    11    12    1
    18    10     9    1
    19    13    12    1
    20    21    20    1
    21    12    14    1
    22     8     9    1
    23    14    20    1
    24    20    22    1
    25    35    32    1
    26    22    23    1
    27    39    38    2
    28    34    32    1
    29    32    33    1
    30    32    36    1
    31    23    24    1
    32    41    40    1
    33    41    42    1
    34    38    36    1
    35    38    40   am
    36    33    31    1
    37    25    24    2
    38    36    37    1
    39    42    43    1
    40    24    27    1
    41    24    26    1
    42    27    28    1
    43    31    28    1
    44    29    28    2
    45    28    30    1
    46    43    44    2
    47    43    45   am
    48    45    46    1
    49    48    47    1
    50    46    47    1
