@<TRIPOS>MOLECULE
4eu5_COA_A_1.pdb
 48 50 0 0 0
SMALL
GASTEIGER

@<TRIPOS>ATOM
      1  N1A       -7.2350   13.2340  -33.4610 N.2   2598  COA2598     0.0021
      2  C2A       -6.0400   13.7740  -33.2260 C.3   2598  COA2598     0.5254
      3  N3A       -5.7370   14.3400  -32.0590 N.2   2598  COA2598    -0.0055
      4  C4A       -6.6430   14.3810  -31.0680 C.2   2598  COA2598     0.3518
      5  C5A       -7.8960   13.8210  -31.2720 C.2   2598  COA2598     0.2526
      6  C6A       -8.1780   13.2450  -32.5070 C.2   2598  COA2598     0.4393
      7  N6A       -9.4710   12.6700  -32.7540 N.pl3 2598  COA2598     0.2180
      8  N7A       -8.5970   13.9920  -30.1340 N.2   2598  COA2598    -0.2095
      9  C8A       -7.8150   14.6310  -29.2460 C.3   2598  COA2598     0.3377
     10  N9A       -6.6280   14.8700  -29.8150 N.pl3 2598  COA2598    -0.1439
     11  C1B       -5.4860   15.4880  -29.2110 C.3   2598  COA2598     0.3185
     12  C2B       -5.6810   16.9540  -28.9820 C.3   2598  COA2598     0.2543
     13  O2B       -5.2960   17.6720  -30.1040 O.3   2598  COA2598    -0.2131
     14  C3B       -4.7990   17.2110  -27.9030 C.3   2598  COA2598     0.1928
     15  O3B       -3.4880   17.3130  -28.4240 O.3   2598  COA2598    -0.2673
     16  P3B       -2.5310   18.5890  -28.1640 P.3   2598  COA2598     0.5327
     17  O7A       -2.0260   18.5490  -26.7450 O.3   2598  COA2598    -0.1145
     18  O8A       -1.3540   18.4710  -29.1130 O.2   2598  COA2598    -0.2224
     19  O9A       -3.2700   19.8910  -28.4020 O.3   2598  COA2598    -0.1145
     20  C4B       -4.8260   15.9890  -27.0910 C.3   2598  COA2598     0.1795
     21  O4B       -5.2360   14.9460  -27.9550 O.3   2598  COA2598    -0.3136
     22  C5B       -5.8270   16.1350  -26.0280 C.3   2598  COA2598     0.1812
     23  O5B       -7.1320   16.4510  -26.5170 O.3   2598  COA2598    -0.3112
     24  P1A       -8.2400   17.2320  -25.6810 P.3   2598  COA2598     0.2189
     25  O1A       -9.3370   17.6700  -26.6400 O.2   2598  COA2598    -0.5170
     26  O2A       -7.6140   18.4430  -25.0200 O.3   2598  COA2598    -0.4371
     27  O3A       -8.9910   16.2900  -24.6460 O.3   2598  COA2598    -0.2703
     28  P2A       -8.4210   15.6360  -23.3280 P.3   2598  COA2598     0.2188
     29  O4A       -7.6500   16.6280  -22.4760 O.3   2598  COA2598    -0.4371
     30  O5A       -9.6090   15.1200  -22.5810 O.2   2598  COA2598    -0.5170
     31  O6A       -7.4740   14.4460  -23.7270 O.3   2598  COA2598    -0.3138
     32  CBP       -7.1270   12.0780  -24.2150 C.3   2598  COA2598     0.0645
     33  CCP       -7.9990   13.3550  -24.3680 C.3   2598  COA2598     0.1519
     34  CDP       -7.7710   10.8710  -24.9270 C.3   2598  COA2598     0.0056
     35  CEP       -5.7750   12.3680  -24.8130 C.3   2598  COA2598     0.0056
     36  CAP       -6.9810   11.7930  -22.7230 C.3   2598  COA2598     0.2312
     37  OAP       -8.2590   11.5700  -22.1690 O.3   2598  COA2598    -0.2131
     38  C9P       -6.1070   10.5960  -22.3850 C.2   2598  COA2598     0.2719
     39  O9P       -4.8800   10.6010  -22.5750 O.2   2598  COA2598    -0.2706
     40  N8P       -6.7770    9.3740  -22.0020 N.am  2598  COA2598    -0.2028
     41  C7P       -5.9900    8.2110  -21.6430 C.3   2598  COA2598     0.1248
     42  C6P       -5.8240    8.0110  -20.1460 C.3   2598  COA2598     0.1102
     43  C5P       -7.1250    7.9980  -19.3610 C.2   2598  COA2598     0.2432
     44  O5P       -8.1980    8.0820  -19.9220 O.2   2598  COA2598    -0.2733
     45  N4P       -7.0500    7.7890  -17.9320 N.am  2598  COA2598    -0.2044
     46  C3P       -8.2490    7.8700  -17.0670 C.3   2598  COA2598     0.1276
     47  C2P       -8.0670    8.4390  -15.6620 C.3   2598  COA2598     0.0920
     48  S1P       -7.3600   10.0790  -15.4910 S.3   2598  COA2598    -0.0802
@<TRIPOS>BOND
     1     1     2    1
     2     1     6    2
     3     2     3    1
     4     7     6    1
     5     6     5    1
     6     3     4    2
     7     5     4    1
     8     5     8    2
     9     4    10    1
    10     8     9    1
    11    13    12    1
    12    10     9    1
    13    10    11    1
    14    11    12    1
    15    11    21    1
    16    18    16    2
    17    12    14    1
    18    15    16    1
    19    15    14    1
    20    19    16    1
    21    16    17    1
    22    21    20    1
    23    14    20    1
    24    20    22    1
    25    25    24    2
    26    23    22    1
    27    23    24    1
    28    24    26    1
    29    24    27    1
    30    34    32    1
    31    35    32    1
    32    27    28    1
    33    33    32    1
    34    33    31    1
    35    32    36    1
    36    31    28    1
    37    28    30    2
    38    28    29    1
    39    36    38    1
    40    36    37    1
    41    39    38    2
    42    38    40   am
    43    40    41    1
    44    41    42    1
    45    42    43    1
    46    44    43    2
    47    43    45   am
    48    45    46    1
    49    46    47    1
    50    47    48    1
