@<TRIPOS>MOLECULE
4eu6_COA_A_1.pdb
 48 50 0 0 0
SMALL
GASTEIGER

@<TRIPOS>ATOM
      1  N1A       -7.0410   13.2680  -33.5650 N.2   2598  COA2598     0.0021
      2  C2A       -5.8390   13.7900  -33.2970 C.3   2598  COA2598     0.5254
      3  N3A       -5.5610   14.3360  -32.1060 N.2   2598  COA2598    -0.0055
      4  C4A       -6.4940   14.3670  -31.1340 C.2   2598  COA2598     0.3518
      5  C5A       -7.7490   13.8250  -31.3850 C.2   2598  COA2598     0.2526
      6  C6A       -8.0050   13.2690  -32.6310 C.2   2598  COA2598     0.4393
      7  N6A       -9.3040   12.6900  -32.9040 N.pl3 2598  COA2598     0.2180
      8  N7A       -8.4840   13.9810  -30.2670 N.2   2598  COA2598    -0.2095
      9  C8A       -7.7310   14.5960  -29.3450 C.3   2598  COA2598     0.3377
     10  N9A       -6.5270   14.8320  -29.8730 N.pl3 2598  COA2598    -0.1439
     11  C1B       -5.4220   15.4280  -29.1990 C.3   2598  COA2598     0.3185
     12  C2B       -5.6000   16.8980  -29.0270 C.3   2598  COA2598     0.2543
     13  O2B       -5.1970   17.5770  -30.1670 O.3   2598  COA2598    -0.2131
     14  C3B       -4.7230   17.1460  -27.9430 C.3   2598  COA2598     0.1928
     15  O3B       -3.3820   17.0620  -28.4170 O.3   2598  COA2598    -0.2673
     16  P3B       -2.3180   18.2830  -28.3730 P.3   2598  COA2598     0.5327
     17  O7A       -1.8160   18.4410  -26.9550 O.3   2598  COA2598    -0.1145
     18  O8A       -1.1640   17.9140  -29.2940 O.2   2598  COA2598    -0.2224
     19  O9A       -2.9380   19.5980  -28.8310 O.3   2598  COA2598    -0.1145
     20  C4B       -4.9160   15.9900  -27.0610 C.3   2598  COA2598     0.1795
     21  O4B       -5.3390   14.9400  -27.8970 O.3   2598  COA2598    -0.3136
     22  C5B       -5.9760   16.2540  -26.0760 C.3   2598  COA2598     0.1812
     23  O5B       -7.1990   16.7090  -26.6580 O.3   2598  COA2598    -0.3112
     24  P1A       -8.4250   17.2160  -25.7870 P.3   2598  COA2598     0.2189
     25  O1A       -9.5280   17.5880  -26.7600 O.2   2598  COA2598    -0.5170
     26  O2A       -8.0280   18.4040  -24.9330 O.3   2598  COA2598    -0.4371
     27  O3A       -9.0020   16.0360  -24.9000 O.3   2598  COA2598    -0.2703
     28  P2A       -8.5890   15.5880  -23.4520 P.3   2598  COA2598     0.2188
     29  O4A       -7.9100   16.6520  -22.6060 O.3   2598  COA2598    -0.4371
     30  O5A       -9.8710   15.0980  -22.8210 O.2   2598  COA2598    -0.5170
     31  O6A       -7.5830   14.3920  -23.6020 O.3   2598  COA2598    -0.3138
     32  CBP       -6.9410   12.0910  -24.2050 C.3   2598  COA2598     0.0645
     33  CCP       -7.8890   13.3140  -24.3910 C.3   2598  COA2598     0.1519
     34  CDP       -7.4860   10.8620  -24.9620 C.3   2598  COA2598     0.0056
     35  CEP       -5.5780   12.4780  -24.7360 C.3   2598  COA2598     0.0056
     36  CAP       -6.8010   11.7830  -22.7160 C.3   2598  COA2598     0.2312
     37  OAP       -8.0680   11.5950  -22.1210 O.3   2598  COA2598    -0.2131
     38  C9P       -5.9370   10.5640  -22.4260 C.2   2598  COA2598     0.2719
     39  O9P       -4.7150   10.5700  -22.6780 O.2   2598  COA2598    -0.2706
     40  N8P       -6.6090    9.3290  -22.0490 N.am  2598  COA2598    -0.2028
     41  C7P       -5.8440    8.1570  -21.6460 C.3   2598  COA2598     0.1249
     42  C6P       -5.7140    7.9270  -20.1470 C.3   2598  COA2598     0.1105
     43  C5P       -7.0430    7.7790  -19.4170 C.2   2598  COA2598     0.2471
     44  O5P       -8.1050    7.8430  -20.0120 O.2   2598  COA2598    -0.2729
     45  N4P       -7.0110    7.4050  -18.0270 N.am  2598  COA2598    -0.1816
     46  C3P       -8.2560    7.2710  -17.2420 C.2   2598  COA2598     0.0748
     47  C2P       -8.0820    7.3150  -15.7290 C.3   2598  COA2598     0.1127
     48  S1P       -7.3530    8.8240  -15.0920 S.3   2598  COA2598    -0.0755
@<TRIPOS>BOND
     1     1     2    1
     2     1     6    2
     3     2     3    1
     4     7     6    1
     5     6     5    1
     6     3     4    2
     7     5     4    1
     8     5     8    2
     9     4    10    1
    10     8     9    1
    11    13    12    1
    12    10     9    1
    13    10    11    1
    14    18    16    2
    15    11    12    1
    16    11    21    1
    17    12    14    1
    18    19    16    1
    19    15    16    1
    20    15    14    1
    21    16    17    1
    22    14    20    1
    23    21    20    1
    24    20    22    1
    25    25    24    2
    26    23    22    1
    27    23    24    1
    28    24    26    1
    29    24    27    1
    30    34    32    1
    31    27    28    1
    32    35    32    1
    33    33    32    1
    34    33    31    1
    35    32    36    1
    36    31    28    1
    37    28    30    2
    38    28    29    1
    39    36    38    1
    40    36    37    1
    41    39    38    2
    42    38    40   am
    43    40    41    1
    44    41    42    1
    45    42    43    1
    46    44    43    2
    47    43    45    1
    48    45    46    2
    49    46    47    1
    50    47    48    1
