@<TRIPOS>MOLECULE
4eu7_CIT_A_1.pdb
 13 12 0 0 0
SMALL
GASTEIGER

@<TRIPOS>ATOM
      1  C1        -2.7110  -18.3020   17.7400 C.2   2502  CIT2502     0.3680
      2  O1        -1.5450  -18.6170   17.7840 O.co2 2502  CIT2502    -0.2455
      3  O2        -3.6580  -19.2260   17.9700 O.co2 2502  CIT2502    -0.2455
      4  C2        -3.1150  -16.8770   17.4450 C.3   2502  CIT2502     0.1560
      5  C3        -1.8900  -15.9960   17.1750 C.3   2502  CIT2502     0.2402
      6  O7        -1.0920  -16.5910   16.1510 O.3   2502  CIT2502    -0.2129
      7  C4        -2.3820  -14.6260   16.7010 C.3   2502  CIT2502     0.1560
      8  C5        -1.2670  -13.6260   16.5180 C.2   2502  CIT2502     0.3680
      9  O3        -0.1000  -13.9670   16.5200 O.co2 2502  CIT2502    -0.2455
     10  O4        -1.5940  -12.3290   16.3900 O.co2 2502  CIT2502    -0.2455
     11  C6        -1.0860  -15.8470   18.4440 C.2   2502  CIT2502     0.3927
     12  O5         0.0930  -16.1260   18.4640 O.co2 2502  CIT2502    -0.2429
     13  O6        -1.6970  -15.4250   19.5640 O.co2 2502  CIT2502    -0.2429
@<TRIPOS>BOND
     1     6     5    1
     2    10     8   ar
     3     8     9   ar
     4     8     7    1
     5     7     5    1
     6     5     4    1
     7     5    11    1
     8     4     1    1
     9     1     2   ar
    10     1     3   ar
    11    11    12   ar
    12    11    13   ar
