@<TRIPOS>MOLECULE
4eu7_COA_A_1.pdb
 48 50 0 0 0
SMALL
GASTEIGER

@<TRIPOS>ATOM
      1  N1A       -7.1700  -13.2010   33.8600 N.2   2598  COA2598     0.0021
      2  C2A       -5.9600  -13.7200   33.6450 C.3   2598  COA2598     0.5254
      3  N3A       -5.6240  -14.2780   32.4730 N.2   2598  COA2598    -0.0055
      4  C4A       -6.5020  -14.3330   31.4590 C.2   2598  COA2598     0.3518
      5  C5A       -7.7690  -13.7970   31.6440 C.2   2598  COA2598     0.2526
      6  C6A       -8.0880  -13.2280   32.8750 C.2   2598  COA2598     0.4393
      7  N6A       -9.4080  -12.6940   33.0970 N.pl3 2598  COA2598     0.2180
      8  N7A       -8.4480  -13.9820   30.4910 N.2   2598  COA2598    -0.2095
      9  C8A       -7.6420  -14.6010   29.6130 C.3   2598  COA2598     0.3377
     10  N9A       -6.4630  -14.8130   30.2000 N.pl3 2598  COA2598    -0.1439
     11  C1B       -5.3280  -15.4460   29.6060 C.3   2598  COA2598     0.3185
     12  C2B       -5.6120  -16.8940   29.3760 C.3   2598  COA2598     0.2543
     13  O2B       -5.2860  -17.6130   30.5140 O.3   2598  COA2598    -0.2131
     14  C3B       -4.7360  -17.2080   28.3130 C.3   2598  COA2598     0.1928
     15  O3B       -3.4320  -17.3340   28.8490 O.3   2598  COA2598    -0.2673
     16  P3B       -2.4380  -18.5450   28.4490 P.3   2598  COA2598     0.5327
     17  O7A       -2.1640  -18.5370   26.9660 O.2   2598  COA2598    -0.2224
     18  O8A       -1.1390  -18.3160   29.2050 O.3   2598  COA2598    -0.1145
     19  O9A       -3.0520  -19.8830   28.8250 O.3   2598  COA2598    -0.1145
     20  C4B       -4.7080  -15.9990   27.4890 C.3   2598  COA2598     0.1795
     21  O4B       -5.0580  -14.9260   28.3460 O.3   2598  COA2598    -0.3136
     22  C5B       -5.7020  -16.1320   26.4150 C.3   2598  COA2598     0.1812
     23  O5B       -7.0540  -16.2950   26.8520 O.3   2598  COA2598    -0.3112
     24  P1A       -8.1450  -17.1540   26.0710 P.3   2598  COA2598     0.2189
     25  O1A       -9.2310  -17.5680   27.0450 O.3   2598  COA2598    -0.4371
     26  O2A       -7.5110  -18.3850   25.4580 O.2   2598  COA2598    -0.5170
     27  O3A       -8.9470  -16.3220   24.9790 O.3   2598  COA2598    -0.2703
     28  P2A       -8.3970  -15.5700   23.7080 P.3   2598  COA2598     0.2188
     29  O4A       -7.7040  -16.5210   22.7520 O.2   2598  COA2598    -0.5170
     30  O5A       -9.6060  -14.9800   23.0470 O.3   2598  COA2598    -0.4371
     31  O6A       -7.3970  -14.4300   24.1370 O.3   2598  COA2598    -0.3138
     32  CBP       -7.0200  -12.0320   24.5860 C.3   2598  COA2598     0.0645
     33  CCP       -7.8970  -13.3050   24.7490 C.3   2598  COA2598     0.1519
     34  CDP       -7.6730  -10.8240   25.2950 C.3   2598  COA2598     0.0056
     35  CEP       -5.6550  -12.3270   25.1670 C.3   2598  COA2598     0.0056
     36  CAP       -6.8850  -11.7700   23.0900 C.3   2598  COA2598     0.2312
     37  OAP       -8.1540  -11.5800   22.5110 O.3   2598  COA2598    -0.2131
     38  C9P       -6.0400  -10.5610   22.7300 C.2   2598  COA2598     0.2719
     39  O9P       -4.8110  -10.5760   22.8960 O.2   2598  COA2598    -0.2706
     40  N8P       -6.7280   -9.3440   22.3600 N.am  2598  COA2598    -0.2028
     41  C7P       -5.9790   -8.1750   21.9300 C.3   2598  COA2598     0.1248
     42  C6P       -5.7840   -8.0280   20.4310 C.3   2598  COA2598     0.1102
     43  C5P       -7.0890   -7.9600   19.6510 C.2   2598  COA2598     0.2432
     44  O5P       -8.1610   -8.1370   20.1980 O.2   2598  COA2598    -0.2733
     45  N4P       -7.0500   -7.6030   18.2550 N.am  2598  COA2598    -0.2044
     46  C3P       -8.3070   -7.4840   17.4880 C.3   2598  COA2598     0.1276
     47  C2P       -8.4420   -8.3560   16.2500 C.3   2598  COA2598     0.0920
     48  S1P       -8.0510  -10.0860   16.4750 S.3   2598  COA2598    -0.0802
@<TRIPOS>BOND
     1    47    48    1
     2    47    46    1
     3    46    45    1
     4    45    43   am
     5    43    44    2
     6    43    42    1
     7    42    41    1
     8    41    40    1
     9    40    38   am
    10    37    36    1
    11    38    39    2
    12    38    36    1
    13    29    28    2
    14    30    28    1
    15    36    32    1
    16    28    31    1
    17    28    27    1
    18    31    33    1
    19    32    33    1
    20    32    35    1
    21    32    34    1
    22    27    24    1
    23    26    24    2
    24    24    23    1
    25    24    25    1
    26    22    23    1
    27    22    20    1
    28    17    16    2
    29    20    14    1
    30    20    21    1
    31    14    15    1
    32    14    12    1
    33    21    11    1
    34    16    19    1
    35    16    15    1
    36    16    18    1
    37    12    11    1
    38    12    13    1
    39    11    10    1
    40     9    10    1
    41     9     8    1
    42    10     4    1
    43     8     5    2
    44     4     5    1
    45     4     3    2
    46     5     6    1
    47     3     2    1
    48     6     7    1
    49     6     1    2
    50     2     1    1
