@<TRIPOS>MOLECULE
4eu8_COA_A_1.pdb
 48 50 0 0 0
SMALL
GASTEIGER

@<TRIPOS>ATOM
      1  N1A       -7.1130   13.2570  -33.4850 N.2   2598  COA2598     0.0021
      2  C2A       -5.9140   13.8040  -33.2420 C.3   2598  COA2598     0.5254
      3  N3A       -5.6170   14.3610  -32.0620 N.2   2598  COA2598    -0.0055
      4  C4A       -6.5380   14.3850  -31.0700 C.2   2598  COA2598     0.3518
      5  C5A       -7.7920   13.8340  -31.2950 C.2   2598  COA2598     0.2526
      6  C6A       -8.0610   13.2610  -32.5280 C.2   2598  COA2598     0.4393
      7  N6A       -9.3720   12.6940  -32.7380 N.pl3 2598  COA2598     0.2180
      8  N7A       -8.5230   13.9890  -30.1750 N.2   2598  COA2598    -0.2095
      9  C8A       -7.7620   14.6190  -29.2620 C.3   2598  COA2598     0.3377
     10  N9A       -6.5700   14.8660  -29.8140 N.pl3 2598  COA2598    -0.1439
     11  C1B       -5.4580   15.4980  -29.1840 C.3   2598  COA2598     0.3185
     12  C2B       -5.6070   16.9780  -29.0770 C.3   2598  COA2598     0.2543
     13  O2B       -5.1420   17.5930  -30.2250 O.3   2598  COA2598    -0.2131
     14  C3B       -4.7650   17.2550  -27.9730 C.3   2598  COA2598     0.1928
     15  O3B       -3.4000   17.1300  -28.3510 O.3   2598  COA2598    -0.2673
     16  P3B       -2.4840   18.3530  -28.8820 P.3   2598  COA2598     0.5327
     17  O7A       -2.0440   19.1770  -27.6990 O.3   2598  COA2598    -0.1145
     18  O8A       -1.2660   17.7650  -29.5840 O.3   2598  COA2598    -0.1145
     19  O9A       -3.2660   19.2230  -29.8590 O.2   2598  COA2598    -0.2224
     20  C4B       -4.9780   16.1350  -27.0580 C.3   2598  COA2598     0.1795
     21  O4B       -5.3390   15.0430  -27.8780 O.3   2598  COA2598    -0.3136
     22  C5B       -6.0560   16.4380  -26.0960 C.3   2598  COA2598     0.1812
     23  O5B       -7.2910   16.9160  -26.6370 O.3   2598  COA2598    -0.3112
     24  P1A       -8.5520   17.2070  -25.7020 P.3   2598  COA2598     0.2189
     25  O1A       -9.7480   17.5570  -26.5710 O.2   2598  COA2598    -0.5170
     26  O2A       -8.2120   18.3460  -24.7620 O.3   2598  COA2598    -0.4371
     27  O3A       -8.9330   15.8770  -24.9630 O.3   2598  COA2598    -0.2703
     28  P2A       -8.6640   15.5140  -23.4690 P.3   2598  COA2598     0.2188
     29  O4A       -8.0670   16.6280  -22.6250 O.3   2598  COA2598    -0.4371
     30  O5A       -9.9560   15.0370  -22.8720 O.2   2598  COA2598    -0.5170
     31  O6A       -7.6300   14.3410  -23.5360 O.3   2598  COA2598    -0.3138
     32  CBP       -6.9950   12.0720  -24.1460 C.3   2598  COA2598     0.0645
     33  CCP       -7.9260   13.2850  -24.3530 C.3   2598  COA2598     0.1519
     34  CDP       -7.5170   10.8310  -24.8980 C.3   2598  COA2598     0.0056
     35  CEP       -5.6110   12.4710  -24.6280 C.3   2598  COA2598     0.0056
     36  CAP       -6.9620   11.7860  -22.6530 C.3   2598  COA2598     0.2312
     37  OAP       -8.2670   11.5440  -22.1610 O.3   2598  COA2598    -0.2131
     38  C9P       -6.1030   10.5900  -22.3090 C.2   2598  COA2598     0.2719
     39  O9P       -4.8640   10.6740  -22.2960 O.2   2598  COA2598    -0.2706
     40  N8P       -6.7700    9.3310  -22.0190 N.am  2598  COA2598    -0.2028
     41  C7P       -5.9460    8.1880  -21.6800 C.3   2598  COA2598     0.1248
     42  C6P       -5.7350    7.9540  -20.1970 C.3   2598  COA2598     0.1102
     43  C5P       -7.0330    8.0170  -19.4180 C.2   2598  COA2598     0.2432
     44  O5P       -8.0960    8.0670  -20.0090 O.2   2598  COA2598    -0.2733
     45  N4P       -6.9580    8.0020  -17.9730 N.am  2598  COA2598    -0.2044
     46  C3P       -8.1530    8.0700  -17.1060 C.3   2598  COA2598     0.1276
     47  C2P       -8.1690    9.2320  -16.1150 C.3   2598  COA2598     0.0920
     48  S1P       -7.1950   10.6830  -16.5220 S.3   2598  COA2598    -0.0802
@<TRIPOS>BOND
     1     1     2    1
     2     1     6    2
     3     2     3    1
     4     7     6    1
     5     6     5    1
     6     3     4    2
     7     5     4    1
     8     5     8    2
     9     4    10    1
    10    13    12    1
    11     8     9    1
    12    19    16    2
    13    10     9    1
    14    10    11    1
    15    18    16    1
    16    11    12    1
    17    11    21    1
    18    12    14    1
    19    16    15    1
    20    16    17    1
    21    15    14    1
    22    14    20    1
    23    21    20    1
    24    20    22    1
    25    23    22    1
    26    23    24    1
    27    25    24    2
    28    24    27    1
    29    24    26    1
    30    27    28    1
    31    34    32    1
    32    35    32    1
    33    33    32    1
    34    33    31    1
    35    32    36    1
    36    31    28    1
    37    28    30    2
    38    28    29    1
    39    36    38    1
    40    36    37    1
    41    38    39    2
    42    38    40   am
    43    40    41    1
    44    41    42    1
    45    42    43    1
    46    44    43    2
    47    43    45   am
    48    45    46    1
    49    46    47    1
    50    48    47    1
