@<TRIPOS>MOLECULE
4eu9_COA_A_1.pdb
 48 50 0 0 0
SMALL
GASTEIGER

@<TRIPOS>ATOM
      1  N1A       -7.1280   13.1440  -33.7930 N.2   2598  COA2598     0.0021
      2  C2A       -5.9230   13.6820  -33.5920 C.3   2598  COA2598     0.5254
      3  N3A       -5.6050   14.2510  -32.4190 N.2   2598  COA2598    -0.0055
      4  C4A       -6.5040   14.2790  -31.4140 C.2   2598  COA2598     0.3518
      5  C5A       -7.7650   13.7200  -31.5880 C.2   2598  COA2598     0.2526
      6  C6A       -8.0640   13.1430  -32.8240 C.2   2598  COA2598     0.4393
      7  N6A       -9.3600   12.5680  -33.0820 N.pl3 2598  COA2598     0.2180
      8  N7A       -8.4510   13.8900  -30.4400 N.2   2598  COA2598    -0.2095
      9  C8A       -7.6630   14.5330  -29.5690 C.3   2598  COA2598     0.3377
     10  N9A       -6.4840   14.7630  -30.1570 N.pl3 2598  COA2598    -0.1439
     11  C1B       -5.3510   15.3980  -29.5750 C.3   2598  COA2598     0.3185
     12  C2B       -5.5810   16.8600  -29.3780 C.3   2598  COA2598     0.2543
     13  O2B       -5.2530   17.5650  -30.5300 O.3   2598  COA2598    -0.2131
     14  C3B       -4.6850   17.1430  -28.3150 C.3   2598  COA2598     0.1928
     15  O3B       -3.3740   17.2720  -28.8320 O.3   2598  COA2598    -0.2673
     16  P3B       -2.4410   18.5420  -28.4740 P.3   2598  COA2598     0.5327
     17  O7A       -2.0240   18.4500  -27.0260 O.3   2598  COA2598    -0.1145
     18  O8A       -1.2110   18.4800  -29.3700 O.2   2598  COA2598    -0.2224
     19  O9A       -3.1890   19.8490  -28.7040 O.3   2598  COA2598    -0.1145
     20  C4B       -4.6800   15.9370  -27.4820 C.3   2598  COA2598     0.1795
     21  O4B       -5.1220   14.8730  -28.3090 O.3   2598  COA2598    -0.3136
     22  C5B       -5.6280   16.1270  -26.3720 C.3   2598  COA2598     0.1812
     23  O5B       -7.0040   16.1940  -26.7520 O.3   2598  COA2598    -0.3112
     24  P1A       -8.0860   17.0980  -26.0120 P.3   2598  COA2598     0.2189
     25  O1A       -9.1880   17.4580  -26.9960 O.2   2598  COA2598    -0.5170
     26  O2A       -7.4420   18.3590  -25.4690 O.3   2598  COA2598    -0.4371
     27  O3A       -8.8500   16.2930  -24.8740 O.3   2598  COA2598    -0.2703
     28  P2A       -8.2850   15.4530  -23.6740 P.3   2598  COA2598     0.2188
     29  O4A       -7.4930   16.3800  -22.7720 O.3   2598  COA2598    -0.4371
     30  O5A       -9.4720   14.8860  -22.9480 O.2   2598  COA2598    -0.5170
     31  O6A       -7.3430   14.2890  -24.1550 O.3   2598  COA2598    -0.3138
     32  CBP       -6.9530   11.9390  -24.5840 C.3   2598  COA2598     0.0645
     33  CCP       -7.8570   13.1840  -24.7730 C.3   2598  COA2598     0.1519
     34  CDP       -7.5600   10.6860  -25.2400 C.3   2598  COA2598     0.0056
     35  CEP       -5.6110   12.2340  -25.2150 C.3   2598  COA2598     0.0056
     36  CAP       -6.7960   11.7200  -23.0810 C.3   2598  COA2598     0.2312
     37  OAP       -8.0580   11.4990  -22.4850 O.3   2598  COA2598    -0.2131
     38  C9P       -5.9170   10.5390  -22.7080 C.2   2598  COA2598     0.2719
     39  O9P       -4.6810   10.5300  -22.8960 O.2   2598  COA2598    -0.2706
     40  N8P       -6.6060    9.3570  -22.2600 N.am  2598  COA2598    -0.2028
     41  C7P       -5.8520    8.1950  -21.8450 C.3   2598  COA2598     0.1248
     42  C6P       -5.6810    8.0780  -20.3460 C.3   2598  COA2598     0.1102
     43  C5P       -7.0070    7.9560  -19.6250 C.2   2598  COA2598     0.2432
     44  O5P       -8.0590    8.1100  -20.2200 O.2   2598  COA2598    -0.2733
     45  N4P       -6.9880    7.5820  -18.2380 N.am  2598  COA2598    -0.2044
     46  C3P       -8.2580    7.3380  -17.5310 C.3   2598  COA2598     0.1276
     47  C2P       -8.5140    8.1410  -16.2690 C.3   2598  COA2598     0.0920
     48  S1P       -8.1750    9.8890  -16.3740 S.3   2598  COA2598    -0.0802
@<TRIPOS>BOND
     1     1     2    1
     2     1     6    2
     3     2     3    1
     4     7     6    1
     5     6     5    1
     6     3     4    2
     7     5     4    1
     8     5     8    2
     9     4    10    1
    10    13    12    1
    11     8     9    1
    12    10    11    1
    13    10     9    1
    14    11    12    1
    15    11    21    1
    16    12    14    1
    17    18    16    2
    18    15    16    1
    19    15    14    1
    20    19    16    1
    21    16    17    1
    22    14    20    1
    23    21    20    1
    24    20    22    1
    25    25    24    2
    26    23    22    1
    27    23    24    1
    28    24    26    1
    29    24    27    1
    30    34    32    1
    31    35    32    1
    32    27    28    1
    33    33    32    1
    34    33    31    1
    35    32    36    1
    36    31    28    1
    37    28    30    2
    38    28    29    1
    39    36    38    1
    40    36    37    1
    41    39    38    2
    42    38    40   am
    43    40    41    1
    44    41    42    1
    45    42    43    1
    46    44    43    2
    47    43    45   am
    48    45    46    1
    49    46    47    1
    50    48    47    1
