@<TRIPOS>MOLECULE
4eua_COA_A_1.pdb
 48 50 0 0 0
SMALL
GASTEIGER

@<TRIPOS>ATOM
      1  N1A       -7.1240   13.0410  -33.7980 N.2   2598  COA2598     0.0021
      2  C2A       -5.8970   13.5480  -33.6080 C.3   2598  COA2598     0.5254
      3  N3A       -5.5520   14.1590  -32.4700 N.2   2598  COA2598    -0.0055
      4  C4A       -6.4450   14.2660  -31.4570 C.2   2598  COA2598     0.3518
      5  C5A       -7.7280   13.7460  -31.6170 C.2   2598  COA2598     0.2526
      6  C6A       -8.0510   13.1260  -32.8260 C.2   2598  COA2598     0.4393
      7  N6A       -9.3650   12.5690  -33.0230 N.pl3 2598  COA2598     0.2180
      8  N7A       -8.4020   13.9920  -30.4770 N.2   2598  COA2598    -0.2095
      9  C8A       -7.5970   14.6410  -29.6350 C.3   2598  COA2598     0.3377
     10  N9A       -6.4060   14.8120  -30.2210 N.pl3 2598  COA2598    -0.1439
     11  C1B       -5.2420   15.4120  -29.6550 C.3   2598  COA2598     0.3185
     12  C2B       -5.3500   16.9080  -29.6130 C.3   2598  COA2598     0.2543
     13  O2B       -4.7680   17.4300  -30.7540 O.3   2598  COA2598    -0.2131
     14  C3B       -4.5320   17.2830  -28.5260 C.3   2598  COA2598     0.1928
     15  O3B       -3.2450   17.5470  -29.0830 O.3   2598  COA2598    -0.2673
     16  P3B       -1.9410   18.0510  -28.2640 P.3   2598  COA2598     0.5327
     17  O7A       -1.7510   17.3160  -26.9550 O.3   2598  COA2598    -0.1145
     18  O8A       -0.7120   17.8080  -29.1370 O.2   2598  COA2598    -0.2224
     19  O9A       -2.0880   19.5350  -27.9760 O.3   2598  COA2598    -0.1145
     20  C4B       -4.5210   16.1100  -27.6380 C.3   2598  COA2598     0.1795
     21  O4B       -5.0510   14.9990  -28.3400 O.3   2598  COA2598    -0.3136
     22  C5B       -5.3640   16.3930  -26.4620 C.3   2598  COA2598     0.1812
     23  O5B       -6.7550   16.0870  -26.5480 O.3   2598  COA2598    -0.3112
     24  P1A       -7.8750   17.1440  -26.0890 P.3   2598  COA2598     0.2189
     25  O1A       -8.7690   17.5100  -27.2640 O.2   2598  COA2598    -0.5170
     26  O2A       -7.2100   18.3950  -25.5410 O.3   2598  COA2598    -0.4371
     27  O3A       -8.8160   16.5270  -24.9640 O.3   2598  COA2598    -0.2703
     28  P2A       -8.3450   15.5320  -23.8290 P.3   2598  COA2598     0.2188
     29  O4A       -7.5480   16.2550  -22.7480 O.3   2598  COA2598    -0.4371
     30  O5A       -9.5960   14.9250  -23.2390 O.2   2598  COA2598    -0.5170
     31  O6A       -7.4010   14.4430  -24.4460 O.3   2598  COA2598    -0.3138
     32  CBP       -6.8850   12.0520  -24.6600 C.3   2598  COA2598     0.0645
     33  CCP       -7.8690   13.2340  -24.8800 C.3   2598  COA2598     0.1519
     34  CDP       -7.4390   10.7970  -25.3640 C.3   2598  COA2598     0.0056
     35  CEP       -5.5360   12.4410  -25.2030 C.3   2598  COA2598     0.0056
     36  CAP       -6.6870   11.7750  -23.1700 C.3   2598  COA2598     0.2312
     37  OAP       -7.9250   11.6600  -22.5300 O.3   2598  COA2598    -0.2131
     38  C9P       -5.9050   10.5090  -22.8650 C.2   2598  COA2598     0.2719
     39  O9P       -4.6640   10.5070  -22.8690 O.2   2598  COA2598    -0.2706
     40  N8P       -6.6270    9.3630  -22.3460 N.am  2598  COA2598    -0.2028
     41  C7P       -5.9170    8.2020  -21.8500 C.3   2598  COA2598     0.1249
     42  C6P       -5.7430    8.1370  -20.3350 C.3   2598  COA2598     0.1105
     43  C5P       -7.0480    8.0100  -19.5650 C.2   2598  COA2598     0.2474
     44  O5P       -8.1160    8.1610  -20.1260 O.2   2598  COA2598    -0.2729
     45  N4P       -7.0020    7.7340  -18.1440 N.am  2598  COA2598    -0.1773
     46  C3P       -8.2340    7.7600  -17.3270 C.2   2598  COA2598     0.0961
     47  C2P       -8.4250    8.9180  -16.3390 C.2   2598  COA2598     0.0600
     48  S1P       -7.2860   10.3060  -16.3700 S.3   2598  COA2598    -0.0487
@<TRIPOS>BOND
     1     1     2    1
     2     1     6    2
     3     2     3    1
     4     7     6    1
     5     6     5    1
     6     3     4    2
     7     5     4    1
     8     5     8    2
     9     4    10    1
    10    13    12    1
    11     8     9    1
    12    10    11    1
    13    10     9    1
    14    11    12    1
    15    11    21    1
    16    12    14    1
    17    18    16    2
    18    15    14    1
    19    15    16    1
    20    14    20    1
    21    21    20    1
    22    16    19    1
    23    16    17    1
    24    20    22    1
    25    25    24    2
    26    23    22    1
    27    23    24    1
    28    24    26    1
    29    24    27    1
    30    34    32    1
    31    35    32    1
    32    27    28    1
    33    33    32    1
    34    33    31    1
    35    32    36    1
    36    31    28    1
    37    28    30    2
    38    28    29    1
    39    36    38    1
    40    36    37    1
    41    39    38    2
    42    38    40   am
    43    40    41    1
    44    41    42    1
    45    42    43    1
    46    44    43    2
    47    43    45   am
    48    45    46    1
    49    46    47    2
    50    48    47    1
