@<TRIPOS>MOLECULE
4eub_COA_A_1.pdb
 48 50 0 0 0
SMALL
GASTEIGER

@<TRIPOS>ATOM
      1  N1A        7.2860   13.3120   33.0680 N.2   2598  COA2598     0.0021
      2  C2A        6.0790   13.8140   32.8170 C.3   2598  COA2598     0.5254
      3  N3A        5.7740   14.3270   31.6240 N.2   2598  COA2598    -0.0055
      4  C4A        6.6910   14.3630   30.6390 C.2   2598  COA2598     0.3518
      5  C5A        7.9610   13.8500   30.8730 C.2   2598  COA2598     0.2526
      6  C6A        8.2400   13.3280   32.1260 C.2   2598  COA2598     0.4393
      7  N6A        9.5430   12.7930   32.4290 N.pl3 2598  COA2598     0.2180
      8  N7A        8.6730   14.0020   29.7340 N.2   2598  COA2598    -0.2095
      9  C8A        7.8800   14.5990   28.8230 C.3   2598  COA2598     0.3377
     10  N9A        6.6750   14.8130   29.3700 N.pl3 2598  COA2598    -0.1439
     11  C1B        5.5520   15.4410   28.7500 C.3   2598  COA2598     0.3185
     12  C2B        5.7800   16.9190   28.6190 C.3   2598  COA2598     0.2543
     13  O2B        5.4350   17.6000   29.7780 O.3   2598  COA2598    -0.2131
     14  C3B        4.9010   17.2460   27.5590 C.3   2598  COA2598     0.1928
     15  O3B        3.5780   17.2570   28.0690 O.3   2598  COA2598    -0.2673
     16  P3B        2.6040   18.5450   27.9700 P.3   2598  COA2598     0.5327
     17  O7A        2.2150   18.7420   26.5290 O.2   2598  COA2598    -0.2224
     18  O8A        1.3770   18.2460   28.8070 O.3   2598  COA2598    -0.1145
     19  O9A        3.2980   19.8080   28.4590 O.3   2598  COA2598    -0.1145
     20  C4B        4.9960   16.1010   26.6440 C.3   2598  COA2598     0.1795
     21  O4B        5.4180   15.0090   27.4340 O.3   2598  COA2598    -0.3136
     22  C5B        6.0220   16.3770   25.6230 C.3   2598  COA2598     0.1812
     23  O5B        7.2360   16.8870   26.1820 O.3   2598  COA2598    -0.3112
     24  P1A        8.4860   17.3380   25.3120 P.3   2598  COA2598     0.2189
     25  O1A        9.6200   17.6370   26.2840 O.3   2598  COA2598    -0.4371
     26  O2A        8.0960   18.5380   24.4750 O.2   2598  COA2598    -0.5170
     27  O3A        9.0080   16.1440   24.4150 O.3   2598  COA2598    -0.2703
     28  P2A        8.5110   15.6900   22.9750 P.3   2598  COA2598     0.2188
     29  O4A        7.7270   16.7310   22.2010 O.2   2598  COA2598    -0.5170
     30  O5A        9.7440   15.2540   22.2340 O.3   2598  COA2598    -0.4371
     31  O6A        7.5700   14.4610   23.1720 O.3   2598  COA2598    -0.3138
     32  CBP        7.0620   12.1500   23.7780 C.3   2598  COA2598     0.0645
     33  CCP        7.9830   13.3930   23.9150 C.3   2598  COA2598     0.1519
     34  CDP        7.7230   10.9450   24.4800 C.3   2598  COA2598     0.0056
     35  CEP        5.7280   12.4750   24.3980 C.3   2598  COA2598     0.0056
     36  CAP        6.8790   11.8630   22.2870 C.3   2598  COA2598     0.2312
     37  OAP        8.1470   11.6310   21.7100 O.3   2598  COA2598    -0.2131
     38  C9P        6.0060   10.6590   21.9850 C.2   2598  COA2598     0.2719
     39  O9P        4.7920   10.6480   22.2860 O.2   2598  COA2598    -0.2706
     40  N8P        6.7130    9.4110   21.7720 N.am  2598  COA2598    -0.2028
     41  C7P        5.9610    8.1880   21.5590 C.3   2598  COA2598     0.1249
     42  C6P        5.7930    7.8270   20.0950 C.3   2598  COA2598     0.1105
     43  C5P        7.1100    7.8240   19.3410 C.2   2598  COA2598     0.2471
     44  O5P        8.1660    8.0450   19.9070 O.2   2598  COA2598    -0.2729
     45  N4P        7.0780    7.6270   17.9250 N.am  2598  COA2598    -0.1816
     46  C3P        8.3250    7.4820   17.1520 C.2   2598  COA2598     0.0748
     47  C2P        8.1550    7.0680   15.6990 C.3   2598  COA2598     0.1127
     48  S1P        7.0710    8.1180   14.7420 S.3   2598  COA2598    -0.0755
@<TRIPOS>BOND
     1    48    47    1
     2    47    46    1
     3    46    45    2
     4    45    43    1
     5    43    44    2
     6    43    42    1
     7    42    41    1
     8    41    40    1
     9    37    36    1
    10    40    38   am
    11    38    39    2
    12    38    36    1
    13    29    28    2
    14    30    28    1
    15    36    32    1
    16    28    31    1
    17    28    27    1
    18    31    33    1
    19    32    33    1
    20    32    35    1
    21    32    34    1
    22    27    24    1
    23    26    24    2
    24    24    23    1
    25    24    25    1
    26    22    23    1
    27    22    20    1
    28    17    16    2
    29    20    21    1
    30    20    14    1
    31    21    11    1
    32    14    15    1
    33    14    12    1
    34    16    15    1
    35    16    19    1
    36    16    18    1
    37    12    11    1
    38    12    13    1
    39    11    10    1
    40     9    10    1
    41     9     8    1
    42    10     4    1
    43     8     5    2
    44     4     5    1
    45     4     3    2
    46     5     6    1
    47     3     2    1
    48     6     7    1
    49     6     1    2
    50     2     1    1
