@<TRIPOS>MOLECULE
4eud_CIT_B_1.pdb
 13 12 0 0 0
SMALL
GASTEIGER

@<TRIPOS>ATOM
      1  C1       -19.2970  -27.3840  -30.7440 C.2   2502  CIT2502     0.3680
      2  O1       -20.4240  -27.7310  -31.0050 O.co2 2502  CIT2502    -0.2455
      3  O2       -18.2960  -27.7510  -31.5560 O.co2 2502  CIT2502    -0.2455
      4  C2       -19.0310  -26.4160  -29.6130 C.3   2502  CIT2502     0.1560
      5  C3       -20.2550  -25.5290  -29.3500 C.3   2502  CIT2502     0.2402
      6  O7       -21.3280  -26.3490  -28.8670 O.3   2502  CIT2502    -0.2129
      7  C4       -19.8680  -24.4820  -28.2980 C.3   2502  CIT2502     0.1560
      8  C5       -21.0180  -23.5650  -27.9560 C.2   2502  CIT2502     0.3680
      9  O3       -22.1300  -23.8070  -28.3400 O.co2 2502  CIT2502    -0.2455
     10  O4       -20.8130  -22.4600  -27.2200 O.co2 2502  CIT2502    -0.2455
     11  C6       -20.6370  -24.8260  -30.6390 C.2   2502  CIT2502     0.3927
     12  O5       -21.7740  -24.8480  -31.0660 O.co2 2502  CIT2502    -0.2429
     13  O6       -19.7070  -24.0900  -31.2730 O.co2 2502  CIT2502    -0.2429
@<TRIPOS>BOND
     1     3     1   ar
     2    13    11   ar
     3    12    11   ar
     4     2     1   ar
     5     1     4    1
     6    11     5    1
     7     4     5    1
     8     5     6    1
     9     5     7    1
    10     9     8   ar
    11     7     8    1
    12     8    10   ar
