@<TRIPOS>MOLECULE
4eud_COA_A_1.pdb
 48 50 0 0 0
SMALL
GASTEIGER

@<TRIPOS>ATOM
      1  N1A       -6.9470   13.1500  -34.2590 N.2   2598  COA2598     0.0021
      2  C2A       -5.7440   13.6830  -34.0370 C.3   2598  COA2598     0.5254
      3  N3A       -5.4360   14.2880  -32.8790 N.2   2598  COA2598    -0.0055
      4  C4A       -6.3500   14.3740  -31.8940 C.2   2598  COA2598     0.3518
      5  C5A       -7.6220   13.8370  -32.0920 C.2   2598  COA2598     0.2526
      6  C6A       -7.9040   13.2130  -33.3110 C.2   2598  COA2598     0.4393
      7  N6A       -9.2080   12.6470  -33.5680 N.pl3 2598  COA2598     0.2180
      8  N7A       -8.3240   14.0660  -30.9580 N.2   2598  COA2598    -0.2095
      9  C8A       -7.5390   14.7210  -30.0890 C.3   2598  COA2598     0.3377
     10  N9A       -6.3480   14.9110  -30.6640 N.pl3 2598  COA2598    -0.1439
     11  C1B       -5.2130   15.5320  -30.0820 C.3   2598  COA2598     0.3185
     12  C2B       -5.4030   17.0070  -29.9690 C.3   2598  COA2598     0.2543
     13  O2B       -5.0820   17.5980  -31.1800 O.3   2598  COA2598    -0.2131
     14  C3B       -4.4510   17.3400  -28.9770 C.3   2598  COA2598     0.1928
     15  O3B       -3.1700   17.4550  -29.5840 O.3   2598  COA2598    -0.2673
     16  P3B       -1.9960   18.3490  -28.9240 P.3   2598  COA2598     0.5327
     17  O7A       -1.5400   17.7170  -27.6260 O.3   2598  COA2598    -0.1145
     18  O8A       -0.8180   18.4180  -29.8860 O.2   2598  COA2598    -0.2224
     19  O9A       -2.5380   19.7480  -28.6710 O.3   2598  COA2598    -0.1145
     20  C4B       -4.4150   16.1720  -28.0870 C.3   2598  COA2598     0.1795
     21  O4B       -5.0160   15.0980  -28.7810 O.3   2598  COA2598    -0.3136
     22  C5B       -5.1670   16.4660  -26.8560 C.3   2598  COA2598     0.1812
     23  O5B       -6.5310   16.0500  -26.7910 O.3   2598  COA2598    -0.3112
     24  P1A       -7.6980   17.0820  -26.4040 P.3   2598  COA2598     0.2189
     25  O1A       -8.5410   17.4820  -27.6080 O.2   2598  COA2598    -0.5170
     26  O2A       -7.0870   18.3110  -25.7630 O.3   2598  COA2598    -0.4371
     27  O3A       -8.7370   16.3990  -25.4310 O.3   2598  COA2598    -0.2703
     28  P2A       -8.3620   15.5310  -24.1750 P.3   2598  COA2598     0.2188
     29  O4A       -7.7840   16.4020  -23.0680 O.3   2598  COA2598    -0.4371
     30  O5A       -9.6430   14.9090  -23.6860 O.2   2598  COA2598    -0.5170
     31  O6A       -7.3470   14.3970  -24.5520 O.3   2598  COA2598    -0.3138
     32  CBP       -6.9600   11.9880  -24.8900 C.3   2598  COA2598     0.0645
     33  CCP       -7.8220   13.2530  -25.1420 C.3   2598  COA2598     0.1519
     34  CDP       -7.6650   10.7720  -25.5240 C.3   2598  COA2598     0.0056
     35  CEP       -5.5970   12.2210  -25.4910 C.3   2598  COA2598     0.0056
     36  CAP       -6.8180   11.7800  -23.3820 C.3   2598  COA2598     0.2312
     37  OAP       -8.0950   11.5970  -22.8200 O.3   2598  COA2598    -0.2131
     38  C9P       -5.9930   10.5720  -22.9700 C.2   2598  COA2598     0.2719
     39  O9P       -4.7630   10.5700  -23.0740 O.2   2598  COA2598    -0.2706
     40  N8P       -6.7030    9.3440  -22.6690 N.am  2598  COA2598    -0.2028
     41  C7P       -5.9980    8.1630  -22.2000 C.3   2598  COA2598     0.1248
     42  C6P       -5.8380    8.0490  -20.6890 C.3   2598  COA2598     0.1102
     43  C5P       -7.1330    8.0870  -19.8930 C.2   2598  COA2598     0.2432
     44  O5P       -8.2040    8.1920  -20.4660 O.2   2598  COA2598    -0.2733
     45  N4P       -7.0700    7.6940  -18.4980 N.am  2598  COA2598    -0.2044
     46  C3P       -8.2260    7.8130  -17.5830 C.3   2598  COA2598     0.1276
     47  C2P       -8.2640    9.0780  -16.7250 C.3   2598  COA2598     0.0920
     48  S1P       -7.4190   10.5170  -17.3790 S.3   2598  COA2598    -0.0802
@<TRIPOS>BOND
     1     1     2    1
     2     1     6    2
     3     2     3    1
     4     7     6    1
     5     6     5    1
     6     3     4    2
     7     5     4    1
     8     5     8    2
     9     4    10    1
    10    13    12    1
    11     8     9    1
    12    10     9    1
    13    10    11    1
    14    11    12    1
    15    11    21    1
    16    12    14    1
    17    18    16    2
    18    15    14    1
    19    15    16    1
    20    14    20    1
    21    16    19    1
    22    16    17    1
    23    21    20    1
    24    20    22    1
    25    25    24    2
    26    22    23    1
    27    23    24    1
    28    24    26    1
    29    24    27    1
    30    34    32    1
    31    35    32    1
    32    27    28    1
    33    33    32    1
    34    33    31    1
    35    32    36    1
    36    31    28    1
    37    28    30    2
    38    28    29    1
    39    36    38    1
    40    36    37    1
    41    39    38    2
    42    38    40   am
    43    40    41    1
    44    41    42    1
    45    42    43    1
    46    44    43    2
    47    43    45   am
    48    45    46    1
    49    46    47    1
    50    48    47    1
