@<TRIPOS>MOLECULE
4eue_NAI_A_1.pdb
 44 48 0 0 0
SMALL
GASTEIGER

@<TRIPOS>ATOM
      1  PA        38.0010   18.2760   23.1780 P.3   1001  NAI1001     0.2189
      2  O1A       36.7940   18.9660   23.6580 O.3   1001  NAI1001    -0.4371
      3  O2A       38.0940   16.8040   23.3230 O.2   1001  NAI1001    -0.5170
      4  O5B       38.2220   18.6090   21.6210 O.3   1001  NAI1001    -0.3112
      5  C5B       39.0410   17.7610   20.8060 C.3   1001  NAI1001     0.1813
      6  C4B       38.7850   18.0730   19.3300 C.3   1001  NAI1001     0.1821
      7  O4B       39.8370   17.4840   18.5290 O.3   1001  NAI1001    -0.3135
      8  C3B       37.4680   17.4410   18.8680 C.3   1001  NAI1001     0.2184
      9  O3B       36.8270   18.3560   17.9730 O.3   1001  NAI1001    -0.2174
     10  C2B       37.9360   16.2020   18.1230 C.3   1001  NAI1001     0.2570
     11  O2B       37.0240   15.8090   17.0800 O.3   1001  NAI1001    -0.2130
     12  C1B       39.1960   16.7220   17.4860 C.3   1001  NAI1001     0.3186
     13  N9A       40.0610   15.6150   17.0170 N.pl3 1001  NAI1001    -0.1439
     14  C8A       40.7390   14.5940   17.8160 C.3   1001  NAI1001     0.3377
     15  N7A       41.4250   13.8150   16.7940 N.2   1001  NAI1001    -0.2095
     16  C5A       41.1580   14.3470   15.5970 C.2   1001  NAI1001     0.2526
     17  C6A       41.5620   13.9730   14.3760 C.2   1001  NAI1001     0.4393
     18  N6A       42.3660   12.9120   14.3040 N.pl3 1001  NAI1001     0.2180
     19  N1A       41.1720   14.6180   13.2640 N.2   1001  NAI1001     0.0021
     20  C2A       40.3220   15.7210   13.3700 C.3   1001  NAI1001     0.5254
     21  N3A       39.9230   16.1060   14.6540 N.2   1001  NAI1001    -0.0055
     22  C4A       40.3420   15.4140   15.7340 C.2   1001  NAI1001     0.3518
     23  O3        39.3480   18.8560   23.8650 O.3   1001  NAI1001    -0.2703
     24  PN        39.7770   20.3740   24.2270 P.3   1001  NAI1001     0.2189
     25  O1N       40.0350   20.4160   25.6840 O.3   1001  NAI1001    -0.4371
     26  O2N       38.8690   21.3660   23.6210 O.2   1001  NAI1001    -0.5170
     27  O5D       41.2150   20.3790   23.5100 O.3   1001  NAI1001    -0.3112
     28  C5D       41.5330   21.2320   22.4030 C.3   1001  NAI1001     0.1813
     29  C4D       42.9040   21.8860   22.6100 C.3   1001  NAI1001     0.1799
     30  O4D       42.8550   22.7210   23.7920 O.3   1001  NAI1001    -0.3327
     31  C3D       43.9540   20.8020   22.8800 C.3   1001  NAI1001     0.2158
     32  O3D       45.1430   21.1270   22.1450 O.3   1001  NAI1001    -0.2175
     33  C2D       44.1940   20.9170   24.3760 C.3   1001  NAI1001     0.2309
     34  O2D       45.5260   20.4830   24.7100 O.3   1001  NAI1001    -0.2158
     35  C1D       44.0360   22.4180   24.5590 C.3   1001  NAI1001     0.2263
     36  N1N       43.8020   22.8530   25.9650 N.pl3 1001  NAI1001    -0.2787
     37  C2N       42.8150   22.2510   26.7820 C.3   1001  NAI1001     0.1244
     38  C3N       42.6270   22.6970   28.0960 C.2   1001  NAI1001     0.0544
     39  C7N       41.6520   22.1150   28.9160 C.2   1001  NAI1001     0.2818
     40  O7N       41.8140   22.2310   30.2610 O.2   1001  NAI1001    -0.2670
     41  N7N       40.6040   21.5260   28.3220 N.am  1001  NAI1001    -0.0839
     42  C4N       43.4140   23.7450   28.5890 C.2   1001  NAI1001     0.0033
     43  C5N       44.3780   24.3510   27.7840 C.2   1001  NAI1001     0.0157
     44  C6N       44.5780   23.9100   26.4760 C.2   1001  NAI1001     0.0633
@<TRIPOS>BOND
     1    19    20    1
     2    19    17    2
     3    20    21    1
     4    18    17    1
     5    17    16    1
     6    21    22    2
     7    16    22    1
     8    16    15    2
     9    22    13    1
    10    15    14    1
    11    13    12    1
    12    13    14    1
    13    11    10    1
    14    12    10    1
    15    12     7    1
    16     9     8    1
    17    10     8    1
    18     7     6    1
    19     8     6    1
    20     6     5    1
    21     5     4    1
    22     4     1    1
    23    32    31    1
    24    28    29    1
    25    28    27    1
    26    29    31    1
    27    29    30    1
    28    31    33    1
    29     1     3    2
    30     1     2    1
    31     1    23    1
    32    27    24    1
    33    26    24    2
    34    30    35    1
    35    23    24    1
    36    24    25    1
    37    33    35    1
    38    33    34    1
    39    35    36    1
    40    36    44    1
    41    36    37    1
    42    44    43    2
    43    37    38    1
    44    43    42    1
    45    38    42    2
    46    38    39    1
    47    41    39   am
    48    39    40    2
