@<TRIPOS>MOLECULE
4euf_NAD_A_1.pdb
 44 48 0 0 0
SMALL
GASTEIGER

@<TRIPOS>ATOM
      1  PA        -5.7160   -4.4770   17.1900 P.3   1001  NAD1001     0.2189
      2  O1A       -4.7670   -3.6670   17.8700 O.3   1001  NAD1001    -0.4371
      3  O2A       -5.4580   -5.8880   17.0890 O.2   1001  NAD1001    -0.5170
      4  O5B       -7.1140   -4.3010   17.8400 O.3   1001  NAD1001    -0.3112
      5  C5B       -7.9380   -5.3760   18.3130 C.3   1001  NAD1001     0.1813
      6  C4B       -9.1210   -4.9440   19.2070 C.3   1001  NAD1001     0.1821
      7  O4B      -10.0430   -5.9900   19.2250 O.3   1001  NAD1001    -0.3135
      8  C3B       -8.7710   -4.9010   20.6220 C.3   1001  NAD1001     0.2184
      9  O3B       -9.5920   -4.0030   21.1290 O.3   1001  NAD1001    -0.2174
     10  C2B       -9.3060   -6.1660   21.1180 C.3   1001  NAD1001     0.2570
     11  O2B       -9.6030   -6.0340   22.4290 O.3   1001  NAD1001    -0.2130
     12  C1B      -10.5390   -6.0980   20.4740 C.3   1001  NAD1001     0.3186
     13  N9A      -11.1480   -7.4000   20.5280 N.pl3 1001  NAD1001    -0.1439
     14  C8A      -10.4650   -8.5590   20.1510 C.3   1001  NAD1001     0.3377
     15  N7A      -11.3960   -9.5910   20.3940 N.2   1001  NAD1001    -0.2095
     16  C5A      -12.4820   -9.0620   20.8900 C.2   1001  NAD1001     0.2526
     17  C6A      -13.6190   -9.6210   21.2270 C.2   1001  NAD1001     0.4393
     18  N6A      -13.7010  -10.9100   21.0840 N.pl3 1001  NAD1001     0.2180
     19  N1A      -14.6140   -8.9530   21.7360 N.2   1001  NAD1001     0.0021
     20  C2A      -14.4820   -7.6200   21.8880 C.3   1001  NAD1001     0.5254
     21  N3A      -13.3250   -7.0280   21.4690 N.2   1001  NAD1001    -0.0055
     22  C4A      -12.3310   -7.7550   20.9850 C.2   1001  NAD1001     0.3518
     23  O3        -5.9620   -4.0080   15.7250 O.3   1001  NAD1001    -0.2703
     24  PN        -5.6640   -2.7170   14.9720 P.3   1001  NAD1001     0.2189
     25  O1N       -4.2630   -2.5630   14.8010 O.2   1001  NAD1001    -0.5170
     26  O2N       -6.5150   -1.6780   15.4110 O.3   1001  NAD1001    -0.4371
     27  O5D       -6.2430   -2.8800   13.6330 O.3   1001  NAD1001    -0.3112
     28  C5D       -7.6610   -2.7100   13.5780 C.3   1001  NAD1001     0.1813
     29  C4D       -8.1980   -2.8610   12.1630 C.3   1001  NAD1001     0.1799
     30  O4D       -7.0580   -2.6050   11.4130 O.3   1001  NAD1001    -0.3327
     31  C3D       -8.4580   -4.2810   11.9180 C.3   1001  NAD1001     0.2158
     32  O3D       -9.8040   -4.3260   11.5600 O.3   1001  NAD1001    -0.2175
     33  C2D       -7.4640   -4.6540   10.7890 C.3   1001  NAD1001     0.2309
     34  O2D       -8.1290   -5.3410    9.8200 O.3   1001  NAD1001    -0.2158
     35  C1D       -7.1820   -3.3300   10.2220 C.3   1001  NAD1001     0.2263
     36  N1N       -5.8550   -3.0300    9.5910 N.pl3 1001  NAD1001    -0.2787
     37  C2N       -4.7610   -3.9190    9.4270 C.3   1001  NAD1001     0.1244
     38  C3N       -3.6080   -3.3770    8.8220 C.2   1001  NAD1001     0.0544
     39  C7N       -2.4890   -4.1110    8.5500 C.2   1001  NAD1001     0.2818
     40  O7N       -2.6000   -5.4440    8.3760 O.2   1001  NAD1001    -0.2670
     41  N7N       -1.4650   -3.3560    8.2680 N.am  1001  NAD1001    -0.0839
     42  C4N       -3.5190   -2.0420    8.4070 C.2   1001  NAD1001     0.0033
     43  C5N       -4.5640   -1.1760    8.5420 C.2   1001  NAD1001     0.0157
     44  C6N       -5.6970   -1.6970    9.1420 C.2   1001  NAD1001     0.0633
@<TRIPOS>BOND
     1    41    39   am
     2    40    39    2
     3    42    43    1
     4    42    38    2
     5    43    44    2
     6    39    38    1
     7    38    37    1
     8    44    36    1
     9    37    36    1
    10    36    35    1
    11    34    33    1
    12    35    33    1
    13    35    30    1
    14    33    31    1
    15    30    29    1
    16    32    31    1
    17    31    29    1
    18    29    28    1
    19    28    27    1
    20    27    24    1
    21    25    24    2
    22    24    26    1
    23    24    23    1
    24    23     1    1
    25     3     1    2
    26     1     4    1
    27     1     2    1
    28     4     5    1
    29     5     6    1
    30     6     7    1
    31     6     8    1
    32     7    12    1
    33    14    15    1
    34    14    13    1
    35    15    16    2
    36    12    13    1
    37    12    10    1
    38    13    22    1
    39     8    10    1
    40     8     9    1
    41    16    22    1
    42    16    17    1
    43    22    21    2
    44    18    17    1
    45    10    11    1
    46    17    19    2
    47    21    20    1
    48    19    20    1
