@<TRIPOS>MOLECULE
4eum_AMP_A_1.pdb
 23 25 0 0 0
SMALL
GASTEIGER

@<TRIPOS>ATOM
      1  P         11.0620   38.4010  107.1890 P.3   401  AMP401      0.5327
      2  O1P       11.1910   38.0340  105.7260 O.2   401  AMP401     -0.2224
      3  O2P       12.3030   38.3290  108.0610 O.3   401  AMP401     -0.1145
      4  O3P       10.4660   39.7840  107.3000 O.3   401  AMP401     -0.1145
      5  O5'        9.8960   37.5340  107.8450 O.3   401  AMP401     -0.2675
      6  C5'        9.0350   38.0860  108.8310 C.3   401  AMP401      0.1860
      7  C4'        8.4520   37.0100  109.7060 C.3   401  AMP401      0.1823
      8  O4'        7.7420   36.0440  108.8810 O.3   401  AMP401     -0.3135
      9  C3'        9.4620   36.1730  110.4800 C.3   401  AMP401      0.2184
     10  O3'        9.8680   36.7860  111.6890 O.3   401  AMP401     -0.2174
     11  C2'        8.7300   34.8600  110.6860 C.3   401  AMP401      0.2570
     12  O2'        7.8120   34.9700  111.7600 O.3   401  AMP401     -0.2130
     13  C1'        7.9450   34.7380  109.3760 C.3   401  AMP401      0.3186
     14  N9         8.7070   33.9770  108.3680 N.pl3 401  AMP401     -0.1439
     15  C8         9.3650   34.4770  107.2990 C.3   401  AMP401      0.3377
     16  N7         9.9940   33.4890  106.6060 N.2   401  AMP401     -0.2095
     17  C5         9.7480   32.3290  107.2460 C.2   401  AMP401      0.2526
     18  C6        10.1080   30.9020  107.0580 C.2   401  AMP401      0.4393
     19  N6        10.8780   30.4930  106.0180 N.pl3 401  AMP401      0.2180
     20  N1         9.6380   30.0210  107.9700 N.2   401  AMP401      0.0021
     21  C2         8.8710   30.4040  109.0130 C.3   401  AMP401      0.5254
     22  N3         8.5040   31.6730  109.2480 N.2   401  AMP401     -0.0055
     23  C4         8.9060   32.6600  108.4110 C.2   401  AMP401      0.3518
@<TRIPOS>BOND
     1     2     1    2
     2    19    18    1
     3    16    17    2
     4    16    15    1
     5    18    17    1
     6    18    20    2
     7     1     4    1
     8     1     5    1
     9     1     3    1
    10    17    23    1
    11    15    14    1
    12     5     6    1
    13    20    21    1
    14    14    23    1
    15    14    13    1
    16    23    22    2
    17     6     7    1
    18     8    13    1
    19     8     7    1
    20    21    22    1
    21    13    11    1
    22     7     9    1
    23     9    11    1
    24     9    10    1
    25    11    12    1
