@<TRIPOS>MOLECULE
4eut_BX7_A_1.pdb
 34 37 0 0 0
SMALL
GASTEIGER

@<TRIPOS>ATOM
      1  I01       73.4360    2.7170   90.6700 I     401  BX7401     -0.0367
      2  S02       70.0660   -0.6090   86.4290 S.2   401  BX7401     -0.0819
      3  O03       68.4230   -5.0230   98.3860 O.2   401  BX7401     -0.2504
      4  O04       69.9050    0.8200   89.1700 O.2   401  BX7401     -0.2678
      5  N05       69.0240   -5.2650  100.5890 N.am  401  BX7401     -0.2626
      6  N06       70.3020   -3.7950   98.9990 N.am  401  BX7401     -0.1622
      7  N07       71.6240   -0.0470   91.4430 N.pl3 401  BX7401     -0.2085
      8  N08       72.4070   -0.3510   96.2100 N.pl3 401  BX7401     -0.1357
      9  N09       68.4260   -0.6450   90.1810 N.am  401  BX7401     -0.2012
     10  N10       72.1040   -0.0670   93.8290 N.2   401  BX7401     -0.3188
     11  N11       73.4190    1.4730   94.9450 N.2   401  BX7401     -0.1678
     12  C12       67.8830   -6.1500  102.3900 C.3   401  BX7401      0.0233
     13  C13       69.1330   -5.3700  102.8960 C.3   401  BX7401      0.0233
     14  C14       69.8720   -4.9530  101.6470 C.3   401  BX7401      0.0951
     15  C15       67.9930   -6.1500  100.8840 C.3   401  BX7401      0.0951
     16  C16       69.2010   -4.7140   99.2820 C.2   401  BX7401      0.3275
     17  C17       70.4870   -3.2000   97.6910 C.ar  401  BX7401      0.0762
     18  C18       71.3260   -2.1090   97.5600 C.ar  401  BX7401      0.0340
     19  C19       69.4500   -0.5650   92.3550 C.3   401  BX7401      0.0468
     20  C20       69.7930   -3.6960   96.5880 C.ar  401  BX7401      0.0167
     21  C21       70.6790   -1.1280   91.6550 C.3   401  BX7401      0.1167
     22  C22       71.5220   -1.4880   96.3270 C.ar  401  BX7401      0.0839
     23  C23       68.5180    0.1410   91.3710 C.3   401  BX7401      0.1173
     24  C24       69.9730   -3.0810   95.3570 C.ar  401  BX7401      0.0027
     25  C25       70.8270   -1.9980   95.2290 C.ar  401  BX7401      0.0174
     26  C26       72.2880    0.5470   92.6290 C.2   401  BX7401      0.2188
     27  C27       72.6500    0.3670   94.9750 C.1   401  BX7401      0.1709
     28  C28       73.0870    1.7000   92.5310 C.2   401  BX7401      0.0962
     29  C29       69.2030   -0.1990   89.0500 C.2   401  BX7401      0.2708
     30  C30       73.6450    2.1310   93.7740 C.2   401  BX7401      0.1215
     31  C31       69.1930   -0.9900   87.7400 C.ar  401  BX7401      0.0845
     32  C32       68.4450   -2.1890   87.4990 C.ar  401  BX7401      0.0116
     33  C33       68.7140   -2.6980   86.0750 C.ar  401  BX7401      0.0076
     34  C34       69.6430   -1.8280   85.4250 C.ar  401  BX7401      0.0356
@<TRIPOS>BOND
     1    34    33   ar
     2    34     2   ar
     3    33    32   ar
     4     2    31   ar
     5    32    31   ar
     6    31    29    1
     7    29     4    2
     8    29     9   am
     9     9    23    1
    10     1    28    1
    11    23    19    1
    12     7    21    1
    13     7    26    1
    14    21    19    1
    15    28    26    1
    16    28    30    2
    17    26    10    2
    18    30    11    1
    19    10    27    2
    20    11    27    2
    21    27     8    1
    22    25    24   ar
    23    25    22   ar
    24    24    20   ar
    25     8    22    1
    26    22    18   ar
    27    20    17   ar
    28    18    17   ar
    29    17     6    1
    30     3    16    2
    31     6    16   am
    32    16     5   am
    33     5    15    1
    34     5    14    1
    35    15    12    1
    36    14    13    1
    37    12    13    1
