@<TRIPOS>MOLECULE
4euu_BX7_A_1.pdb
 34 37 0 0 0
SMALL
GASTEIGER

@<TRIPOS>ATOM
      1  I01       -5.5180  -12.5700    7.7700 I     401  BX7401     -0.0367
      2  S02       -0.0230  -15.3980    4.9410 S.2   401  BX7401     -0.0819
      3  O03        2.3130   -6.8020   12.1170 O.2   401  BX7401     -0.2504
      4  O04       -1.4990  -14.1350    7.3370 O.2   401  BX7401     -0.2678
      5  N05        3.5350   -7.7730   10.4210 N.am  401  BX7401     -0.2626
      6  N06        1.1410   -7.3720   10.2300 N.am  401  BX7401     -0.1622
      7  N07       -2.4770  -11.2210    8.0080 N.pl3 401  BX7401     -0.2085
      8  N08       -3.7340   -7.3030   10.5800 N.pl3 401  BX7401     -0.1357
      9  N09        0.4390  -13.2430    8.2820 N.am  401  BX7401     -0.2012
     10  N10       -3.1380   -9.2480    9.2660 N.2   401  BX7401     -0.3188
     11  N11       -5.3260   -8.8710    9.9540 N.2   401  BX7401     -0.1678
     12  C12        5.7440   -7.8480    9.9620 C.3   401  BX7401      0.0233
     13  C13        4.9540   -8.3100    8.7110 C.3   401  BX7401      0.0233
     14  C14        3.4930   -8.3410    9.1480 C.3   401  BX7401      0.0951
     15  C15        4.7530   -7.7600   11.0910 C.3   401  BX7401      0.0951
     16  C16        2.3500   -7.2840   11.0080 C.2   401  BX7401      0.3275
     17  C17       -0.1100   -6.8220   10.7120 C.ar  401  BX7401      0.0762
     18  C18       -1.3030   -7.4140   10.3810 C.ar  401  BX7401      0.0340
     19  C19       -0.4580  -11.3030    9.3290 C.3   401  BX7401      0.0468
     20  C20       -0.0090   -5.6550   11.4580 C.ar  401  BX7401      0.0167
     21  C21       -1.0780  -10.7980    7.9890 C.3   401  BX7401      0.1167
     22  C22       -2.4680   -6.7840   10.8310 C.ar  401  BX7401      0.0839
     23  C23       -0.3770  -12.8510    9.4080 C.3   401  BX7401      0.1173
     24  C24       -1.1790   -5.0780   11.9180 C.ar  401  BX7401      0.0027
     25  C25       -2.3800   -5.6280   11.5800 C.ar  401  BX7401      0.0174
     26  C26       -3.4890  -10.3970    8.7020 C.2   401  BX7401      0.2188
     27  C27       -4.0680   -8.4990    9.9160 C.1   401  BX7401      0.1709
     28  C28       -4.8350  -10.8540    8.6960 C.2   401  BX7401      0.0962
     29  C29       -0.2830  -13.8960    7.2450 C.2   401  BX7401      0.2708
     30  C30       -5.7690  -10.0080    9.3980 C.2   401  BX7401      0.1215
     31  C31        0.4840  -14.2430    5.9840 C.ar  401  BX7401      0.0845
     32  C32        1.6680  -13.5480    5.5510 C.ar  401  BX7401      0.0116
     33  C33        2.0930  -14.1550    4.2020 C.ar  401  BX7401      0.0076
     34  C34        1.2020  -15.2270    3.8490 C.ar  401  BX7401      0.0356
@<TRIPOS>BOND
     1    34    33   ar
     2    34     2   ar
     3    33    32   ar
     4     2    31   ar
     5    32    31   ar
     6    31    29    1
     7    29     4    2
     8    29     9   am
     9     1    28    1
    10    21     7    1
    11    21    19    1
    12     7    26    1
    13     9    23    1
    14    28    26    1
    15    28    30    2
    16    26    10    2
    17    13    14    1
    18    13    12    1
    19    14     5    1
    20    10    27    2
    21    19    23    1
    22    30    11    1
    23    27    11    2
    24    27     8    1
    25    12    15    1
    26     6    17    1
    27     6    16   am
    28    18    17   ar
    29    18    22   ar
    30     5    16   am
    31     5    15    1
    32     8    22    1
    33    17    20   ar
    34    22    25   ar
    35    16     3    2
    36    20    24   ar
    37    25    24   ar
