@<TRIPOS>MOLECULE
4euv_C2E_A_1.pdb
 46 52 0 0 0
SMALL
GASTEIGER

@<TRIPOS>ATOM
      1  P1        16.5090    2.3420   14.0580 P.3   501  C2E501      0.2141
      2  O2P       17.8300    1.6950   14.3220 O.2   501  C2E501     -0.5172
      3  O1P       16.1570    3.5850   14.8560 O.3   501  C2E501     -0.4373
      4  O5'       15.4250    1.2000   14.2750 O.3   501  C2E501     -0.3114
      5  C5'       15.6650   -0.1580   13.8950 C.3   501  C2E501      0.1812
      6  C4'       14.3440   -0.8850   14.0870 C.3   501  C2E501      0.1771
      7  O4'       14.1300   -1.0510   15.5130 O.3   501  C2E501     -0.3327
      8  C3'       13.1330   -0.1060   13.5790 C.3   501  C2E501      0.1857
      9  O3'       12.7530   -0.4170   12.2350 O.3   501  C2E501     -0.3112
     10  C2'       12.0230   -0.5990   14.4910 C.3   501  C2E501      0.2282
     11  O2'       11.4640   -1.8330   14.0270 O.3   501  C2E501     -0.2159
     12  C1'       12.7350   -0.8400   15.7970 C.3   501  C2E501      0.2292
     13  N9        12.5780    0.3770   16.6320 N.pl3 501  C2E501     -0.2354
     14  C8        13.5290    1.2820   16.9190 C.3   501  C2E501      0.2246
     15  N7        13.0410    2.2540   17.7150 N.2   501  C2E501     -0.2322
     16  C5        11.7470    1.9680   17.9460 C.2   501  C2E501      0.2182
     17  C6        10.6650    2.6100   18.7150 C.1   501  C2E501      0.2372
     18  O6        10.9360    3.7550   19.4010 O.2   501  C2E501     -0.2069
     19  N1         9.4570    2.0170   18.7070 N.2   501  C2E501     -0.2485
     20  C2         9.2020    0.8600   18.0050 C.1   501  C2E501      0.2531
     21  N2         7.9590    0.3360   18.0390 N.pl3 501  C2E501     -0.0226
     22  N3        10.1640    0.2050   17.2770 N.2   501  C2E501     -0.3074
     23  C4        11.4270    0.7360   17.2120 C.2   501  C2E501      0.2300
     24  P11       12.0030    0.6680   11.3100 P.3   501  C2E501      0.2141
     25  O21       11.8850   -0.0060    9.9570 O.2   501  C2E501     -0.5172
     26  O11       10.7370    1.1490   11.9920 O.3   501  C2E501     -0.4373
     27  O5A       13.0220    1.9020   11.2070 O.3   501  C2E501     -0.3114
     28  C5A       14.1810    1.8010   10.3780 C.3   501  C2E501      0.1812
     29  C4A       15.0200    3.0580   10.5190 C.3   501  C2E501      0.1771
     30  O4A       14.2870    4.1840   10.0600 O.3   501  C2E501     -0.3327
     31  C3A       15.3330    3.4280   11.9630 C.3   501  C2E501      0.1857
     32  O3A       16.4380    2.7110   12.4900 O.3   501  C2E501     -0.3112
     33  C2A       15.5620    4.9240   11.9260 C.3   501  C2E501      0.2282
     34  O2A       16.8810    5.2350   11.4440 O.3   501  C2E501     -0.2159
     35  C1A       14.5530    5.3260   10.8770 C.3   501  C2E501      0.2292
     36  N91       13.2720    5.7190   11.5270 N.pl3 501  C2E501     -0.2354
     37  C81       12.1330    4.9990   11.6380 C.3   501  C2E501      0.2246
     38  N71       11.1780    5.7090   12.2820 N.2   501  C2E501     -0.2322
     39  C51       11.7140    6.9080   12.5710 C.2   501  C2E501      0.2182
     40  C61       11.2850    8.1570   13.2280 C.1   501  C2E501      0.2372
     41  O61       10.0370    8.3130   13.7410 O.2   501  C2E501     -0.2069
     42  N11       12.1680    9.1600   13.3410 N.2   501  C2E501     -0.2485
     43  C21       13.4200    9.0860   12.8380 C.1   501  C2E501      0.2531
     44  N21       14.2350   10.1640   12.9700 N.pl3 501  C2E501     -0.0226
     45  N31       13.8950    7.9800   12.2190 N.2   501  C2E501     -0.3074
     46  C41       13.0900    6.9000   12.0620 C.2   501  C2E501      0.2300
@<TRIPOS>BOND
     1    25    24    2
     2    30    29    1
     3    30    35    1
     4    28    29    1
     5    28    27    1
     6    29    31    1
     7    35    36    1
     8    35    33    1
     9    27    24    1
    10    24    26    1
    11    24     9    1
    12    34    33    1
    13    36    37    1
    14    36    46    1
    15    37    38    1
    16    33    31    1
    17    31    32    1
    18    46    45    2
    19    46    39    1
    20    45    43    2
    21     9     8    1
    22    38    39    2
    23    32     1    1
    24    39    40    1
    25    43    44    1
    26    43    42    2
    27    40    42    2
    28    40    41    2
    29     8     6    1
    30     8    10    1
    31     5     6    1
    32     5     4    1
    33    11    10    1
    34     1     4    1
    35     1     2    2
    36     1     3    1
    37     6     7    1
    38    10    12    1
    39     7    12    1
    40    12    13    1
    41    13    14    1
    42    13    23    1
    43    14    15    1
    44    23    22    2
    45    23    16    1
    46    22    20    2
    47    15    16    2
    48    16    17    1
    49    20    21    1
    50    20    19    2
    51    19    17    2
    52    17    18    2
