@<TRIPOS>MOLECULE
4eux_HEM_A_1.pdb
 43 50 0 0 0
SMALL
GASTEIGER

@<TRIPOS>ATOM
      1  CHA       12.9130    4.4870   26.4250 C.2   801  HEM801      0.0000
      2  CHB       17.0030    1.6060   26.1260 C.2   801  HEM801      0.0000
      3  CHC       17.8140    3.3460   21.7130 C.2   801  HEM801      0.0000
      4  CHD       14.6970    7.1480   22.7960 C.2   801  HEM801      0.0000
      5  C1A       13.9120    3.4700   26.6330 C.2   801  HEM801      0.0000
      6  C2A       13.7360    2.4850   27.6940 C.2   801  HEM801      0.0000
      7  C3A       14.9160    1.6380   27.6360 C.2   801  HEM801      0.0000
      8  C4A       15.7100    2.1620   26.4900 C.2   801  HEM801      0.0000
      9  CMA       15.2680    0.4740   28.5260 C.3   801  HEM801      0.0000
     10  CAA       12.5620    2.4430   28.6400 C.3   801  HEM801      0.0000
     11  CBA       11.4640    1.9180   27.7270 C.3   801  HEM801      0.0000
     12  CGA       10.4620    1.0220   28.4020 C.2   801  HEM801      0.0000
     13  O1A       10.7360    0.4990   29.5150 O.co2 801  HEM801      0.0000
     14  O2A        9.3870    0.8700   27.7660 O.co2 801  HEM801      0.0000
     15  C1B       17.5680    1.7900   24.8320 C.ar  801  HEM801      0.0000
     16  C2B       18.5920    0.8300   24.3490 C.ar  801  HEM801      0.0000
     17  C3B       18.8020    1.3690   23.0440 C.ar  801  HEM801      0.0000
     18  C4B       17.9250    2.5670   22.9470 C.ar  801  HEM801      0.0000
     19  CMB       19.2140   -0.3880   24.9670 C.3   801  HEM801      0.0000
     20  CAB       19.7430    0.7880   22.0570 C.2   801  HEM801      0.0000
     21  CBB       20.5660    1.5710   21.3900 C.2   801  HEM801      0.0000
     22  C1C       16.9960    4.5430   21.5570 C.2   801  HEM801      0.0000
     23  C2C       16.9980    5.3920   20.3220 C.2   801  HEM801      0.0000
     24  C3C       16.0730    6.4900   20.6700 C.2   801  HEM801      0.0000
     25  C4C       15.5840    6.2510   22.0510 C.2   801  HEM801      0.0000
     26  CMC       17.7470    5.1320   19.0300 C.3   801  HEM801      0.0000
     27  CAC       15.6860    7.6500   19.8260 C.2   801  HEM801      0.0000
     28  CBC       16.3310    7.9270   18.6960 C.2   801  HEM801      0.0000
     29  C1D       13.8390    6.7110   23.8800 C.ar  801  HEM801      0.0000
     30  C2D       12.6110    7.4410   24.1850 C.ar  801  HEM801      0.0000
     31  C3D       12.0990    6.6260   25.2920 C.ar  801  HEM801      0.0000
     32  C4D       13.0970    5.5590   25.4410 C.ar  801  HEM801      0.0000
     33  CMD       12.0550    8.7020   23.5550 C.3   801  HEM801      0.0000
     34  CAD       10.8400    6.7670   26.0930 C.3   801  HEM801      0.0000
     35  CBD        9.7170    6.1310   25.2690 C.3   801  HEM801      0.0000
     36  CGD        8.4170    6.4360   25.9810 C.2   801  HEM801      0.0000
     37  O1D        8.3570    7.4300   26.7680 O.co2 801  HEM801      0.0000
     38  O2D        7.4830    5.6470   25.7590 O.co2 801  HEM801      0.0000
     39  NA        15.0470    3.2360   25.7710 N.2   801  HEM801      0.0000
     40  NB        17.1550    2.7990   24.0280 N.ar  801  HEM801      0.0000
     41  NC        16.0450    4.9880   22.5400 N.2   801  HEM801      0.0000
     42  ND        14.1250    5.5990   24.5890 N.ar  801  HEM801      0.0000
     43 FE         15.8600    4.4420   24.4140 Fe    801  HEM801      0.0000
@<TRIPOS>BOND
     1    28    27    2
     2    26    23    1
     3    27    24    1
     4    23    24    2
     5    23    22    1
     6    24    25    1
     7    21    20    2
     8    22     3    2
     9    22    41    1
    10     3    18    1
    11    25    41    2
    12    25     4    1
    13    20    17    1
    14    41    43    1
    15     4    29    2
    16    18    17   ar
    17    18    40   ar
    18    17    16   ar
    19    33    30    1
    20    29    30   ar
    21    29    42   ar
    22    40    43    1
    23    40    15   ar
    24    30    31   ar
    25    16    15   ar
    26    16    19    1
    27    43    42    1
    28    43    39    1
    29    42    32   ar
    30    15     2    1
    31    35    36    1
    32    35    34    1
    33    31    32   ar
    34    31    34    1
    35    32     1    2
    36    38    36   ar
    37    39     8    1
    38    39     5    2
    39    36    37   ar
    40     2     8    2
    41     1     5    1
    42     8     7    1
    43     5     6    1
    44     7     6    2
    45     7     9    1
    46     6    10    1
    47    11    12    1
    48    11    10    1
    49    14    12   ar
    50    12    13   ar
