@<TRIPOS>MOLECULE
4eux_H4B_A_1.pdb
 17 18 0 0 0
SMALL
GASTEIGER

@<TRIPOS>ATOM
      1  N1         9.9740    2.3770   33.7000 N.2   802  H4B802     -0.2683
      2  C2        10.1270    2.0300   32.4130 C.1   802  H4B802      0.2608
      3  N2        11.4030    1.9110   31.9320 N.pl3 802  H4B802     -0.0220
      4  N3         9.0430    1.8050   31.6360 N.2   802  H4B802     -0.2474
      5  C4         7.7910    1.9190   32.1380 C.1   802  H4B802      0.2441
      6  O4         6.7900    1.6670   31.4110 O.2   802  H4B802     -0.2063
      7  C4A        7.6360    2.3090   33.4650 C.2   802  H4B802      0.2463
      8  C8A        8.7810    2.5480   34.2380 C.1   802  H4B802      0.1270
      9  N5         6.4160    2.4660   34.0300 N.2   802  H4B802     -0.2460
     10  N8         8.7330    2.9260   35.5380 N.2   802  H4B802     -0.2054
     11  C6         6.3780    3.4000   35.1560 C.3   802  H4B802      0.1627
     12  C7         7.4410    3.0640   36.2110 C.3   802  H4B802      0.1643
     13  C9         4.9760    3.5710   35.7430 C.3   802  H4B802      0.2063
     14  O9         4.4830    2.2900   36.1340 O.3   802  H4B802     -0.2183
     15  C10        4.9140    4.5160   36.9390 C.3   802  H4B802      0.1842
     16  C11        3.4830    4.5880   37.4670 C.3   802  H4B802      0.0383
     17  O10        5.2880    5.8380   36.5490 O.3   802  H4B802     -0.2204
@<TRIPOS>BOND
     1     6     5    2
     2     4     5    2
     3     4     2    2
     4     3     2    1
     5     5     7    1
     6     2     1    2
     7     7     9    2
     8     7     8    1
     9     1     8    2
    10     9    11    1
    11     8    10    2
    12    11    13    1
    13    11    12    1
    14    10    12    1
    15    13    14    1
    16    13    15    1
    17    17    15    1
    18    15    16    1
