@<TRIPOS>MOLECULE
4eux_HW1_A_1.pdb
 28 30 0 0 0
SMALL
GASTEIGER

@<TRIPOS>ATOM
      1  N02        5.7790    8.4360   27.5050 N.pl3 803  HW1803     -0.0977
      2  C02        4.8880    7.4070   27.4540 C.2   803  HW1803      0.2001
      3  C03        3.5690    7.5020   27.9680 C.3   803  HW1803      0.1001
      4  C04        2.6820    6.4020   27.8760 C.2   803  HW1803     -0.0332
      5  C07        1.2720    6.4560   28.4340 C.3   803  HW1803      0.0269
      6  C05        3.1270    5.2230   27.2720 C.2   803  HW1803      0.0196
      7  N01        5.2580    6.2420   26.8600 N.2   803  HW1803     -0.3924
      8  C06        4.4350    5.1860   26.7820 C.2   803  HW1803      0.1098
      9  C08        4.9780    3.9680   26.1170 C.3   803  HW1803      0.0629
     10  C3'        4.3570    2.7650   26.7700 C.3   803  HW1803      0.0531
     11  C2'        4.6430    2.7060   28.2700 C.3   803  HW1803      0.0916
     12  N1'        4.6120    1.2790   28.5040 N.3   803  HW1803     -0.2154
     13  C5'        4.6130    0.4770   27.2870 C.3   803  HW1803      0.1182
     14  C4'        4.9260    1.4940   26.1840 C.3   803  HW1803      0.1343
     15  O09        6.3340    1.6780   25.8860 O.3   803  HW1803     -0.3547
     16  C10        7.0000    0.4820   25.4360 C.3   803  HW1803      0.1421
     17  C11        7.9730    0.7500   24.2810 C.3   803  HW1803      0.0321
     18  C12        8.8380    1.9820   24.5200 C.3   803  HW1803      0.0030
     19  C13       10.3590    1.7980   24.5100 C.3   803  HW1803      0.0075
     20  C14       10.8670    0.6330   23.7010 C.3   803  HW1803      0.0590
     21  C26       12.3180    0.8050   23.2240 C.2   803  HW1803      0.1097
     22  N21       13.3140    0.0350   23.7520 N.2   803  HW1803     -0.3924
     23  C22       14.5800    0.1390   23.3300 C.2   803  HW1803      0.2001
     24  N22       15.5180   -0.6730   23.8930 N.pl3 803  HW1803     -0.0977
     25  C23       14.8940    1.0340   22.2890 C.3   803  HW1803      0.1001
     26  C24       13.9010    1.8160   21.7170 C.2   803  HW1803     -0.0332
     27  C25       12.6090    1.6920   22.1860 C.2   803  HW1803      0.0196
     28  C27       14.1830    2.7910   20.5860 C.3   803  HW1803      0.0269
@<TRIPOS>BOND
     1    28    26    1
     2    26    27    2
     3    26    25    1
     4    27    21    1
     5    25    23    1
     6    21    20    1
     7    21    22    2
     8    23    22    2
     9    23    24    1
    10    20    19    1
    11    17    18    1
    12    17    16    1
    13    19    18    1
    14    16    15    1
    15    15    14    1
    16     9    10    1
    17     9     8    1
    18    14    10    1
    19    14    13    1
    20    10    11    1
    21     8     7    2
    22     8     6    1
    23     7     2    2
    24     6     4    2
    25    13    12    1
    26     2     1    1
    27     2     3    1
    28     4     3    1
    29     4     5    1
    30    11    12    1
