@<TRIPOS>MOLECULE
4euz_MEM_A_1.pdb
 26 28 0 0 0
SMALL
GASTEIGER

@<TRIPOS>ATOM
      1  C24      -20.6650  -12.2450   28.9930 C.3   401  MEM401      0.1149
      2  N23      -21.0340  -10.8190   29.2470 N.am  401  MEM401     -0.2749
      3  C25      -22.4690  -10.4890   29.4220 C.3   401  MEM401      0.1149
      4  C22      -20.0440   -9.9400   29.2390 C.2   401  MEM401      0.2416
      5  O26      -18.8860  -10.3550   29.0570 O.2   401  MEM401     -0.2734
      6  C20      -20.3480   -8.4640   29.4690 C.3   401  MEM401      0.1498
      7  C21      -21.0920   -7.7170   28.4020 C.3   401  MEM401      0.0393
      8  N19      -19.0890   -7.7500   29.6400 N.3   401  MEM401     -0.2093
      9  C18      -18.7760   -7.1330   28.3830 C.3   401  MEM401      0.1003
     10  C17      -20.1500   -6.6400   27.8730 C.3   401  MEM401      0.0709
     11  S16      -20.2040   -6.7370   26.0390 S.3   401  MEM401     -0.1159
     12  C2       -19.1620   -5.4260   25.5610 C.2   401  MEM401      0.0245
     13  C1       -19.1740   -4.0510   26.1810 C.3   401  MEM401      0.0487
     14  C10      -20.5970   -3.4470   26.1450 C.3   401  MEM401      0.0070
     15  C5       -18.0330   -3.3420   25.4400 C.3   401  MEM401      0.0955
     16  C6       -18.3420   -2.2720   24.3910 C.3   401  MEM401      0.1261
     17  C8       -17.6610   -0.9090   24.4680 C.3   401  MEM401      0.1623
     18  C9       -18.1190   -0.1440   25.7040 C.3   401  MEM401      0.0361
     19  O13      -16.2320   -1.0930   24.5760 O.3   401  MEM401     -0.2226
     20  C7       -17.9210   -3.2900   23.3890 C.2   401  MEM401      0.2331
     21  O12      -17.9250   -3.3610   22.1570 O.2   401  MEM401     -0.2744
     22  N4       -17.7050   -4.2350   24.3450 N.am  401  MEM401     -0.2537
     23  C3       -18.2480   -5.4860   24.5380 C.2   401  MEM401      0.1360
     24  C11      -17.9550   -6.6840   23.6890 C.2   401  MEM401      0.4014
     25  O15      -16.7270   -6.7750   23.3400 O.co2 401  MEM401     -0.2391
     26  O14      -18.8250   -7.5000   23.3740 O.co2 401  MEM401     -0.2391
@<TRIPOS>BOND
     1    21    20    2
     2    25    24   ar
     3    26    24   ar
     4    20    22   am
     5    20    16    1
     6    24    23    1
     7    22    23    1
     8    22    15    1
     9    16    17    1
    10    16    15    1
    11    17    19    1
    12    17    18    1
    13    23    12    2
    14    15    13    1
    15    12    11    1
    16    12    13    1
    17    11    10    1
    18    14    13    1
    19    10     9    1
    20    10     7    1
    21     9     8    1
    22     7     6    1
    23     1     2    1
    24     5     4    2
    25     4     2   am
    26     4     6    1
    27     2     3    1
    28     6     8    1
