@<TRIPOS>MOLECULE
4ev0_CMP_A_1.pdb
 22 25 0 0 0
SMALL
GASTEIGER

@<TRIPOS>ATOM
      1  P         39.7230   42.0750   47.3610 P.3   301  CMP301      0.2141
      2  O1P       40.9270   42.6120   46.6330 O.2   301  CMP301     -0.5172
      3  O2P       39.8740   41.6620   48.8190 O.3   301  CMP301     -0.4373
      4  O5'       39.0620   40.8620   46.5300 O.3   301  CMP301     -0.3114
      5  C5'       37.7160   40.4530   46.7830 C.3   301  CMP301      0.1812
      6  C4'       36.8570   41.6640   46.8550 C.3   301  CMP301      0.1793
      7  O4'       35.5430   41.3980   47.3780 O.3   301  CMP301     -0.3136
      8  C3'       37.3600   42.7160   47.7900 C.3   301  CMP301      0.1884
      9  O3'       38.5890   43.2590   47.3470 O.3   301  CMP301     -0.3111
     10  C2'       36.1770   43.6600   47.8010 C.3   301  CMP301      0.2541
     11  O2'       36.0880   44.3430   46.5620 O.3   301  CMP301     -0.2131
     12  C1'       35.0240   42.6370   47.8610 C.3   301  CMP301      0.3185
     13  N9        34.5180   42.4400   49.2300 N.pl3 301  CMP301     -0.1439
     14  C8        35.1790   41.8180   50.2180 C.3   301  CMP301      0.3377
     15  N7        34.4420   41.7750   51.3560 N.2   301  CMP301     -0.2095
     16  C5        33.2720   42.3690   51.0990 C.2   301  CMP301      0.2526
     17  C6        32.0490   42.6410   51.8830 C.2   301  CMP301      0.4393
     18  N6        31.9640   42.2580   53.1880 N.pl3 301  CMP301      0.2180
     19  N1        31.0470   43.2890   51.2420 N.2   301  CMP301      0.0021
     20  C2        31.1500   43.6670   49.9460 C.3   301  CMP301      0.5254
     21  N3        32.2360   43.4410   49.1780 N.2   301  CMP301     -0.0055
     22  C4        33.3180   42.8060   49.6940 C.2   301  CMP301      0.3518
@<TRIPOS>BOND
     1     4     5    1
     2     4     1    1
     3    11    10    1
     4     2     1    2
     5     5     6    1
     6     6     7    1
     7     6     8    1
     8     9     1    1
     9     9     8    1
    10     1     3    1
    11     7    12    1
    12     8    10    1
    13    10    12    1
    14    12    13    1
    15    21    22    2
    16    21    20    1
    17    13    22    1
    18    13    14    1
    19    22    16    1
    20    20    19    1
    21    14    15    1
    22    16    15    2
    23    16    17    1
    24    19    17    2
    25    17    18    1
