@<TRIPOS>MOLECULE
4ev4_MER_A_1.pdb
 26 27 0 0 0
SMALL
GASTEIGER

@<TRIPOS>ATOM
      1  C1       -17.0320   -3.0050   22.7560 C.2   401  MER401      0.2115
      2  C2       -19.0870   -5.1470   25.5520 C.3   401  MER401      0.0957
      3  C3       -17.5870   -2.5150   24.0800 C.3   401  MER401      0.1175
      4  C4       -17.3320   -3.6240   25.1070 C.3   401  MER401      0.1141
      5  C5       -18.0120   -5.7520   24.4890 C.2   401  MER401      0.1428
      6  O6       -17.7440   -3.3280   21.8110 O.2   401  MER401     -0.2882
      7  C7       -16.9480   -1.2020   24.4700 C.3   401  MER401      0.1613
      8  O8       -17.1380   -0.7940   25.7740 O.3   401  MER401     -0.2226
      9  C9       -17.1860   -0.0960   23.5050 C.3   401  MER401      0.0360
     10  N10      -17.0610   -4.8820   24.3730 N.2   401  MER401     -0.2688
     11  C11      -18.1160   -7.0540   23.8420 C.2   401  MER401      0.4014
     12  O12      -16.9500   -7.4900   23.6360 O.co2 401  MER401     -0.2392
     13  O13      -19.1920   -7.5790   23.4910 O.co2 401  MER401     -0.2392
     14  S14      -20.5770   -5.9300   25.9390 S.3   401  MER401     -0.1341
     15  C15      -20.1890   -6.4270   27.6660 C.3   401  MER401      0.0673
     16  C16      -21.4850   -6.8820   28.3670 C.3   401  MER401      0.0389
     17  C17      -21.1930   -8.3180   28.7950 C.3   401  MER401      0.1498
     18  C18      -18.4570   -3.9260   26.0670 C.3   401  MER401      0.0387
     19  N19      -20.1390   -8.7610   27.8690 N.3   401  MER401     -0.2094
     20  C20      -19.5150   -2.8720   26.3830 C.3   401  MER401      0.0033
     21  C21      -19.2620   -7.6090   27.7450 C.3   401  MER401      0.1000
     22  C22      -22.4180   -9.2210   28.5610 C.2   401  MER401      0.2416
     23  N23      -23.4050   -9.2130   29.4170 N.am  401  MER401     -0.2749
     24  O24      -22.4090   -9.9580   27.5440 O.2   401  MER401     -0.2734
     25  C25      -23.3080   -8.3290   30.6730 C.3   401  MER401      0.1149
     26  C26      -24.5190  -10.2080   29.0130 C.3   401  MER401      0.1149
@<TRIPOS>BOND
     1     6     1    2
     2     1     3    1
     3    13    11   ar
     4     9     7    1
     5    12    11   ar
     6    11     5    1
     7     3     7    1
     8     3     4    1
     9    10     5    2
    10    10     4    1
    11     7     8    1
    12     5     2    1
    13     4    18    1
    14     2    14    1
    15     2    18    1
    16    14    15    1
    17    18    20    1
    18    24    22    2
    19    15    21    1
    20    15    16    1
    21    21    19    1
    22    19    17    1
    23    16    17    1
    24    22    17    1
    25    22    23   am
    26    26    23    1
    27    23    25    1
