@<TRIPOS>MOLECULE
4ewn_0VR_D_1.pdb
 23 23 0 0 0
SMALL
GASTEIGER

@<TRIPOS>ATOM
      1  P         19.1340   17.5550   24.7670 P.3   400  0VR400      0.5327
      2  O1P       20.4820   17.8840   24.1710 O.2   400  0VR400     -0.2224
      3  O2P       18.8900   18.3490   26.0420 O.3   400  0VR400     -0.1145
      4  O3P       19.1870   16.0720   25.0800 O.3   400  0VR400     -0.1145
      5  O5'       17.9520   17.9200   23.7930 O.3   400  0VR400     -0.2674
      6  C5'       17.2250   16.9320   23.1120 C.3   400  0VR400      0.1892
      7  C4'       16.1530   17.5690   22.2300 C.3   400  0VR400      0.2147
      8  O4'       15.2060   18.1580   23.0380 O.3   400  0VR400     -0.2176
      9  C3'       16.7250   18.5640   21.2290 C.3   400  0VR400      0.2165
     10  O3'       17.7670   17.9370   20.5770 O.3   400  0VR400     -0.2175
     11  C2'       15.7570   19.0360   20.1610 C.3   400  0VR400      0.2062
     12  O2'       14.4450   18.7470   20.4450 O.3   400  0VR400     -0.2184
     13  C1'       15.8430   20.5210   19.9400 C.3   400  0VR400      0.1477
     14  NH        14.6480   20.9570   19.2050 N.pl3 400  0VR400     -0.2346
     15  C1        12.8870   22.3910   18.9560 C.ar  400  0VR400      0.0946
     16  C2        13.8640   22.1050   19.6400 C.ar  400  0VR400      0.0717
     17  C3        14.3730   22.6680   20.7710 C.ar  400  0VR400      0.0163
     18  C4        13.4660   23.9150   21.1930 C.ar  400  0VR400      0.0013
     19  C5        12.2630   24.1340   20.1990 C.ar  400  0VR400      0.0003
     20  C6        12.1340   23.2930   19.1620 C.ar  400  0VR400      0.0079
     21  C7        12.5500   21.5840   17.7420 C.2   400  0VR400      0.3890
     22  O71       12.5210   20.3450   17.9620 O.co2 400  0VR400     -0.2405
     23  O72       12.3400   22.3070   16.7350 O.co2 400  0VR400     -0.2405
@<TRIPOS>BOND
     1    23    21   ar
     2    21    22   ar
     3    21    15    1
     4    15    20   ar
     5    15    16   ar
     6    20    19   ar
     7    14    16    1
     8    14    13    1
     9    16    17   ar
    10    13    11    1
    11    11    12    1
    12    11     9    1
    13    19    18   ar
    14    10     9    1
    15    17    18   ar
    16     9     7    1
    17     7     8    1
    18     7     6    1
    19     6     5    1
    20     5     1    1
    21     2     1    2
    22     1     4    1
    23     1     3    1
