@<TRIPOS>MOLECULE
4ewo_996_A_1.pdb
 32 34 0 0 0
SMALL
GASTEIGER

@<TRIPOS>ATOM
      1  O21        7.4040    2.2460  -18.3460 O.2   501  996501     -0.2733
      2  C6         6.4500    1.5560  -17.8960 C.2   501  996501      0.2419
      3  C5         6.6080    0.5340  -16.7480 C.3   501  996501      0.0964
      4  N7         5.2140    1.6710  -18.3530 N.am  501  996501     -0.2042
      5  C8         4.8180    2.5500  -19.4940 C.3   501  996501      0.1313
      6  C13        4.0930    1.6950  -20.5280 C.3   501  996501      0.0506
      7  C22        4.9370    0.4930  -21.0110 C.ar  501  996501     -0.0204
      8  C23        6.3210    0.5690  -21.2330 C.ar  501  996501     -0.0042
      9  C24        7.0220   -0.6210  -21.6200 C.ar  501  996501     -0.0003
     10  C25        6.3180   -1.8200  -21.8300 C.ar  501  996501     -0.0000
     11  C26        4.9540   -1.8680  -21.5800 C.ar  501  996501     -0.0003
     12  C27        4.2360   -0.7120  -21.1990 C.ar  501  996501     -0.0042
     13  C9         3.9280    3.6970  -18.9380 C.3   501  996501      0.1894
     14  O1         3.5530    4.6330  -19.9890 O.3   501  996501     -0.2197
     15  C10        4.7380    4.4890  -17.8860 C.3   501  996501      0.1236
     16  N11        3.9380    5.6150  -17.4350 N.3   501  996501     -0.2122
     17  C12        4.6650    6.7960  -16.9890 C.3   501  996501      0.0977
     18  C17        5.6100    7.3270  -18.0230 C.ar  501  996501      0.0275
     19  C16        6.9880    7.7180  -17.7730 C.ar  501  996501      0.0774
     20  C14        7.6050    7.5980  -16.3910 C.3   501  996501      0.0474
     21  C2         6.4660    7.5670  -15.3380 C.3   501  996501      0.0073
     22  C3         5.8280    8.9490  -15.1610 C.3   501  996501      0.0004
     23  C4         7.1650    7.2050  -14.0090 C.3   501  996501      0.0004
     24  C15        5.5600    6.3810  -15.7520 C.3   501  996501      0.0223
     25  N20        7.5310    8.1470  -18.9500 N.ar  501  996501     -0.1739
     26  N19        6.4910    8.0310  -19.8920 N.ar  501  996501     -0.2501
     27  C18        5.2990    7.5440  -19.3850 C.ar  501  996501      0.0933
     28  C28        6.8770    8.4540  -21.2270 C.3   501  996501      0.1274
     29  C29        6.5120    9.8980  -21.5670 C.3   501  996501      0.0226
     30  C30        5.0190   10.1980  -21.3010 C.3   501  996501      0.0020
     31  C31        7.3990   10.8770  -20.7310 C.3   501  996501      0.0020
     32  C32        6.7760   10.0770  -23.0570 C.3   501  996501      0.0020
@<TRIPOS>BOND
     1    32    29    1
     2    10     9   ar
     3    10    11   ar
     4     9     8   ar
     5    11    12   ar
     6    29    30    1
     7    29    28    1
     8    29    31    1
     9     8     7   ar
    10    28    26    1
    11    12     7   ar
    12     7     6    1
    13     6     5    1
    14    14    13    1
    15    26    27   ar
    16    26    25   ar
    17     5    13    1
    18     5     4    1
    19    27    18   ar
    20    25    19   ar
    21    13    15    1
    22     4     2   am
    23     1     2    2
    24    18    19   ar
    25    18    17    1
    26     2     3    1
    27    15    16    1
    28    19    20    1
    29    16    17    1
    30    17    24    1
    31    20    21    1
    32    24    21    1
    33    21    22    1
    34    21    23    1
