@<TRIPOS>MOLECULE
4ewq_MWL_A_1.pdb
 30 34 0 0 0
SMALL
GASTEIGER

@<TRIPOS>ATOM
      1  C1         2.8150    7.7580   25.7760 C.2   402  MWL402      0.1082
      2  N2         2.0380    6.8160   25.2140 N.2   402  MWL402     -0.1805
      3  C6         3.6960    8.4950   24.9860 C.2   402  MWL402      0.0223
      4  C5         3.7540    8.2360   23.6180 C.3   402  MWL402      0.1653
      5  N4         2.9640    7.2800   23.0960 N.2   402  MWL402     -0.2029
      6  C3         2.0970    6.5640   23.8790 C.1   402  MWL402      0.0903
      7  N7         1.2720    5.5700   23.2740 N.pl3 402  MWL402     -0.2496
      8  C8         0.1420    5.1650   24.1480 C.3   402  MWL402      0.1227
      9  C9        -0.8210    4.1730   23.4740 C.3   402  MWL402      0.1144
     10  C12        0.7900    6.1450   22.0130 C.3   402  MWL402      0.1227
     11  C11       -0.3850    5.3850   21.4200 C.3   402  MWL402      0.1144
     12  N10       -0.5280    4.0520   22.0340 N.pl3 402  MWL402     -0.2883
     13  C13       -1.4780    3.3010   21.2860 C.ar  402  MWL402      0.1536
     14  C14       -1.8260    1.9940   21.6070 C.ar  402  MWL402      0.0377
     15  N18       -2.0340    3.8550   20.1990 N.ar  402  MWL402     -0.1329
     16  N17       -2.9430    3.1560   19.4100 N.ar  402  MWL402     -0.1468
     17  C16       -3.2920    1.8980   19.7090 C.ar  402  MWL402      0.1029
     18  C20       -4.2580    1.3420   18.7670 C.ar  402  MWL402      0.0194
     19  C21       -3.9530    1.4410   17.4160 C.ar  402  MWL402      0.0016
     20  C22       -4.8420    0.9570   16.4890 C.ar  402  MWL402      0.0000
     21  C23       -6.0430    0.3900   16.9050 C.ar  402  MWL402      0.0000
     22  C24       -6.3460    0.3060   18.2600 C.ar  402  MWL402      0.0000
     23  C25       -5.4620    0.7950   19.1890 C.ar  402  MWL402      0.0016
     24  C15       -2.7530    1.2790   20.8420 C.ar  402  MWL402      0.0223
     25  C19       -2.9830   -0.1290   21.2910 C.ar  402  MWL402      0.0047
     26  C30       -2.8720   -1.1740   20.3880 C.ar  402  MWL402      0.0207
     27  C26       -3.1960   -0.4390   22.6280 C.ar  402  MWL402      0.0207
     28  C27       -3.3440   -1.7610   23.0230 C.ar  402  MWL402      0.0989
     29  N28       -3.2570   -2.7470   22.1340 N.ar  402  MWL402     -0.2423
     30  C29       -3.0210   -2.4770   20.8370 C.ar  402  MWL402      0.0989
@<TRIPOS>BOND
     1    20    21   ar
     2    20    19   ar
     3    21    22   ar
     4    19    18   ar
     5    22    23   ar
     6    18    23   ar
     7    18    17    1
     8    16    17   ar
     9    16    15   ar
    10    17    24   ar
    11    15    13   ar
    12    26    30   ar
    13    26    25   ar
    14    30    29   ar
    15    24    25    1
    16    24    14   ar
    17    13    14   ar
    18    13    12    1
    19    25    27   ar
    20    11    10    1
    21    11    12    1
    22    10     7    1
    23    12     9    1
    24    29    28   ar
    25    27    28   ar
    26     5     4    1
    27     5     6    2
    28     7     6    1
    29     7     8    1
    30     9     8    1
    31     4     3    1
    32     6     2    2
    33     3     1    2
    34     2     1    1
