@<TRIPOS>MOLECULE
4ewq_GG5_A_1.pdb
 18 20 0 0 0
SMALL
GASTEIGER

@<TRIPOS>ATOM
      1  C1        23.1420   17.7990    9.8010 C.ar  401  GG5401      0.0986
      2  N2        23.1010   18.0500    8.4820 N.ar  401  GG5401     -0.2423
      3  C3        23.3740   17.0940    7.5700 C.ar  401  GG5401      0.0986
      4  C4        23.7040   15.8040    7.9760 C.ar  401  GG5401      0.0171
      5  C5        23.7840   15.5250    9.3420 C.ar  401  GG5401     -0.0081
      6  C6        23.4710   16.5230   10.2630 C.ar  401  GG5401      0.0171
      7  C7        24.0800   14.1480    9.8120 C.3   401  GG5401      0.1074
      8  C8        23.7340   13.0210    9.0850 C.2   401  GG5401      0.1057
      9  N9        24.0800   11.9560    9.8210 N.2   401  GG5401     -0.1507
     10  N11       24.6450   12.2990   11.0670 N.2   401  GG5401     -0.1519
     11  C12       24.6480   13.6520   11.1100 C.2   401  GG5401      0.0899
     12  C13       25.2160   14.4090   12.2410 C.ar  401  GG5401      0.0161
     13  C14       24.9110   14.0340   13.5450 C.ar  401  GG5401      0.0036
     14  C15       25.4620   14.7140   14.6120 C.ar  401  GG5401      0.0297
     15  C16       26.3490   15.7530   14.3830 C.ar  401  GG5401      0.1401
     16  C17       26.6750   16.1180   13.0800 C.ar  401  GG5401      0.0297
     17  C18       26.1230   15.4320   12.0050 C.ar  401  GG5401      0.0036
     18  F19       26.8890   16.4050   15.4330 F     401  GG5401     -0.2042
@<TRIPOS>BOND
     1     3     4   ar
     2     3     2   ar
     3     4     5   ar
     4     2     1   ar
     5     8     7    1
     6     8     9    2
     7     5     7    1
     8     5     6   ar
     9     1     6   ar
    10     7    11    1
    11     9    10    1
    12    10    11    2
    13    11    12    1
    14    17    12   ar
    15    17    16   ar
    16    12    13   ar
    17    16    15   ar
    18    13    14   ar
    19    15    14   ar
    20    15    18    1
