@<TRIPOS>MOLECULE
4ews_2OB_A_1.pdb
 39 42 0 0 0
SMALL
GASTEIGER

@<TRIPOS>ATOM
      1  O2        18.0340   -1.7040   41.1020 O.2   501  2OB501     -0.2501
      2  C48       17.4390   -1.5970   40.0610 C.2   501  2OB501      0.3169
      3  O1        16.0990   -1.7760   39.9280 O.3   501  2OB501     -0.4519
      4  C3        15.2800   -2.1470   41.0890 C.3   501  2OB501      0.1728
      5  C2        14.5990   -0.8990   41.6010 C.3   501  2OB501      0.0443
      6  C4        14.2600   -3.1760   40.6400 C.3   501  2OB501      0.0653
      7  C5        13.2150   -3.4700   41.7000 C.2   501  2OB501     -0.0455
      8  C10       12.5520   -2.2650   42.3670 C.3   501  2OB501      0.0151
      9  C9        11.8150   -2.7270   43.6650 C.3   501  2OB501      0.0038
     10  C11       11.0390   -1.6000   44.3710 C.3   501  2OB501      0.0003
     11  C12       10.3290   -2.0500   45.6480 C.3   501  2OB501      0.0000
     12  C13        9.4060   -3.2560   45.4200 C.3   501  2OB501      0.0000
     13  C18        8.2250   -2.8650   44.5130 C.3   501  2OB501      0.0000
     14  C17        8.9140   -4.0060   46.6810 C.3   501  2OB501      0.0000
     15  C20        7.8090   -3.3900   47.5650 C.3   501  2OB501      0.0000
     16  C22        7.3190   -4.3570   48.6730 C.3   501  2OB501      0.0000
     17  C23        8.3750   -4.8770   49.6490 C.3   501  2OB501      0.0000
     18  C24        7.8030   -5.7050   50.8030 C.3   501  2OB501      0.0000
     19  C25        8.8270   -6.4530   51.7320 C.3   501  2OB501      0.0000
     20  C27        9.9450   -5.5430   52.2210 C.3   501  2OB501      0.0000
     21  C26        8.1510   -7.1080   52.9210 C.3   501  2OB501      0.0000
     22  C21        8.2030   -2.0400   48.1620 C.3   501  2OB501      0.0000
     23  C16        8.5290   -5.4010   46.1480 C.3   501  2OB501      0.0000
     24  C15        9.3960   -5.6240   44.8910 C.3   501  2OB501      0.0000
     25  C14       10.2780   -4.3660   44.7940 C.3   501  2OB501      0.0003
     26  C8        10.9630   -3.9970   43.4650 C.3   501  2OB501      0.0046
     27  C7        11.8510   -5.1470   42.9870 C.3   501  2OB501      0.0254
     28  C6        12.8850   -4.7240   41.9870 C.2   501  2OB501     -0.0345
     29  C19       11.5800   -1.6240   41.3530 C.3   501  2OB501      0.0040
     30  C1        13.6440   -1.2440   42.7460 C.3   501  2OB501      0.0074
     31  C47       18.0930   -1.2860   38.7340 C.3   501  2OB501      0.1096
     32  C46       17.6950    0.0650   38.1460 C.3   501  2OB501      0.0116
     33  C45       18.3250    0.3680   36.7950 C.3   501  2OB501      0.0006
     34  C44       17.8400    1.6940   36.1830 C.3   501  2OB501      0.0000
     35  C43       17.6960    1.7080   34.6510 C.3   501  2OB501      0.0000
     36  C42       16.8400    2.8670   34.1180 C.3   501  2OB501      0.0000
     37  C41       16.6360    2.8750   32.6000 C.3   501  2OB501      0.0000
     38  C40       15.3830    3.6180   32.1250 C.3   501  2OB501      0.0000
     39  C39       15.5380    4.3070   30.7730 C.3   501  2OB501      0.0000
@<TRIPOS>BOND
     1    39    38    1
     2    38    37    1
     3    37    36    1
     4    36    35    1
     5    35    34    1
     6    34    33    1
     7    33    32    1
     8    32    31    1
     9    31     2    1
    10     3     2    1
    11     3     4    1
    12     2     1    2
    13     6     4    1
    14     6     7    1
    15     4     5    1
    16    29     8    1
    17     5    30    1
    18     7    28    2
    19     7     8    1
    20    28    27    1
    21     8    30    1
    22     8     9    1
    23    27    26    1
    24    26     9    1
    25    26    25    1
    26     9    10    1
    27    10    11    1
    28    13    12    1
    29    25    24    1
    30    25    12    1
    31    24    23    1
    32    12    11    1
    33    12    14    1
    34    23    14    1
    35    14    15    1
    36    15    22    1
    37    15    16    1
    38    16    17    1
    39    17    18    1
    40    18    19    1
    41    19    20    1
    42    19    21    1
