@<TRIPOS>MOLECULE
4ews_FUC_A_1.pdb
 10 10 0 0 0
SMALL
GASTEIGER

@<TRIPOS>ATOM
      1  C1        28.5520   30.0480   -9.5210 C.3   511  FUC511      0.1776
      2  C2        28.1910   29.0670   -8.3970 C.3   511  FUC511      0.2141
      3  C3        27.5640   27.7780   -8.9300 C.3   511  FUC511      0.2172
      4  C4        27.8090   27.5780  -10.4230 C.3   511  FUC511      0.2116
      5  C5        27.2750   28.7660  -11.2290 C.3   511  FUC511      0.1483
      6  C6        27.8440   28.8570  -12.6270 C.3   511  FUC511      0.0349
      7  O2        27.2790   29.6890   -7.4990 O.3   511  FUC511     -0.2176
      8  O3        28.0520   26.6590   -8.2000 O.3   511  FUC511     -0.2175
      9  O4        29.1850   27.3110  -10.6890 O.3   511  FUC511     -0.2177
     10  O5        27.5530   30.0090  -10.5480 O.3   511  FUC511     -0.3508
@<TRIPOS>BOND
     1     6     5    1
     2     5    10    1
     3     5     4    1
     4     9     4    1
     5    10     1    1
     6     4     3    1
     7     1     2    1
     8     3     2    1
     9     3     8    1
    10     2     7    1
