@<TRIPOS>MOLECULE
4ews_0RP_A_1.pdb
 41 43 0 0 0
SMALL
GASTEIGER

@<TRIPOS>ATOM
      1  C1        13.9840   -0.3760   37.6010 C.3   507  0RP507      0.0018
      2  C2        12.4770   -0.2860   37.5490 C.3   507  0RP507      0.0204
      3  C3        11.9590    1.0060   38.2130 C.3   507  0RP507      0.0850
      4  C4        10.3920    0.9540   38.1760 C.3   507  0RP507      0.0448
      5  C5         9.7650    2.3170   37.7680 C.3   507  0RP507      0.1042
      6  C6        10.4030    2.7180   36.4630 C.ar  507  0RP507      0.0097
      7  C7         9.6670    2.9790   35.2790 C.ar  507  0RP507      0.0024
      8  C8        10.3350    3.4130   34.1260 C.ar  507  0RP507      0.0712
      9  C9        11.7330    3.6580   34.1600 C.ar  507  0RP507      0.0051
     10  C10       12.4590    3.3950   35.3310 C.ar  507  0RP507      0.0147
     11  C11       11.8060    2.8750   36.5090 C.ar  507  0RP507      0.0544
     12  N1        12.5410    2.2180   37.5410 N.am  507  0RP507     -0.2269
     13  C12       13.6450    2.8410   38.2530 C.2   507  0RP507      0.4086
     14  O1        14.2690    2.3010   39.1600 O.2   507  0RP507     -0.2258
     15  O2        13.9200    4.1270   37.9320 O.3   507  0RP507     -0.4343
     16  C13       14.9660    4.7920   38.6700 C.3   507  0RP507      0.2103
     17  C14       16.3500    4.2070   38.2740 C.3   507  0RP507      0.0513
     18  C15        9.5850    3.4480   32.7920 C.3   507  0RP507      0.4186
     19  F1         9.5110    2.2370   32.2020 F     507  0RP507     -0.1659
     20  F2        10.1650    4.2350   31.8890 F     507  0RP507     -0.1659
     21  F3         8.2880    3.8190   32.8250 F     507  0RP507     -0.1659
     22  N2         8.2760    2.3440   37.7410 N.am  507  0RP507     -0.2397
     23  C16        7.5180    1.0950   37.4340 C.3   507  0RP507      0.1237
     24  C17        7.3270    0.2230   38.6090 C.ar  507  0RP507     -0.0023
     25  C18        6.9780   -1.1150   38.4180 C.ar  507  0RP507      0.0012
     26  C19        6.6570   -1.9030   39.5440 C.ar  507  0RP507      0.0711
     27  C20        6.7520   -1.4040   40.8380 C.ar  507  0RP507      0.0077
     28  C21        7.1410   -0.0780   40.9920 C.ar  507  0RP507      0.0711
     29  C22        7.4160    0.7480   39.9000 C.ar  507  0RP507      0.0012
     30  C23        7.2810    0.5120   42.3700 C.3   507  0RP507      0.4186
     31  F4         8.0920   -0.1740   43.1670 F     507  0RP507     -0.1659
     32  F5         7.7340    1.7650   42.3880 F     507  0RP507     -0.1659
     33  F6         6.1130    0.5690   43.0130 F     507  0RP507     -0.1659
     34  C24        6.0970   -3.2840   39.3250 C.3   507  0RP507      0.4186
     35  F7         4.7570   -3.2760   39.4440 F     507  0RP507     -0.1659
     36  F8         6.4000   -3.8780   38.1600 F     507  0RP507     -0.1659
     37  F9         6.5030   -4.1640   40.2320 F     507  0RP507     -0.1659
     38  C25        7.5800    3.5420   37.8520 C.2   507  0RP507      0.4054
     39  O3         8.1250    4.6480   37.9650 O.2   507  0RP507     -0.2262
     40  O4         6.2190    3.4320   37.8090 O.3   507  0RP507     -0.4304
     41  C26        5.4330    4.6390   37.8670 C.3   507  0RP507      0.2573
@<TRIPOS>BOND
     1    20    18    1
     2    19    18    1
     3    18    21    1
     4    18     8    1
     5     8     9   ar
     6     8     7   ar
     7     9    10   ar
     8     7     6   ar
     9    10    11   ar
    10     6    11   ar
    11     6     5    1
    12    11    12    1
    13    23    22    1
    14    23    24    1
    15    12     3    1
    16    12    13   am
    17     2     1    1
    18     2     3    1
    19    22     5    1
    20    22    38   am
    21     5     4    1
    22    40    38    1
    23    40    41    1
    24    38    39    2
    25    15    13    1
    26    15    16    1
    27    36    34    1
    28     4     3    1
    29    13    14    2
    30    17    16    1
    31    25    24   ar
    32    25    26   ar
    33    24    29   ar
    34    34    35    1
    35    34    26    1
    36    34    37    1
    37    26    27   ar
    38    29    28   ar
    39    27    28   ar
    40    28    30    1
    41    30    32    1
    42    30    33    1
    43    30    31    1
