@<TRIPOS>MOLECULE
4ewt_PE7_B_1.pdb
 22 21 0 0 0
SMALL
GASTEIGER

@<TRIPOS>ATOM
      1  S1        -4.3050  -44.1690   -7.1960 S.3   403  PE7403     -0.0794
      2  C2        -3.1490  -42.7650   -7.0360 C.3   403  PE7403      0.1007
      3  C3        -1.7470  -43.1190   -7.5130 C.3   403  PE7403      0.1548
      4  O4        -0.8310  -42.8850   -6.4570 O.3   403  PE7403     -0.3501
      5  C5         0.3990  -43.4630   -6.8510 C.3   403  PE7403      0.1741
      6  C6         1.1210  -43.9890   -5.6400 C.3   403  PE7403      0.1742
      7  O7         0.2920  -43.8280   -4.5010 O.3   403  PE7403     -0.3484
      8  C8         0.9150  -44.4990   -3.4070 C.3   403  PE7403      0.1742
      9  C9         0.0080  -45.6040   -2.9500 C.3   403  PE7403      0.1742
     10  O10       -0.6660  -45.1390   -1.7860 O.3   403  PE7403     -0.3484
     11  C11       -1.2220  -46.2620   -1.0740 C.3   403  PE7403      0.1742
     12  C12       -2.7470  -46.3170   -1.2110 C.3   403  PE7403      0.1742
     13  O13       -3.1890  -45.6610   -2.4160 O.3   403  PE7403     -0.3484
     14  C14       -4.3380  -46.3420   -2.9400 C.3   403  PE7403      0.1742
     15  C15       -5.4450  -45.3350   -3.1750 C.3   403  PE7403      0.1742
     16  O16       -5.6640  -44.5390   -1.9900 O.3   403  PE7403     -0.3484
     17  C17       -5.2680  -43.1740   -2.2430 C.3   403  PE7403      0.1742
     18  C18       -6.4420  -42.2440   -2.5210 C.3   403  PE7403      0.1742
     19  O19       -6.1340  -41.5390   -3.7320 O.3   403  PE7403     -0.3483
     20  C20       -7.2110  -41.6770   -4.6830 C.3   403  PE7403      0.1777
     21  C21       -6.7180  -41.3570   -6.1000 C.3   403  PE7403      0.2140
     22  O22       -7.8060  -41.4580   -7.0200 O.3   403  PE7403     -0.2176
@<TRIPOS>BOND
     1     3     2    1
     2     3     4    1
     3     1     2    1
     4    22    21    1
     5     5     4    1
     6     5     6    1
     7    21    20    1
     8     6     7    1
     9    20    19    1
    10     7     8    1
    11    19    18    1
    12     8     9    1
    13    15    14    1
    14    15    16    1
    15     9    10    1
    16    14    13    1
    17    18    17    1
    18    13    12    1
    19    17    16    1
    20    10    11    1
    21    12    11    1
