@<TRIPOS>MOLECULE
4ewv_APC_A_1.pdb
 31 33 0 0 0
SMALL
GASTEIGER

@<TRIPOS>ATOM
      1  PG        26.4210  -46.2160  -10.4690 P.3   601  APC601      0.5389
      2  O1G       27.4180  -47.1730   -9.8610 O.3   601  APC601     -0.1143
      3  O2G       25.0020  -46.7320  -10.5020 O.3   601  APC601     -0.1143
      4  O3G       26.8800  -45.5710  -11.7550 O.2   601  APC601     -0.2220
      5  PB        25.5060  -45.1210   -8.0640 P.3   601  APC601      0.3895
      6  O1B       24.3080  -45.9520   -8.3150 O.2   601  APC601     -0.2544
      7  O2B       26.4070  -45.8090   -6.9210 O.3   601  APC601     -0.1388
      8  O3B       26.3650  -44.9950   -9.4200 O.3   601  APC601     -0.2026
      9  PA        26.4580  -42.4260   -7.2970 P.3   601  APC601      0.3820
     10  O1A       27.4180  -43.1060   -6.3990 O.3   601  APC601     -0.1392
     11  O2A       27.1520  -42.1630   -8.7260 O.2   601  APC601     -0.2548
     12  C3A       24.9940  -43.4710   -7.5190 C.3   601  APC601      0.2357
     13  O5'       26.0190  -41.0190   -6.6470 O.3   601  APC601     -0.2896
     14  C5'       25.3960  -40.9780   -5.3650 C.3   601  APC601      0.1836
     15  C4'       25.2640  -42.3930   -4.8180 C.3   601  APC601      0.1822
     16  O4'       26.2740  -42.6260   -3.8320 O.3   601  APC601     -0.3135
     17  C3'       23.9120  -42.6070   -4.1590 C.3   601  APC601      0.2184
     18  O3'       23.2070  -43.6640   -4.8160 O.3   601  APC601     -0.2174
     19  C2'       24.1960  -42.9880   -2.7200 C.3   601  APC601      0.2570
     20  O2'       23.6750  -44.2920   -2.4460 O.3   601  APC601     -0.2130
     21  C1'       25.7090  -42.9900   -2.5700 C.3   601  APC601      0.3186
     22  N9        26.1110  -42.0020   -1.5370 N.pl3 601  APC601     -0.1439
     23  C8        25.8360  -40.6840   -1.5600 C.3   601  APC601      0.3377
     24  N7        26.3440  -40.0590   -0.4670 N.2   601  APC601     -0.2095
     25  C5        26.9620  -40.9920    0.2810 C.2   601  APC601      0.2526
     26  C6        27.7080  -41.0130    1.5620 C.2   601  APC601      0.4393
     27  N6        27.8980  -39.8790    2.2800 N.pl3 601  APC601      0.2180
     28  N1        28.1910  -42.2000    1.9890 N.2   601  APC601      0.0021
     29  C2        28.0080  -43.3330    1.2850 C.3   601  APC601      0.5254
     30  N3        27.3430  -43.3880    0.1170 N.2   601  APC601     -0.0055
     31  C4        26.8050  -42.2710   -0.4290 C.2   601  APC601      0.3518
@<TRIPOS>BOND
     1     4     1    2
     2     3     1    1
     3     1     2    1
     4     1     8    1
     5     8     5    1
     6    11     9    2
     7     6     5    2
     8     5    12    1
     9     5     7    1
    10    12     9    1
    11     9    13    1
    12     9    10    1
    13    13    14    1
    14    14    15    1
    15    15    17    1
    16    15    16    1
    17    18    17    1
    18    17    19    1
    19    16    21    1
    20    19    21    1
    21    19    20    1
    22    21    22    1
    23    23    22    1
    24    23    24    1
    25    22    31    1
    26    24    25    2
    27    31    30    2
    28    31    25    1
    29    30    29    1
    30    25    26    1
    31    29    28    1
    32    26    28    2
    33    26    27    1
