@<TRIPOS>MOLECULE
4ex5_LYS_A_1.pdb
 10 9 0 0 0
SMALL
GASTEIGER

@<TRIPOS>ATOM
      1  N        -16.3960   31.7310   -9.6010 N.3   601  LYS601     -0.1208
      2  CA       -15.8710   30.7480  -10.4720 C.3   601  LYS601      0.1943
      3  C        -16.9840   29.8190  -11.0090 C.2   601  LYS601      0.3819
      4  O        -16.6350   28.9000  -11.7660 O.co2 601  LYS601     -0.2441
      5  CB       -14.7820   29.9450   -9.7380 C.3   601  LYS601      0.0307
      6  CG       -13.5950   30.7470   -9.2650 C.3   601  LYS601      0.0036
      7  CD       -12.8670   31.4690  -10.3870 C.3   601  LYS601      0.0206
      8  CE       -11.6410   32.2250   -9.8920 C.3   601  LYS601      0.1093
      9  NZ       -11.8880   33.4880   -9.1280 N.3   601  LYS601     -0.1314
     10  OXT      -18.2090   29.9770  -10.7140 O.co2 601  LYS601     -0.2441
@<TRIPOS>BOND
     1     4     3   ar
     2     3    10   ar
     3     3     2    1
     4     2     5    1
     5     2     1    1
     6     7     8    1
     7     7     6    1
     8     8     9    1
     9     5     6    1
