@<TRIPOS>MOLECULE
4ex9_5RP_A_1.pdb
 14 13 0 0 0
SMALL
GASTEIGER

@<TRIPOS>ATOM
      1  C2         0.8270   17.6950  -10.7700 C.3   402  5RP402      0.2486
      2  C3        -0.1750   17.3740   -9.6770 C.2   402  5RP402      0.2165
      3  C5        -0.1050   16.0750   -8.9040 C.3   402  5RP402      0.2439
      4  O13        1.0360   16.0850   -8.0320 O.3   402  5RP402     -0.2122
      5  C6        -0.0680   14.8740   -9.8580 C.3   402  5RP402      0.2194
      6  O14       -1.3500   14.7480  -10.4870 O.3   402  5RP402     -0.2172
      7  C7         0.2930   13.5540   -9.1720 C.3   402  5RP402      0.1896
      8  O8         1.1120   12.7500  -10.0330 O.3   402  5RP402     -0.2674
      9  P9         0.7460   11.2360  -10.4830 P.3   402  5RP402      0.5327
     10  O12       -0.7030   11.0290  -10.1030 O.3   402  5RP402     -0.1145
     11  O11        0.9820   11.2400  -11.9740 O.2   402  5RP402     -0.2224
     12  O10        1.7240   10.3700   -9.7210 O.3   402  5RP402     -0.1145
     13  O4        -1.0570   18.1790   -9.4180 O.2   402  5RP402     -0.2905
     14  O1         0.9750   19.1140  -10.9170 O.3   402  5RP402     -0.2118
@<TRIPOS>BOND
     1    11     9    2
     2    14     1    1
     3     1     2    1
     4     6     5    1
     5     9    10    1
     6     9     8    1
     7     9    12    1
     8     8     7    1
     9     5     7    1
    10     5     3    1
    11     2    13    2
    12     2     3    1
    13     3     4    1
