@<TRIPOS>MOLECULE
4exa_NAP_A_1.pdb
 31 33 0 0 0
SMALL
GASTEIGER

@<TRIPOS>ATOM
      1  PA        19.5000   26.7850  -28.1950 P.3   301  NAP301      0.2231
      2  O1A       19.5070   25.9890  -26.9340 O.3   301  NAP301     -0.4370
      3  O2A       20.0090   26.0380  -29.3820 O.2   301  NAP301     -0.5169
      4  O5B       18.0100   27.3120  -28.4700 O.3   301  NAP301     -0.3111
      5  C5B       17.8460   28.6530  -28.8570 C.3   301  NAP301      0.1813
      6  C4B       16.3780   28.9480  -29.0440 C.3   301  NAP301      0.1820
      7  O4B       15.5960   28.4510  -27.9810 O.3   301  NAP301     -0.3136
      8  C3B       16.1290   30.4310  -29.1170 C.3   301  NAP301      0.2157
      9  O3B       15.8100   30.7550  -30.4360 O.3   301  NAP301     -0.2175
     10  C2B       14.9600   30.6420  -28.2110 C.3   301  NAP301      0.2314
     11  O2B       13.9930   31.4020  -28.8570 O.3   301  NAP301     -0.2630
     12  C1B       14.4430   29.2490  -27.9210 C.3   301  NAP301      0.3158
     13  N9A       13.8290   29.1630  -26.5900 N.pl3 301  NAP301     -0.1439
     14  C8A       14.5020   29.2860  -25.4110 C.3   301  NAP301      0.3377
     15  N7A       13.6130   29.1640  -24.4060 N.2   301  NAP301     -0.2095
     16  C5A       12.3800   28.9680  -24.9090 C.2   301  NAP301      0.2526
     17  C6A       11.1410   28.7900  -24.2990 C.2   301  NAP301      0.4393
     18  N6A       11.0140   28.7900  -22.9810 N.pl3 301  NAP301      0.2180
     19  N1A       10.0300   28.6150  -25.0790 N.2   301  NAP301      0.0021
     20  C2A       10.1570   28.6160  -26.4630 C.3   301  NAP301      0.5254
     21  N3A       11.3940   28.8000  -27.0650 N.2   301  NAP301     -0.0055
     22  C4A       12.4990   28.9720  -26.2940 C.2   301  NAP301      0.3518
     23  O3        20.3020   28.1620  -28.0000 O.3   301  NAP301     -0.2261
     24  PN        21.1700   28.9650  -29.0950 P.3   301  NAP301      0.5373
     25  O1N       21.4760   27.8320  -30.2200 O.2   301  NAP301     -0.2221
     26  O2N       20.3160   30.0410  -29.6790 O.3   301  NAP301     -0.1143
     27  O5D       22.4660   29.3620  -28.4640 O.3   301  NAP301     -0.1143
     28  P2B       13.6380   32.8600  -28.3070 P.3   301  NAP301      0.5328
     29  O1X       12.5020   33.3530  -29.1690 O.2   301  NAP301     -0.2224
     30  O2X       14.7720   33.8100  -28.5800 O.3   301  NAP301     -0.1145
     31  O3X       13.2730   32.8030  -26.8310 O.3   301  NAP301     -0.1145
@<TRIPOS>BOND
     1     9     8    1
     2    25    24    2
     3    26    24    1
     4     3     1    2
     5    29    28    2
     6     8     6    1
     7     8    10    1
     8    24    27    1
     9    24    23    1
    10     6     5    1
    11     6     7    1
    12     5     4    1
    13    11    28    1
    14    11    10    1
    15    30    28    1
    16     4     1    1
    17    28    31    1
    18    10    12    1
    19     1    23    1
    20     1     2    1
    21     7    12    1
    22    12    13    1
    23    21    20    1
    24    21    22    2
    25    13    22    1
    26    13    14    1
    27    20    19    1
    28    22    16    1
    29    14    15    1
    30    19    17    2
    31    16    15    2
    32    16    17    1
    33    17    18    1
