@<TRIPOS>MOLECULE
4exg_916_A_1.pdb
 32 34 0 0 0
SMALL
GASTEIGER

@<TRIPOS>ATOM
      1  O21        7.3340    2.3220  -18.3080 O.2   500  916500     -0.2733
      2  C6         6.4180    1.6320  -17.8900 C.2   500  916500      0.2419
      3  C5         6.7000    0.6360  -16.7630 C.3   500  916500      0.0964
      4  N7         5.1800    1.6990  -18.4330 N.am  500  916500     -0.2042
      5  C8         4.9170    2.6490  -19.5630 C.3   500  916500      0.1313
      6  C13        4.1880    1.7900  -20.5780 C.3   500  916500      0.0506
      7  C22        4.9930    0.5970  -21.0730 C.ar  500  916500     -0.0204
      8  C27        4.3290   -0.6260  -21.2780 C.ar  500  916500     -0.0042
      9  C26        5.0650   -1.7310  -21.7440 C.ar  500  916500     -0.0003
     10  C25        6.4440   -1.6530  -21.9750 C.ar  500  916500     -0.0000
     11  C24        7.1070   -0.4380  -21.7280 C.ar  500  916500     -0.0003
     12  C23        6.3850    0.6940  -21.2930 C.ar  500  916500     -0.0042
     13  C9         4.0200    3.7910  -19.0140 C.3   500  916500      0.1894
     14  O1         3.6260    4.7010  -20.0540 O.3   500  916500     -0.2197
     15  C10        4.8010    4.6050  -17.9820 C.3   500  916500      0.1236
     16  N11        3.9550    5.6850  -17.5260 N.3   500  916500     -0.2121
     17  C12        4.5870    6.9280  -17.0110 C.3   500  916500      0.1019
     18  C15        5.3230    6.5480  -15.7140 C.3   500  916500      0.0620
     19  C2         6.3220    7.6450  -15.2470 C.3   500  916500      0.1356
     20  C4         6.9700    7.1250  -13.9510 C.3   500  916500      0.0437
     21  C3         5.6110    9.0150  -15.1020 C.3   500  916500      0.0437
     22  C17        5.6250    7.4140  -17.9440 C.ar  500  916500      0.0342
     23  C18        5.3720    7.5350  -19.3720 C.ar  500  916500      0.0029
     24  C19        6.5850    7.9970  -19.9910 C.ar  500  916500      0.0099
     25  S20        7.9130    8.2310  -18.8370 S.2   500  916500     -0.0552
     26  C16        6.9700    7.7880  -17.5310 C.ar  500  916500      0.1654
     27  O14        7.3760    7.7630  -16.2290 O.3   500  916500     -0.4770
     28  C28        6.8860    8.3020  -21.4460 C.3   500  916500      0.0330
     29  C29        6.5530    9.7440  -21.8420 C.3   500  916500      0.0046
     30  C32        7.4150   10.7820  -21.0870 C.3   500  916500      0.0004
     31  C31        5.1020   10.0610  -21.5220 C.3   500  916500      0.0004
     32  C30        6.7540    9.9560  -23.3370 C.3   500  916500      0.0004
@<TRIPOS>BOND
     1    32    29    1
     2    10     9   ar
     3    10    11   ar
     4    29    31    1
     5    29    28    1
     6    29    30    1
     7     9     8   ar
     8    11    12   ar
     9    28    24    1
    10    12     7   ar
    11     8     7   ar
    12     7     6    1
    13     6     5    1
    14    14    13    1
    15    24    23   ar
    16    24    25   ar
    17     5    13    1
    18     5     4    1
    19    23    22   ar
    20    13    15    1
    21    25    26   ar
    22     4     2   am
    23     1     2    2
    24    15    16    1
    25    22    26   ar
    26    22    17    1
    27     2     3    1
    28    26    27    1
    29    16    17    1
    30    17    18    1
    31    27    19    1
    32    18    19    1
    33    19    21    1
    34    19    20    1
