@<TRIPOS>MOLECULE
4exh_III_J_1.pdb
 28 27 0 0 0
SMALL
GASTEIGER

@<TRIPOS>ATOM
      1  C         -5.7760    3.7080    8.2030 C.2     1  ACE1        0.2423
      2  O         -5.9920    4.6730    8.9330 O.2     1  ACE1       -0.2733
      3  CH3       -5.7480    2.3030    8.7380 C.3     1  ACE1        0.0964
      4  N         -5.9400    3.7740    6.8860 N.am    2  VAL2       -0.1978
      5  CA        -6.0880    4.9970    6.1090 C.3     2  VAL2        0.1726
      6  C         -7.1410    4.7590    5.0320 C.2     2  VAL2        0.2616
      7  O         -6.9280    3.9970    4.0920 O.2     2  VAL2       -0.2715
      8  CB        -4.7470    5.4110    5.4430 C.3     2  VAL2        0.0290
      9  CG1       -4.9500    6.5790    4.4850 C.3     2  VAL2        0.0023
     10  CG2       -3.7000    5.7550    6.4960 C.3     2  VAL2        0.0023
     11  N         -8.2960    5.3820    5.1960 N.am    3  VAL3       -0.1963
     12  CA        -9.3880    5.2480    4.2340 C.3     3  VAL3        0.1727
     13  C         -9.6410    6.6170    3.6160 C.2     3  VAL3        0.2612
     14  O         -9.4590    7.6210    4.2980 O.2     3  VAL3       -0.2715
     15  CB       -10.6560    4.7520    4.9480 C.3     3  VAL3        0.0290
     16  CG1      -11.8560    4.6740    3.9840 C.3     3  VAL3        0.0023
     17  CG2      -10.3810    3.4020    5.5800 C.3     3  VAL3        0.0023
     18  N         -9.7160    6.5810    2.2720 N.am    4  STA4       -0.2031
     19  CA        -9.9880    7.8220    1.5520 C.3     4  STA4        0.1257
     20  CB        -9.7920    7.6450    0.0510 C.3     4  STA4        0.0243
     21  CG        -8.3140    7.6970   -0.3380 C.3     4  STA4        0.0018
     22  CD1       -7.6510    8.9970    0.1010 C.3     4  STA4        0.0001
     23  CD2       -8.1390    7.5160   -1.8400 C.3     4  STA4        0.0001
     24  CH       -11.4090    8.2840    1.8910 C.3     4  STA4        0.1744
     25  OH       -11.6720    9.5460    1.3100 O.3     4  STA4       -0.2212
     26  CM       -12.4720    7.2630    1.4810 C.3     4  STA4        0.0702
     27  C        -13.8050    7.6700    2.0690 C.3     4  STA4        0.1848
     28  O        -14.2280    7.4220    3.3860 O.3     4  STA4       -0.2203
@<TRIPOS>BOND
     1    23    21    1
     2    21    20    1
     3    21    22    1
     4    20    19    1
     5    25    24    1
     6    26    24    1
     7    26    27    1
     8    19    24    1
     9    19    18    1
    10    27    28    1
    11    18    13   am
    12    13    12    1
    13    13    14    2
    14    16    15    1
    15     7     6    2
    16    12    15    1
    17    12    11    1
    18     9     8    1
    19    15    17    1
    20     6    11   am
    21     6     5    1
    22     8     5    1
    23     8    10    1
    24     5     4    1
    25     4     1   am
    26     1     3    1
    27     1     2    2
