@<TRIPOS>MOLECULE
4exk_MTT_A_1.pdb
 45 48 0 0 0
SMALL
GASTEIGER

@<TRIPOS>ATOM
      1  O14       11.8980  -28.4340  -20.2790 O.3   501  MTT501     -0.2176
      2  C14       13.3170  -28.5430  -20.2020 C.3   501  MTT501      0.2144
      3  C13       14.0010  -27.3350  -20.8180 C.3   501  MTT501      0.2198
      4  O13       13.7010  -27.2350  -22.2060 O.3   501  MTT501     -0.2174
      5  C12       15.4990  -27.4290  -20.6460 C.3   501  MTT501      0.2406
      6  O12       16.0610  -26.2130  -21.0910 O.3   501  MTT501     -0.2149
      7  C11       15.9020  -27.7290  -19.2140 C.3   501  MTT501      0.2695
      8  C15       13.7070  -28.6310  -18.7580 C.3   501  MTT501      0.1835
      9  O15       15.1160  -28.7790  -18.7010 O.3   501  MTT501     -0.3256
     10  C16       13.0990  -29.8180  -18.0270 C.3   501  MTT501      0.2142
     11  O16       13.3560  -31.0610  -18.6910 O.3   501  MTT501     -0.2176
     12  O24       15.7700  -26.6050  -18.3610 O.3   501  MTT501     -0.3257
     13  C24       16.4990  -26.5810  -17.1070 C.3   501  MTT501      0.1804
     14  C23       17.8910  -25.9770  -17.2870 C.3   501  MTT501      0.2167
     15  O23       18.7490  -26.8180  -18.0490 O.3   501  MTT501     -0.2175
     16  C22       18.5350  -25.6960  -15.9580 C.3   501  MTT501      0.2404
     17  O22       19.7700  -24.9980  -16.0880 O.3   501  MTT501     -0.2149
     18  C21       17.6060  -24.8760  -15.0800 C.3   501  MTT501      0.2695
     19  C25       15.6800  -25.7870  -16.1150 C.3   501  MTT501      0.1803
     20  O25       16.3910  -25.5900  -14.8820 O.3   501  MTT501     -0.3257
     21  C26       14.3950  -26.5370  -15.8130 C.3   501  MTT501      0.2141
     22  O26       13.4960  -25.7260  -15.0710 O.3   501  MTT501     -0.2176
     23  O34       17.4030  -23.6100  -15.6790 O.3   501  MTT501     -0.3257
     24  C34       17.4420  -22.4560  -14.8430 C.3   501  MTT501      0.1804
     25  C33       18.5660  -21.5850  -15.3960 C.3   501  MTT501      0.2167
     26  O33       19.8560  -22.2820  -15.3250 O.3   501  MTT501     -0.2175
     27  C32       18.6030  -20.2860  -14.6390 C.3   501  MTT501      0.2404
     28  O32       19.6390  -19.4200  -15.1280 O.3   501  MTT501     -0.2149
     29  C31       17.2730  -19.5870  -14.7960 C.3   501  MTT501      0.2695
     30  C35       16.1030  -21.7060  -14.9010 C.3   501  MTT501      0.1803
     31  O35       16.2420  -20.4310  -14.2840 O.3   501  MTT501     -0.3257
     32  C36       14.9890  -22.5010  -14.1660 C.3   501  MTT501      0.2141
     33  O36       13.7140  -21.9520  -14.4870 O.3   501  MTT501     -0.2176
     34  O44       17.0380  -19.3400  -16.1620 O.3   501  MTT501     -0.3257
     35  C44       16.4280  -18.0950  -16.5070 C.3   501  MTT501      0.1804
     36  C43       17.5250  -17.1990  -17.0610 C.3   501  MTT501      0.2168
     37  O43       18.4940  -16.8960  -16.0350 O.3   501  MTT501     -0.2175
     38  C42       16.9560  -15.9040  -17.6360 C.3   501  MTT501      0.2433
     39  O42       17.9880  -15.1450  -18.3160 O.3   501  MTT501     -0.2148
     40  C41       15.8730  -16.2110  -18.6450 C.3   501  MTT501      0.3023
     41  O41       16.4130  -16.8480  -19.8050 O.3   501  MTT501     -0.1869
     42  C45       15.3890  -18.3240  -17.5630 C.3   501  MTT501      0.1804
     43  O45       14.9000  -17.0650  -18.0580 O.3   501  MTT501     -0.3237
     44  C46       14.1840  -19.0800  -17.0220 C.3   501  MTT501      0.2141
     45  O46       13.4400  -19.7290  -18.0510 O.3   501  MTT501     -0.2176
@<TRIPOS>BOND
     1     4     3    1
     2     6     5    1
     3     3     5    1
     4     3     2    1
     5     5     7    1
     6     1     2    1
     7     2     8    1
     8    41    40    1
     9     7     9    1
    10     7    12    1
    11     8     9    1
    12     8    10    1
    13    11    10    1
    14    40    43    1
    15    40    38    1
    16    12    13    1
    17    39    38    1
    18    43    42    1
    19    45    44    1
    20    15    14    1
    21    38    36    1
    22    42    44    1
    23    42    35    1
    24    14    13    1
    25    14    16    1
    26    13    19    1
    27    36    35    1
    28    36    37    1
    29    35    34    1
    30    34    29    1
    31    19    21    1
    32    19    20    1
    33    17    16    1
    34    16    18    1
    35    21    22    1
    36    23    18    1
    37    23    24    1
    38    25    26    1
    39    25    24    1
    40    25    27    1
    41    28    27    1
    42    18    20    1
    43    30    24    1
    44    30    31    1
    45    30    32    1
    46    29    27    1
    47    29    31    1
    48    33    32    1
