@<TRIPOS>MOLECULE
4exs_X8Z_A_1.pdb
 14 14 0 0 0
SMALL
GASTEIGER

@<TRIPOS>ATOM
      1  O1       -53.9930   11.2090  -29.3200 O.2   301  X8Z301     -0.2745
      2  C4       -54.5270   12.0560  -30.0270 C.2   301  X8Z301      0.2302
      3  C2       -53.6700   12.9570  -30.8890 C.3   301  X8Z301      0.0887
      4  C1       -52.6750   13.8460  -30.1330 C.3   301  X8Z301      0.0777
      5  S        -53.2500   14.7370  -28.6600 S.3   301  X8Z301     -0.0816
      6  C3       -52.8630   12.0820  -31.8490 C.3   301  X8Z301      0.0105
      7  N        -55.8700   12.1630  -30.1100 N.am  301  X8Z301     -0.2486
      8  C8       -56.7370   11.2640  -29.3320 C.3   301  X8Z301      0.1872
      9  C9       -56.5730    9.8210  -29.7560 C.2   301  X8Z301      0.3831
     10  O3       -56.0480    9.5660  -30.8690 O.co2 301  X8Z301     -0.2438
     11  O2       -56.9580    8.9160  -28.9750 O.co2 301  X8Z301     -0.2438
     12  C5       -56.6520   13.0950  -30.9330 C.2   301  X8Z301      0.0635
     13  C6       -58.1190   12.8390  -30.6070 C.2   301  X8Z301     -0.0077
     14  C7       -58.1740   11.6960  -29.6140 C.3   301  X8Z301      0.0591
@<TRIPOS>BOND
     1     6     3    1
     2    12    13    2
     3    12     7    1
     4     3     4    1
     5     3     2    1
     6    10     9   ar
     7    13    14    1
     8     4     5    1
     9     7     2   am
    10     7     8    1
    11     2     1    2
    12     9     8    1
    13     9    11   ar
    14    14     8    1
