@<TRIPOS>MOLECULE
4exz_RET_A_1.pdb
 20 20 0 0 0
SMALL
GASTEIGER

@<TRIPOS>ATOM
      1  C1        -7.1050    1.3130    5.4060 C.3   202  RET202      0.0183
      2  C2        -8.3720    1.6820    6.1580 C.3   202  RET202      0.0044
      3  C3        -8.0530    2.7550    7.1850 C.3   202  RET202      0.0047
      4  C4        -7.6520    4.0420    6.4790 C.3   202  RET202      0.0217
      5  C5        -6.6960    3.7790    5.3360 C.2   202  RET202     -0.0479
      6  C6        -6.4520    2.5570    4.8540 C.2   202  RET202     -0.0307
      7  C7        -5.5010    2.4170    3.7360 C.2   202  RET202     -0.0052
      8  C8        -5.6460    1.4280    2.8590 C.2   202  RET202     -0.0046
      9  C9        -4.6950    1.2880    1.7410 C.2   202  RET202     -0.0219
     10  C10       -3.9690    0.1680    1.6150 C.2   202  RET202     -0.0043
     11  C11       -3.0270    0.0290    0.5080 C.2   202  RET202     -0.0007
     12  C12       -2.3370   -1.0980    0.3590 C.2   202  RET202     -0.0046
     13  C13       -1.3850   -1.2380   -0.7590 C.2   202  RET202     -0.0261
     14  C14       -0.6420   -2.3470   -0.8710 C.2   202  RET202     -0.0300
     15  C15        0.3000   -2.4850   -1.9790 C.3   202  RET202      0.0304
     16  C16       -7.4350    0.3830    4.2460 C.3   202  RET202      0.0043
     17  C17       -6.1200    0.6340    6.3510 C.3   202  RET202      0.0043
     18  C18       -5.9910    4.9470    4.7120 C.3   202  RET202      0.0260
     19  C19       -4.5390    2.3980    0.7440 C.3   202  RET202      0.0310
     20  C20       -1.2500   -0.1390   -1.7710 C.3   202  RET202      0.0307
@<TRIPOS>BOND
     1    15    14    1
     2    20    13    1
     3    14    13    2
     4    13    12    1
     5    12    11    2
     6    11    10    1
     7    19     9    1
     8    10     9    2
     9     9     8    1
    10     8     7    2
    11     7     6    1
    12    16     1    1
    13    18     5    1
    14     6     5    2
    15     6     1    1
    16     5     4    1
    17     1     2    1
    18     1    17    1
    19     2     3    1
    20     4     3    1
