@<TRIPOS>MOLECULE
4ey2_0RM_A_1.pdb
 27 28 0 0 0
SMALL
GASTEIGER

@<TRIPOS>ATOM
      1  O16       -5.1970    9.5750   24.8020 O.2   301  0RM301     -0.2681
      2  C15       -5.1490    9.2850   25.9830 C.2   301  0RM301      0.2712
      3  N14       -4.1110    8.6830   26.5830 N.am  301  0RM301     -0.1893
      4  C9        -2.9800    8.2200   25.8290 C.3   301  0RM301      0.2239
      5  C5        -1.8080    9.2720   25.9130 C.3   301  0RM301      0.1514
      6  S1        -1.4260    9.6640   27.6340 S.3   301  0RM301     -0.1211
      7  C2         0.3670    9.5590   27.3620 C.3   301  0RM301      0.0658
      8  C10        0.9340   10.8720   26.8130 C.3   301  0RM301      0.0129
      9  C6         1.1150    9.2010   28.6630 C.3   301  0RM301      0.0129
     10  C3         0.4130    8.4060   26.3080 C.3   301  0RM301      0.1857
     11  C11        1.7100    8.0830   25.6740 C.2   301  0RM301      0.3811
     12  O12        1.9600    8.3900   24.4920 O.co2 301  0RM301     -0.2441
     13  O13        2.5440    7.4600   26.3860 O.co2 301  0RM301     -0.2441
     14  N4        -0.5430    8.7630   25.2500 N.3   301  0RM301     -0.1956
     15  C7        -2.6110    6.7830   26.1630 C.2   301  0RM301      0.3865
     16  O8        -1.7150    6.2390   25.4790 O.co2 301  0RM301     -0.2437
     17  OG        -3.2260    6.2360   27.1080 O.co2 301  0RM301     -0.2437
     18  C17       -6.3300    9.6170   26.8890 C.ar  301  0RM301      0.1227
     19  C18       -6.1580   10.5030   27.9590 C.ar  301  0RM301      0.1460
     20  O25       -4.9200   11.0800   28.1070 O.3   301  0RM301     -0.4712
     21  C26       -4.5840   11.8430   29.2690 C.3   301  0RM301      0.2525
     22  C19       -7.2330   10.8400   28.8040 C.ar  301  0RM301      0.0373
     23  C20       -8.4330   10.1790   28.5650 C.ar  301  0RM301      0.0062
     24  C21       -8.6290    9.2730   27.5280 C.ar  301  0RM301      0.0373
     25  C22       -7.5470    8.9590   26.7040 C.ar  301  0RM301      0.1460
     26  O23       -7.6160    8.0910   25.6550 O.3   301  0RM301     -0.4712
     27  C24       -8.7980    7.2960   25.4660 C.3   301  0RM301      0.2525
@<TRIPOS>BOND
     1    12    11   ar
     2     1     2    2
     3    14     5    1
     4    14    10    1
     5    27    26    1
     6    16    15   ar
     7    26    25    1
     8    11    10    1
     9    11    13   ar
    10     4     5    1
    11     4    15    1
    12     4     3    1
    13     5     6    1
    14     2     3   am
    15     2    18    1
    16    15    17   ar
    17    10     7    1
    18    25    18   ar
    19    25    24   ar
    20     8     7    1
    21    18    19   ar
    22     7     6    1
    23     7     9    1
    24    24    23   ar
    25    19    20    1
    26    19    22   ar
    27    20    21    1
    28    23    22   ar
