@<TRIPOS>MOLECULE
4ey3_PHB_A_1.pdb
 10 10 0 0 0
SMALL
GASTEIGER

@<TRIPOS>ATOM
      1  C1'       21.4090   23.8180   86.9480 C.2   401  PHB401      0.3878
      2  O1'       22.3860   23.1460   87.3340 O.co2 401  PHB401     -0.2406
      3  O2'       20.4040   23.9290   87.6790 O.co2 401  PHB401     -0.2406
      4  C1        21.4310   24.5090   85.6210 C.ar  401  PHB401      0.0800
      5  C2        20.2460   24.6420   84.9000 C.ar  401  PHB401      0.0099
      6  C3        20.2540   25.2910   83.6690 C.ar  401  PHB401      0.0422
      7  C4        21.4430   25.8060   83.1570 C.ar  401  PHB401      0.1958
      8  C5        22.6300   25.6750   83.8790 C.ar  401  PHB401      0.0422
      9  C6        22.6240   25.0260   85.1150 C.ar  401  PHB401      0.0099
     10  O4        21.4360   26.4450   81.9450 O.3   401  PHB401     -0.2866
@<TRIPOS>BOND
     1    10     7    1
     2     7     6   ar
     3     7     8   ar
     4     6     5   ar
     5     8     9   ar
     6     5     4   ar
     7     9     4   ar
     8     4     1    1
     9     1     2   ar
    10     1     3   ar
