@<TRIPOS>MOLECULE
4ey5_HUP_A_1.pdb
 18 20 0 0 0
SMALL
GASTEIGER

@<TRIPOS>ATOM
      1  C1        -8.4790  -41.8240   34.5720 C.1   604  HUP604      0.2045
      2  O1        -7.7990  -41.2210   35.4080 O.2   604  HUP604     -0.2093
      3  N1        -7.8300  -42.6720   33.6430 N.2   604  HUP604     -0.3413
      4  C2        -9.9230  -41.7570   34.4360 C.2   604  HUP604      0.1024
      5  C3       -10.5770  -42.4610   33.4900 C.2   604  HUP604     -0.0049
      6  C4        -9.8780  -43.3140   32.5840 C.3   604  HUP604      0.0883
      7  C5        -8.5090  -43.4000   32.6840 C.2   604  HUP604      0.1050
      8  C6        -7.6610  -44.2560   31.8030 C.3   604  HUP604      0.0601
      9  C7        -8.4600  -44.8200   30.6190 C.3   604  HUP604      0.0295
     10  C8        -8.6400  -43.8010   29.5630 C.2   604  HUP604     -0.0344
     11  C9        -9.3780  -47.6290   30.7510 C.3   604  HUP604      0.0001
     12  C10      -10.0850  -46.5190   31.4300 C.3   604  HUP604      0.0018
     13  C11       -9.8210  -45.2550   31.1050 C.3   604  HUP604      0.0217
     14  C12      -10.6800  -44.0860   31.5420 C.3   604  HUP604      0.0906
     15  N2       -11.9500  -44.5400   32.1070 N.3   604  HUP604     -0.1333
     16  C13      -10.9230  -43.1560   30.3260 C.3   604  HUP604      0.0400
     17  C14       -9.7440  -43.0780   29.4430 C.2   604  HUP604     -0.0467
     18  C15       -9.8150  -42.0950   28.3170 C.3   604  HUP604      0.0261
@<TRIPOS>BOND
     1    18    17    1
     2    17    10    2
     3    17    16    1
     4    10     9    1
     5    16    14    1
     6     9    13    1
     7     9     8    1
     8    11    12    1
     9    13    12    1
    10    13    14    1
    11    14    15    1
    12    14     6    1
    13     8     7    1
    14     6     7    1
    15     6     5    1
    16     7     3    2
    17     5     4    2
    18     3     1    2
    19     4     1    1
    20     1     2    2
