@<TRIPOS>MOLECULE
4ey5_FUC_B_1.pdb
 10 10 0 0 0
SMALL
GASTEIGER

@<TRIPOS>ATOM
      1  C1        26.0190  -52.1900  -16.7040 C.3   601  FUC601      0.1776
      2  C2        27.2810  -51.5760  -17.3120 C.3   601  FUC601      0.2141
      3  C3        28.4810  -51.7270  -16.3580 C.3   601  FUC601      0.2172
      4  C4        28.6790  -53.2090  -15.9910 C.3   601  FUC601      0.2116
      5  C5        27.3660  -53.8000  -15.4430 C.3   601  FUC601      0.1483
      6  C6        27.4150  -55.3150  -15.2410 C.3   601  FUC601      0.0349
      7  O2        27.0840  -50.2210  -17.6410 O.3   601  FUC601     -0.2176
      8  O3        29.6870  -51.2720  -16.9870 O.3   601  FUC601     -0.2175
      9  O4        29.1060  -53.9460  -17.1270 O.3   601  FUC601     -0.2177
     10  O5        26.2280  -53.5360  -16.3100 O.3   601  FUC601     -0.3508
@<TRIPOS>BOND
     1     7     2    1
     2     2     1    1
     3     2     3    1
     4     9     4    1
     5     8     3    1
     6     1    10    1
     7     3     4    1
     8    10     5    1
     9     4     5    1
    10     5     6    1
