@<TRIPOS>MOLECULE
4ey6_GNT_A_1.pdb
 21 24 0 0 0
SMALL
GASTEIGER

@<TRIPOS>ATOM
      1  C1        -9.6990  -43.4080   32.4090 C.2   604  GNT604     -0.0211
      2  C2        -8.5070  -43.1600   32.9410 C.2   604  GNT604      0.0021
      3  C3        -7.2150  -43.7890   32.4760 C.3   604  GNT604      0.1773
      4  C4        -7.5140  -45.1090   31.7730 C.3   604  GNT604      0.0816
      5  C41       -8.6190  -44.9810   30.7300 C.3   604  GNT604      0.1762
      6  C42       -9.9290  -44.3330   31.2230 C.3   604  GNT604      0.0780
      7  O5        -8.1850  -44.2210   29.5900 O.3   604  GNT604     -0.4757
      8  C6        -9.3180  -42.6300   27.9300 C.ar  604  GNT604      0.1721
      9  C7       -10.5070  -41.9130   27.7330 C.ar  604  GNT604      0.0397
     10  C8       -11.5720  -41.9400   28.6500 C.ar  604  GNT604      0.0001
     11  C9       -12.6840  -42.7100   30.8080 C.3   604  GNT604      0.0990
     12  N10      -13.1180  -44.1010   31.0540 N.3   604  GNT604     -0.2677
     13  C11      -12.2660  -44.7480   32.0580 C.3   604  GNT604      0.0732
     14  C12      -11.0180  -45.3810   31.4570 C.3   604  GNT604      0.0290
     15  C13       -9.2000  -43.4300   29.1520 C.ar  604  GNT604      0.1682
     16  C14      -10.2990  -43.4630   30.0830 C.ar  604  GNT604      0.0187
     17  C15      -11.5260  -42.6830   29.8340 C.ar  604  GNT604     -0.0066
     18  C16       -8.3430  -41.6700   25.9660 C.3   604  GNT604      0.2526
     19  O17       -8.2840  -42.6030   27.0370 O.3   604  GNT604     -0.4684
     20  O18       -6.4910  -42.8850   31.6190 O.3   604  GNT604     -0.2182
     21  C19      -14.4930  -44.0840   31.5840 C.3   604  GNT604      0.0899
@<TRIPOS>BOND
     1    18    19    1
     2    19     8    1
     3     9     8   ar
     4     9    10   ar
     5     8    15   ar
     6    10    17   ar
     7    15     7    1
     8    15    16   ar
     9     7     5    1
    10    17    16   ar
    11    17    11    1
    12    16     6    1
    13     5     6    1
    14     5     4    1
    15    11    12    1
    16    12    21    1
    17    12    13    1
    18     6    14    1
    19     6     1    1
    20    14    13    1
    21    20     3    1
    22     4     3    1
    23     1     2    2
    24     3     2    1
