@<TRIPOS>MOLECULE
4ey6_FUC_B_1.pdb
 10 10 0 0 0
SMALL
GASTEIGER

@<TRIPOS>ATOM
      1  C1        26.1350  -52.0890  -16.6820 C.3   601  FUC601      0.1776
      2  C2        27.4520  -51.4370  -17.0890 C.3   601  FUC601      0.2141
      3  C3        28.4760  -51.6030  -15.9660 C.3   601  FUC601      0.2172
      4  C4        28.7280  -53.1020  -15.7380 C.3   601  FUC601      0.2116
      5  C5        27.3880  -53.8070  -15.4100 C.3   601  FUC601      0.1483
      6  C6        27.4830  -55.3380  -15.4000 C.3   601  FUC601      0.0349
      7  O2        27.2700  -50.0670  -17.4000 O.3   601  FUC601     -0.2176
      8  O3        29.7190  -50.9910  -16.3140 O.3   601  FUC601     -0.2175
      9  O4        29.3120  -53.6890  -16.8960 O.3   601  FUC601     -0.2177
     10  O5        26.3040  -53.4620  -16.3350 O.3   601  FUC601     -0.3508
@<TRIPOS>BOND
     1     7     2    1
     2     2     1    1
     3     2     3    1
     4     9     4    1
     5     1    10    1
     6    10     5    1
     7     8     3    1
     8     3     4    1
     9     4     5    1
    10     5     6    1
