@<TRIPOS>MOLECULE
4ey7_E20_A_1.pdb
 28 31 0 0 0
SMALL
GASTEIGER

@<TRIPOS>ATOM
      1  C1       -18.5300  -41.9280   24.2580 C.ar  604  E20604      0.1725
      2  C2       -18.9700  -41.8620   25.5660 C.ar  604  E20604      0.1721
      3  C3       -18.1250  -42.2220   26.6150 C.ar  604  E20604      0.0359
      4  C4       -16.8170  -42.6590   26.3380 C.ar  604  E20604     -0.0158
      5  C5       -16.3700  -42.7400   25.0370 C.ar  604  E20604      0.0340
      6  C6       -17.2340  -42.3690   23.9790 C.ar  604  E20604      0.0426
      7  C7       -14.9620  -43.2210   24.9960 C.2   604  E20604      0.1727
      8  C8       -14.5020  -43.4780   26.4190 C.3   604  E20604      0.0663
      9  C9       -15.7100  -43.1070   27.2820 C.3   604  E20604      0.0342
     10  C10      -13.9700  -44.8940   26.6420 C.3   604  E20604      0.0081
     11  C11      -12.9250  -44.9650   27.7760 C.3   604  E20604      0.0032
     12  C12      -13.5050  -44.7560   29.1410 C.3   604  E20604      0.0174
     13  C13      -12.5290  -44.9330   30.2740 C.3   604  E20604      0.0724
     14  N14      -11.7290  -46.1660   30.2120 N.3   604  E20604     -0.2690
     15  C15      -11.1890  -46.3510   28.8620 C.3   604  E20604      0.0724
     16  C16      -12.2570  -46.3280   27.8080 C.3   604  E20604      0.0174
     17  C17      -10.9620  -46.5450   31.3950 C.3   604  E20604      0.0991
     18  C18       -9.6980  -45.7080   31.5390 C.ar  604  E20604     -0.0061
     19  C19       -9.7400  -44.4450   32.1580 C.ar  604  E20604     -0.0029
     20  C20       -8.5760  -43.6760   32.2860 C.ar  604  E20604     -0.0003
     21  C21       -7.3630  -44.1710   31.8000 C.ar  604  E20604     -0.0000
     22  C22       -7.3170  -45.4340   31.1760 C.ar  604  E20604     -0.0003
     23  C23       -8.4750  -46.2000   31.0510 C.ar  604  E20604     -0.0029
     24  O24      -14.2780  -43.3620   23.9590 O.2   604  E20604     -0.2913
     25  O25      -19.3870  -41.5620   23.2440 O.3   604  E20604     -0.4684
     26  C26      -18.9950  -41.5610   21.9310 C.3   604  E20604      0.2526
     27  O27      -20.2640  -41.4070   25.8390 O.3   604  E20604     -0.4684
     28  C28      -20.6580  -41.2660   27.1750 C.3   604  E20604      0.2526
@<TRIPOS>BOND
     1    26    25    1
     2    25     1    1
     3    24     7    2
     4     6     1   ar
     5     6     5   ar
     6     1     2   ar
     7     7     5    1
     8     7     8    1
     9     5     4   ar
    10     2    27    1
    11     2     3   ar
    12    27    28    1
    13     4     3   ar
    14     4     9    1
    15     8    10    1
    16     8     9    1
    17    10    11    1
    18    11    16    1
    19    11    12    1
    20    16    15    1
    21    15    14    1
    22    12    13    1
    23    14    13    1
    24    14    17    1
    25    23    22   ar
    26    23    18   ar
    27    22    21   ar
    28    17    18    1
    29    18    19   ar
    30    21    20   ar
    31    19    20   ar
