@<TRIPOS>MOLECULE
4ey7_FUC_B_1.pdb
 10 10 0 0 0
SMALL
GASTEIGER

@<TRIPOS>ATOM
      1  C1        26.3860  -52.4490  -16.4060 C.3   601  FUC601      0.1776
      2  C2        27.6100  -51.7370  -16.9510 C.3   601  FUC601      0.2141
      3  C3        28.7370  -51.7530  -15.9050 C.3   601  FUC601      0.2172
      4  C4        29.0810  -53.2070  -15.5240 C.3   601  FUC601      0.2116
      5  C5        27.7890  -53.9610  -15.0870 C.3   601  FUC601      0.1483
      6  C6        27.9780  -55.4680  -14.9180 C.3   601  FUC601      0.0349
      7  O2        27.2940  -50.4100  -17.3210 O.3   601  FUC601     -0.2176
      8  O3        29.9170  -51.1560  -16.4230 O.3   601  FUC601     -0.2175
      9  O4        29.7030  -53.8690  -16.6270 O.3   601  FUC601     -0.2177
     10  O5        26.6730  -53.7780  -16.0200 O.3   601  FUC601     -0.3508
@<TRIPOS>BOND
     1     7     2    1
     2     2     1    1
     3     2     3    1
     4     9     4    1
     5     8     3    1
     6     1    10    1
     7    10     5    1
     8     3     4    1
     9     4     5    1
    10     5     6    1
