@<TRIPOS>MOLECULE
4eyb_0WO_A_1.pdb
 29 31 0 0 0
SMALL
GASTEIGER

@<TRIPOS>ATOM
      1  C         -2.5480    7.0790   26.2550 C.2   303  0WO303      0.3865
      2  N         -3.8440    9.0590   26.7680 N.am  303  0WO303     -0.1893
      3  O         -1.7540    6.4540   25.5380 O.co2 303  0WO303     -0.2437
      4  CA        -2.8330    8.5120   25.8790 C.3   303  0WO303      0.2239
      5  CB        -1.5740    9.4750   25.9170 C.3   303  0WO303      0.1514
      6  CAA       -4.1420   11.6610   28.6270 C.3   303  0WO303      0.0755
      7  CAB        1.3600    9.2330   28.6630 C.3   303  0WO303      0.0129
      8  CAC        1.2930   10.9250   26.7910 C.3   303  0WO303      0.0129
      9  OAE        2.6350    7.3880   26.3210 O.co2 303  0WO303     -0.2441
     10  OAF       -5.2880    9.6590   25.1340 O.2   303  0WO303     -0.2682
     11  OAH        2.0820    8.4300   24.4590 O.co2 303  0WO303     -0.2441
     12  CAI       -8.9700    6.6780   25.1990 C.ar  303  0WO303      0.0000
     13  CAJ       -7.6850    6.5490   25.7190 C.ar  303  0WO303      0.0000
     14  CAK       -9.7510    7.8030   25.4280 C.ar  303  0WO303      0.0000
     15  CAL       -7.1670    7.5840   26.4730 C.ar  303  0WO303      0.0016
     16  CAM       -9.2210    8.8920   26.1400 C.ar  303  0WO303      0.0016
     17  NAN       -7.6920   10.5270   28.5750 N.ar  303  0WO303     -0.0772
     18  NAP       -0.3970    8.8630   25.2620 N.3   303  0WO303     -0.1956
     19  OAQ       -6.5950   11.2710   29.1320 O.2   303  0WO303     -0.3576
     20  SAR       -1.1310    9.8860   27.6390 S.3   303  0WO303     -0.1211
     21  CAT        1.8600    8.0770   25.6550 C.2   303  0WO303      0.3811
     22  CAU       -4.9860    9.5660   26.3290 C.2   303  0WO303      0.2696
     23  CAV       -5.4760   11.0220   28.3820 C.ar  303  0WO303      0.1592
     24  CAW       -7.9220    8.7610   26.6690 C.ar  303  0WO303      0.0211
     25  CAX       -7.2250    9.7810   27.4930 C.ar  303  0WO303      0.1270
     26  CAY       -5.8740   10.0720   27.3730 C.ar  303  0WO303      0.1086
     27  CBB        0.5800    8.5290   26.3150 C.3   303  0WO303      0.1857
     28  CBC        0.6240    9.6620   27.3860 C.3   303  0WO303      0.0658
     29  OXT       -3.0680    6.5000   27.2340 O.co2 303  0WO303     -0.2437
@<TRIPOS>BOND
     1    11    21   ar
     2    10    22    2
     3    12    14   ar
     4    12    13   ar
     5    18     5    1
     6    18    27    1
     7    14    16   ar
     8     3     1   ar
     9    21    27    1
    10    21     9   ar
    11    13    15   ar
    12     4     5    1
    13     4     1    1
    14     4     2    1
    15     5    20    1
    16    16    24   ar
    17     1    29   ar
    18    27    28    1
    19    22     2   am
    20    22    26    1
    21    15    24   ar
    22    24    25    1
    23     8    28    1
    24    26    25   ar
    25    26    23   ar
    26    28    20    1
    27    28     7    1
    28    25    17   ar
    29    23     6    1
    30    23    19   ar
    31    17    19   ar
