@<TRIPOS>MOLECULE
4eyf_PNK_A_1.pdb
 24 25 0 0 0
SMALL
GASTEIGER

@<TRIPOS>ATOM
      1  C1        -2.8940    8.3700   25.7960 C.3   301  PNK301      0.2236
      2  C2        -2.5170    6.9320   26.1210 C.2   301  PNK301      0.3865
      3  C3        -6.8750   11.9120   28.2850 C.ar  301  PNK301     -0.0038
      4  C4        -1.7230    9.3680   25.9510 C.3   301  PNK301      0.1514
      5  C5         0.5020    8.4390   26.3060 C.3   301  PNK301      0.1857
      6  C6         0.4550    9.5350   27.3720 C.3   301  PNK301      0.0658
      7  C7        -6.6400   13.0790   29.0140 C.ar  301  PNK301     -0.0003
      8  C8        -5.3580   13.3640   29.4960 C.ar  301  PNK301     -0.0000
      9  C9         1.8390    8.0990   25.7080 C.2   301  PNK301      0.3811
     10  C10       -4.3180   12.4630   29.2740 C.ar  301  PNK301     -0.0003
     11  C11       -4.5680   11.2920   28.5500 C.ar  301  PNK301     -0.0038
     12  C12        1.2060    9.1780   28.6560 C.3   301  PNK301      0.0129
     13  N1        -0.5100    8.8350   25.3330 N.3   301  PNK301     -0.1956
     14  O1         2.6890    7.4230   26.3670 O.co2 301  PNK301     -0.2441
     15  O2         2.0610    8.5020   24.5480 O.co2 301  PNK301     -0.2441
     16  O3        -3.1370    6.3570   27.0240 O.co2 301  PNK301     -0.2437
     17  O4        -1.6200    6.3240   25.4980 O.co2 301  PNK301     -0.2437
     18  O5        -5.1220    9.9020   25.0830 O.2   301  PNK301     -0.2730
     19  C16       -5.8320   11.0190   28.0690 C.ar  301  PNK301     -0.0130
     20  C15       -6.1060    9.7830   27.2540 C.3   301  PNK301      0.1131
     21  C14       -5.0070    9.5190   26.2440 C.2   301  PNK301      0.2463
     22  N2        -3.9640    8.8160   26.6950 N.am  301  PNK301     -0.1929
     23  S1        -1.2850    9.6990   27.6580 S.3   301  PNK301     -0.1211
     24  C13        0.9740   10.8860   26.8700 C.3   301  PNK301      0.0129
@<TRIPOS>BOND
     1    15     9   ar
     2    18    21    2
     3    13     4    1
     4    13     5    1
     5    17     2   ar
     6     9     5    1
     7     9    14   ar
     8     1     4    1
     9     1     2    1
    10     1    22    1
    11     4    23    1
    12     2    16   ar
    13    21    22   am
    14    21    20    1
    15     5     6    1
    16    24     6    1
    17    20    19    1
    18     6    23    1
    19     6    12    1
    20    19     3   ar
    21    19    11   ar
    22     3     7   ar
    23    11    10   ar
    24     7     8   ar
    25    10     8   ar
