@<TRIPOS>MOLECULE
4eyg_VNL_A_1.pdb
 12 12 0 0 0
SMALL
GASTEIGER

@<TRIPOS>ATOM
      1  C1        -1.9050   36.2280   41.8530 C.ar  401  VNL401      0.0830
      2  CO1       -0.7010   35.7070   41.3470 C.ar  401  VNL401      0.0101
      3  CO2       -3.1270   35.5380   41.6830 C.ar  401  VNL401      0.0468
      4  CM1       -0.6940   34.4710   40.6740 C.ar  401  VNL401      0.0454
      5  CM2       -3.1550   34.3070   41.0170 C.ar  401  VNL401      0.1776
      6  OM        -4.3040   33.5660   40.8250 O.3   401  VNL401     -0.4682
      7  CZ        -1.8820   33.7580   40.4950 C.ar  401  VNL401      0.2293
      8  CC        -1.9000   37.5620   42.5500 C.2   401  VNL401      0.3879
      9  CV        -5.5710   33.9300   41.4160 C.3   401  VNL401      0.2526
     10  O1        -0.8760   37.9930   43.1420 O.co2 401  VNL401     -0.2406
     11  O2        -2.9410   38.2470   42.4760 O.co2 401  VNL401     -0.2406
     12  O3        -1.9080   32.5480   39.8400 O.3   401  VNL401     -0.2833
@<TRIPOS>BOND
     1    12     7    1
     2     7     4   ar
     3     7     5   ar
     4     4     2   ar
     5     6     5    1
     6     6     9    1
     7     5     3   ar
     8     2     1   ar
     9     3     1   ar
    10     1     8    1
    11    11     8   ar
    12     8    10   ar
