@<TRIPOS>MOLECULE
4eyh_DCP_B_1.pdb
 28 29 0 0 0
SMALL
GASTEIGER

@<TRIPOS>ATOM
      1  N1         0.5840   26.4020  -19.5050 N.am  501  DCP501     -0.1802
      2  C2         1.1630   27.3670  -20.3030 C.1   501  DCP501      0.2756
      3  N3         1.8660   28.4100  -19.7330 N.2   501  DCP501     -0.3024
      4  C4         2.0880   28.4540  -18.3690 C.2   501  DCP501      0.2346
      5  C5         1.5010   27.4780  -17.5640 C.2   501  DCP501      0.0687
      6  C6         0.8720   26.3670  -18.1620 C.2   501  DCP501      0.0835
      7  O2         1.0430   27.2870  -21.5200 O.2   501  DCP501     -0.1925
      8  N4         2.8470   29.4040  -17.8410 N.pl3 501  DCP501     -0.0921
      9  C1'       -0.3420   25.4320  -20.1370 C.3   501  DCP501      0.2090
     10  C2'        0.1450   23.9900  -19.9800 C.3   501  DCP501      0.0874
     11  C3'       -1.0110   23.2420  -19.3340 C.3   501  DCP501      0.1857
     12  C4'       -2.0870   24.2890  -19.0870 C.3   501  DCP501      0.1773
     13  O4'       -1.6260   25.5470  -19.5610 O.3   501  DCP501     -0.3339
     14  O3'       -1.5380   22.2240  -20.1610 O.3   501  DCP501     -0.2203
     15  C5'       -2.4620   24.4110  -17.6060 C.3   501  DCP501      0.1812
     16  O5'       -1.3480   24.2320  -16.7380 O.3   501  DCP501     -0.3112
     17  PA        -1.4850   23.3890  -15.3550 P.3   501  DCP501      0.2189
     18  O1A       -2.9350   23.3140  -14.9420 O.2   501  DCP501     -0.5170
     19  O2A       -0.6810   24.0370  -14.2470 O.3   501  DCP501     -0.4371
     20  O3A       -0.9590   21.8830  -15.6720 O.3   501  DCP501     -0.2700
     21  PB        -1.8220   20.5190  -15.8740 P.3   501  DCP501      0.2277
     22  O1B       -1.8340   20.3060  -17.3660 O.2   501  DCP501     -0.5168
     23  O2B       -3.2100   20.5530  -15.2920 O.3   501  DCP501     -0.4368
     24  O3B       -0.8360   19.4020  -15.2220 O.3   501  DCP501     -0.2258
     25  PG        -0.9630   18.5440  -13.8560 P.3   501  DCP501      0.5373
     26  O1G       -1.2860   17.1120  -14.2050 O.2   501  DCP501     -0.2221
     27  O2G        0.3910   18.4930  -13.1830 O.3   501  DCP501     -0.1143
     28  O3G       -1.9960   19.1730  -12.9310 O.3   501  DCP501     -0.1143
@<TRIPOS>BOND
     1     7     2    2
     2     2     3    2
     3     2     1   am
     4    14    11    1
     5     9    10    1
     6     9    13    1
     7     9     1    1
     8    10    11    1
     9     3     4    2
    10    13    12    1
    11     1     6    1
    12    11    12    1
    13    12    15    1
    14     4     8    1
    15     4     5    1
    16     6     5    2
    17    15    16    1
    18    22    21    2
    19    16    17    1
    20    21    20    1
    21    21    23    1
    22    21    24    1
    23    20    17    1
    24    17    18    2
    25    17    19    1
    26    24    25    1
    27    26    25    2
    28    25    27    1
    29    25    28    1
