@<TRIPOS>MOLECULE
4eyi_DTP_B_1.pdb
 30 32 0 0 0
SMALL
GASTEIGER

@<TRIPOS>ATOM
      1  PG         1.0990   18.5440   13.6140 P.3   501  DTP501      0.5373
      2  O1G        2.0610   19.4710   12.9050 O.2   501  DTP501     -0.2221
      3  O2G        1.5280   17.0930   13.5520 O.3   501  DTP501     -0.1143
      4  O3G       -0.3520   18.8190   13.2720 O.3   501  DTP501     -0.1143
      5  PB         1.2470   20.3750   15.8090 P.3   501  DTP501      0.2277
      6  O1B        2.6310   20.5210   16.4110 O.2   501  DTP501     -0.5168
      7  O2B        0.0300   20.5620   16.6910 O.3   501  DTP501     -0.4368
      8  O3B        1.2010   18.8850   15.1880 O.3   501  DTP501     -0.2258
      9  PA         0.9330   22.9750   14.6580 P.3   501  DTP501      0.2189
     10  O1A        1.9770   23.6230   13.7960 O.2   501  DTP501     -0.5170
     11  O2A       -0.5090   23.3460   14.3930 O.3   501  DTP501     -0.4371
     12  O3A        1.0970   21.3640   14.5270 O.3   501  DTP501     -0.2700
     13  O5'        1.2940   23.2270   16.2150 O.3   501  DTP501     -0.3112
     14  C5'        2.6240   23.4130   16.7110 C.3   501  DTP501      0.1813
     15  C4'        2.6090   23.5170   18.2450 C.3   501  DTP501      0.1795
     16  O4'        1.9600   24.7330   18.6300 O.3   501  DTP501     -0.3155
     17  C3'        1.8540   22.3720   18.9290 C.3   501  DTP501      0.1883
     18  O3'        2.7120   21.5350   19.7160 O.3   501  DTP501     -0.2202
     19  C2'        0.8110   23.0100   19.8310 C.3   501  DTP501      0.1151
     20  C1'        0.9080   24.5070   19.5730 C.3   501  DTP501      0.2873
     21  N9        -0.3550   25.0170   18.9790 N.pl3 501  DTP501     -0.1460
     22  C8        -0.7050   24.9070   17.6800 C.3   501  DTP501      0.3377
     23  N7        -1.9170   25.4790   17.4420 N.2   501  DTP501     -0.2095
     24  C5        -2.3610   25.9750   18.6130 C.2   501  DTP501      0.2526
     25  C6        -3.5710   26.7080   19.0660 C.2   501  DTP501      0.4393
     26  N6        -4.5650   27.0280   18.1990 N.pl3 501  DTP501      0.2180
     27  N1        -3.6430   27.0430   20.3800 N.2   501  DTP501      0.0021
     28  C2        -2.6610   26.7220   21.2550 C.3   501  DTP501      0.5254
     29  N3        -1.5340   26.0640   20.9120 N.2   501  DTP501     -0.0055
     30  C4        -1.3290   25.6690   19.6270 C.2   501  DTP501      0.3518
@<TRIPOS>BOND
     1     2     1    2
     2     4     1    1
     3     3     1    1
     4     1     8    1
     5    10     9    2
     6    11     9    1
     7    12     9    1
     8    12     5    1
     9     9    13    1
    10     8     5    1
    11     5     6    2
    12     5     7    1
    13    13    14    1
    14    14    15    1
    15    23    22    1
    16    23    24    2
    17    22    21    1
    18    26    25    1
    19    15    16    1
    20    15    17    1
    21    24    25    1
    22    24    30    1
    23    16    20    1
    24    17    18    1
    25    17    19    1
    26    21    20    1
    27    21    30    1
    28    25    27    2
    29    20    19    1
    30    30    29    2
    31    27    28    1
    32    29    28    1
