@<TRIPOS>MOLECULE
4eyj_N61_A_1.pdb
 27 29 0 0 0
SMALL
GASTEIGER

@<TRIPOS>ATOM
      1  O1       -12.9230   12.2820  -26.4660 O.2   401  N61401     -0.2484
      2  C9       -13.8960   11.5290  -26.5500 C.2   401  N61401      0.3491
      3  N3       -14.9220   11.5170  -25.5020 N.am  401  N61401     -0.1421
      4  C8       -14.8390   12.4200  -24.3360 C.ar  401  N61401      0.1543
      5  C7       -14.4260   13.7380  -24.3550 C.ar  401  N61401      0.0523
      6  C2       -14.5280   14.2170  -23.0140 C.ar  401  N61401      0.0807
      7  C3       -14.1720   15.6350  -22.5330 C.3   401  N61401      0.0372
      8  C6       -12.7490   15.9670  -22.9430 C.3   401  N61401      0.0060
      9  C5       -14.3210   15.7030  -21.0620 C.3   401  N61401      0.0060
     10  C4       -15.1150   16.6080  -23.1730 C.3   401  N61401      0.0060
     11  N2       -14.9830   13.2160  -22.2590 N.ar  401  N61401     -0.1725
     12  N1       -15.1920   12.0990  -23.0590 N.ar  401  N61401     -0.2342
     13  C1       -15.6870   10.7860  -22.6260 C.3   401  N61401      0.1552
     14  N4       -14.1020   10.6160  -27.6590 N.am  401  N61401     -0.1606
     15  C10      -13.2280   10.4380  -28.8060 C.ar  401  N61401      0.0752
     16  C20      -11.8990   10.7610  -28.8190 C.ar  401  N61401      0.0198
     17  C19      -11.1320   10.5510  -29.9950 C.ar  401  N61401      0.0388
     18  C13      -11.7390   10.0210  -31.1390 C.ar  401  N61401      0.1454
     19  C12      -13.0660    9.6910  -31.1170 C.ar  401  N61401      0.0388
     20  C11      -13.8260    9.9020  -29.9530 C.ar  401  N61401      0.0198
     21  O2       -11.0290    9.7820  -32.2910 O.3   401  N61401     -0.4534
     22  C14      -10.7000   10.9220  -33.0250 C.ar  401  N61401      0.1484
     23  C18       -9.6040   10.8610  -33.9040 C.ar  401  N61401      0.0581
     24  C17       -9.2750   11.9600  -34.6290 C.ar  401  N61401      0.1020
     25  N5        -9.9990   13.1130  -34.5090 N.ar  401  N61401     -0.2421
     26  C16      -11.0680   13.2030  -33.6630 C.ar  401  N61401      0.1020
     27  C15      -11.4340   12.1340  -32.9240 C.ar  401  N61401      0.0581
@<TRIPOS>BOND
     1    24    25   ar
     2    24    23   ar
     3    25    26   ar
     4    23    22   ar
     5    26    27   ar
     6    22    27   ar
     7    22    21    1
     8    21    18    1
     9    18    19   ar
    10    18    17   ar
    11    19    20   ar
    12    17    16   ar
    13    20    15   ar
    14    16    15   ar
    15    15    14    1
    16    14     2   am
    17     2     1    2
    18     2     3   am
    19     3     4    1
    20     5     4   ar
    21     5     6   ar
    22     4    12   ar
    23    10     7    1
    24    12    13    1
    25    12    11   ar
    26     6     7    1
    27     6    11   ar
    28     8     7    1
    29     7     9    1
