@<TRIPOS>MOLECULE
4eyk_DHB_A_1.pdb
 11 11 0 0 0
SMALL
GASTEIGER

@<TRIPOS>ATOM
      1  C1        21.4410   24.4120   85.0170 C.ar  401  DHB401      0.0832
      2  C2        20.2440   24.6100   84.3110 C.ar  401  DHB401      0.0520
      3  C3        20.2990   25.2770   83.0880 C.ar  401  DHB401      0.2345
      4  O3        19.1910   25.5110   82.3400 O.3   401  DHB401     -0.2831
      5  C4        21.6020   25.7490   82.5760 C.ar  401  DHB401      0.2343
      6  O4        21.6090   26.4030   81.3750 O.3   401  DHB401     -0.2831
      7  C5        22.7680   25.5260   83.3050 C.ar  401  DHB401      0.0456
      8  C6        22.6890   24.8510   84.5280 C.ar  401  DHB401      0.0101
      9  C         21.3850   23.7100   86.3300 C.2   401  DHB401      0.3879
     10  O1        22.4020   23.1110   86.7160 O.co2 401  DHB401     -0.2406
     11  O2        20.3250   23.7660   87.0090 O.co2 401  DHB401     -0.2406
@<TRIPOS>BOND
     1     6     5    1
     2     4     3    1
     3     5     3   ar
     4     5     7   ar
     5     3     2   ar
     6     7     8   ar
     7     2     1   ar
     8     8     1   ar
     9     1     9    1
    10     9    10   ar
    11     9    11   ar
