@<TRIPOS>MOLECULE
4eyl_0RV_A_1.pdb
 49 50 0 0 0
SMALL
GASTEIGER

@<TRIPOS>ATOM
      1  O         -3.0960  -40.8650    1.9020 O.2   301  0RV301     -0.2739
      2  C         -2.5740  -39.7530    1.8350 C.2   301  0RV301      0.2324
      3  NAY       -3.2960  -38.6170    1.8720 N.am  301  0RV301     -0.3018
      4  CAC       -2.6440  -37.3040    1.7840 C.3   301  0RV301      0.0302
      5  CAD       -4.7380  -38.7420    2.0040 C.3   301  0RV301      0.0032
      6  CA        -1.0250  -39.6400    1.6910 C.3   301  0RV301      0.0860
      7  CB        -0.3180  -41.0770    1.5650 C.3   301  0RV301     -0.0159
      8  N          0.0980  -38.5980    2.0050 N.3   301  0RV301     -0.3046
      9  CD         1.4030  -39.2680    1.6630 C.3   301  0RV301      0.0085
     10  CG         1.2100  -40.8280    1.9060 C.3   301  0RV301      0.0206
     11  SAO        2.1840  -41.8490    3.0230 S.3   301  0RV301     -0.1404
     12  CAT        3.7990  -41.4010    2.5190 C.3   301  0RV301      0.0941
     13  CAV        4.4030  -41.7570    1.2990 C.3   301  0RV301      0.0221
     14  CAB        4.0760  -43.2100    0.9090 C.3   301  0RV301     -0.0553
     15  CAS        4.6490  -40.6100    3.2160 C.2   301  0RV301      0.1424
     16  CAP        4.3250  -40.1300    4.4130 C.2   301  0RV301      0.4014
     17  OAE        5.1400  -39.4220    5.0440 O.co2 301  0RV301     -0.2392
     18  OAH        3.2020  -40.3780    4.9030 O.co2 301  0RV301     -0.2392
     19  NAN        5.7650  -40.4680    2.5820 N.2   301  0RV301     -0.2749
     20  CAZ        5.9220  -41.4680    1.5400 C.3   301  0RV301      0.0745
     21  CBA        6.7240  -42.6830    2.0270 C.3   301  0RV301      0.1089
     22  CAQ        7.3690  -42.1540    3.3600 C.2   301  0RV301      0.3635
     23  OAF        7.3330  -42.9170    4.3500 O.co2 301  0RV301     -0.2459
     24  OAI        7.8710  -41.0090    3.3330 O.co2 301  0RV301     -0.2459
     25  CAU        7.7970  -43.0930    1.0220 C.3   301  0RV301      0.0675
     26  OAJ        8.2380  -44.4210    1.3160 O.3   301  0RV301     -0.3912
     27  CAA        8.9840  -42.1320    1.1180 C.3   301  0RV301     -0.0381
     28  H1        -2.1900  -37.1870    0.8010 H     301  0RV301      0.0480
     29  H3        -3.3940  -36.5250    1.9170 H     301  0RV301      0.0480
     30  H4        -4.8830  -39.4110    2.8520 H     301  0RV301      0.0428
     31  H5        -5.2170  -37.8660    2.3270 H     301  0RV301      0.0428
     32  H6        -5.1960  -39.2740    1.2220 H     301  0RV301      0.0428
     33  H7        -1.2690  -39.7780    2.7780 H     301  0RV301      0.0557
     34  H8        -0.7810  -41.9210    2.1270 H     301  0RV301      0.0296
     35  H9        -0.3630  -41.3450    0.5120 H     301  0RV301      0.0296
     36  H10       -0.0620  -37.8600    1.3500 H     301  0RV301      0.1227
     37  H12        1.6560  -39.1810    0.5990 H     301  0RV301      0.0435
     38  H13        2.2650  -38.8580    2.2190 H     301  0RV301      0.0435
     39  H14        0.8850  -40.5540    2.9150 H     301  0RV301      0.0425
     40  H15        3.8690  -43.8070    1.7980 H     301  0RV301      0.0236
     41  H16        4.8890  -43.6450    0.3280 H     301  0RV301      0.0236
     42  H17        3.1790  -43.2080    0.2890 H     301  0RV301      0.0236
     43  H19        6.3690  -41.0940    0.6120 H     301  0RV301      0.0559
     44  H20        6.0990  -43.5290    2.2790 H     301  0RV301      0.0462
     45  H22        7.3860  -43.0670    0.0130 H     301  0RV301      0.0599
     46  H23        8.8630  -44.7320    0.6000 H     301  0RV301      0.2098
     47  H24        9.7340  -42.4070    0.3760 H     301  0RV301      0.0255
     48  H25        9.4210  -42.1930    2.1140 H     301  0RV301      0.0255
     49  H26        8.6460  -41.1130    0.9320 H     301  0RV301      0.0255
@<TRIPOS>BOND
     1    45    25    1
     2    42    14    1
     3    41    14    1
     4    47    27    1
     5    35     7    1
     6    37     9    1
     7    46    26    1
     8    43    20    1
     9    28     4    1
    10    14    13    1
    11    14    40    1
    12    49    27    1
    13    25    27    1
    14    25    26    1
    15    25    21    1
    16    27    48    1
    17    32     5    1
    18    13    20    1
    19    13    12    1
    20    36     8    1
    21    20    21    1
    22    20    19    1
    23     7     6    1
    24     7    10    1
    25     7    34    1
    26     9    10    1
    27     9     8    1
    28     9    38    1
    29     6     2    1
    30     6     8    1
    31     6    33    1
    32     4     3    1
    33     4    29    1
    34     2     3   am
    35     2     1    2
    36     3     5    1
    37    10    39    1
    38    10    11    1
    39     5    31    1
    40     5    30    1
    41    21    44    1
    42    21    22    1
    43    12    11    1
    44    12    15    1
    45    19    15    2
    46    15    16    1
    47    24    22   ar
    48    22    23   ar
    49    16    18   ar
    50    16    17   ar
