@<TRIPOS>MOLECULE
4eym_0RX_A_1.pdb
 28 31 0 0 0
SMALL
GASTEIGER

@<TRIPOS>ATOM
      1  O1       -13.3930   12.3820  -26.5740 O.2   401  0RX401     -0.2680
      2  C1       -14.2360   11.5210  -26.4060 C.2   401  0RX401      0.2691
      3  C13      -14.9400   11.4950  -25.0830 C.ar  401  0RX401      0.0597
      4  C21      -15.2410   10.2920  -24.4700 C.ar  401  0RX401      0.0389
      5  C16      -15.8890   10.3030  -23.2410 C.ar  401  0RX401      0.1320
      6  N4       -16.1680    9.0870  -22.6130 N.pl3 401  0RX401     -0.2881
      7  C20      -16.4390    9.0650  -21.1810 C.3   401  0RX401      0.1242
      8  C19      -17.4310    7.9360  -20.9340 C.3   401  0RX401      0.1636
      9  O3       -16.9610    6.6850  -21.4430 O.3   401  0RX401     -0.3501
     10  C18      -15.8660    6.7730  -22.3540 C.3   401  0RX401      0.1636
     11  C17      -16.1500    7.8560  -23.3860 C.3   401  0RX401      0.1242
     12  N3       -16.2240   11.4670  -22.6440 N.ar  401  0RX401     -0.2292
     13  C15      -15.9480   12.6380  -23.2250 C.ar  401  0RX401      0.1005
     14  C14      -15.2990   12.6790  -24.4560 C.ar  401  0RX401      0.0253
     15  N1       -14.5590   10.6180  -27.3330 N.am  401  0RX401     -0.1754
     16  C2       -13.8530   10.4180  -28.4740 C.ar  401  0RX401      0.0739
     17  C12      -14.4200    9.6530  -29.4810 C.ar  401  0RX401      0.0197
     18  C11      -13.7300    9.4190  -30.6650 C.ar  401  0RX401      0.0388
     19  C5       -12.4650    9.9570  -30.8570 C.ar  401  0RX401      0.1454
     20  C4       -11.8830   10.7140  -29.8490 C.ar  401  0RX401      0.0388
     21  C3       -12.5780   10.9450  -28.6620 C.ar  401  0RX401      0.0197
     22  O2       -11.8040    9.7060  -32.0340 O.3   401  0RX401     -0.4534
     23  C6       -11.3200   10.7100  -32.8340 C.ar  401  0RX401      0.1484
     24  C10      -11.8910   11.9800  -32.8140 C.ar  401  0RX401      0.0581
     25  C9       -11.3790   12.9720  -33.6450 C.ar  401  0RX401      0.1020
     26  N2       -10.3580   12.7070  -34.4720 N.ar  401  0RX401     -0.2421
     27  C8        -9.8020   11.4900  -34.5180 C.ar  401  0RX401      0.1020
     28  C7       -10.2650   10.4620  -33.7020 C.ar  401  0RX401      0.0581
@<TRIPOS>BOND
     1    27    26   ar
     2    27    28   ar
     3    26    25   ar
     4    28    23   ar
     5    25    24   ar
     6    23    24   ar
     7    23    22    1
     8    22    19    1
     9    19    18   ar
    10    19    20   ar
    11    18    17   ar
    12    20    21   ar
    13    17    16   ar
    14    21    16   ar
    15    16    15    1
    16    15     2   am
    17     1     2    2
    18     2     3    1
    19     3     4   ar
    20     3    14   ar
    21     4     5   ar
    22    14    13   ar
    23    11     6    1
    24    11    10    1
    25     5    12   ar
    26     5     6    1
    27    13    12   ar
    28     6     7    1
    29    10     9    1
    30     9     8    1
    31     7     8    1
