@<TRIPOS>MOLECULE
4eyo_HC4_A_1.pdb
 12 12 0 0 0
SMALL
GASTEIGER

@<TRIPOS>ATOM
      1  C1         9.4200   22.7640    4.4220 C.2   401  HC4401      0.3880
      2  O1         8.2810   22.4370    4.0110 O.co2 401  HC4401     -0.2405
      3  O2         9.8830   22.3500    5.5220 O.co2 401  HC4401     -0.2405
      4  C2        10.2670   23.6730    3.6310 C.2   401  HC4401      0.0861
      5  C3        10.5060   23.5170    2.3180 C.2   401  HC4401      0.0068
      6  C1'       11.4200   24.4580    1.5930 C.ar  401  HC4401      0.0004
      7  C2'       12.2160   23.8950    0.5780 C.ar  401  HC4401      0.0033
      8  C3'       13.0880   24.6620   -0.1950 C.ar  401  HC4401      0.0420
      9  C4'       13.1350   26.0360    0.0500 C.ar  401  HC4401      0.1957
     10  C5'       12.3550   26.6260    1.0670 C.ar  401  HC4401      0.0420
     11  C6'       11.4700   25.8400    1.8310 C.ar  401  HC4401      0.0033
     12  O4'       13.9970   26.7850   -0.7000 O.3   401  HC4401     -0.2866
@<TRIPOS>BOND
     1    12     9    1
     2     8     9   ar
     3     8     7   ar
     4     9    10   ar
     5     7     6   ar
     6    10    11   ar
     7     6    11   ar
     8     6     5    1
     9     5     4    2
    10     4     1    1
    11     2     1   ar
    12     1     3   ar
