@<TRIPOS>MOLECULE
4eyq_DHC_A_1.pdb
 13 13 0 0 0
SMALL
GASTEIGER

@<TRIPOS>ATOM
      1  C1        53.3170   53.8060   -4.5800 C.2   402  DHC402      0.3880
      2  O1        52.1720   54.0780   -4.1360 O.co2 402  DHC402     -0.2405
      3  C2        54.2150   52.8830   -3.8450 C.2   402  DHC402      0.0861
      4  C3        54.3170   52.9690   -2.5340 C.2   402  DHC402      0.0069
      5  C1'       55.2080   52.0700   -1.7560 C.ar  402  DHC402      0.0036
      6  C2'       55.9750   52.6580   -0.7680 C.ar  402  DHC402      0.0454
      7  C3'       56.8120   51.8760    0.0010 C.ar  402  DHC402      0.2343
      8  C4'       56.8850   50.4120   -0.2510 C.ar  402  DHC402      0.2343
      9  C5'       56.1170   49.8510   -1.2620 C.ar  402  DHC402      0.0454
     10  C6'       55.2810   50.6890   -2.0030 C.ar  402  DHC402      0.0035
     11  O4'       57.7090   49.6320    0.4980 O.3   402  DHC402     -0.2831
     12  O3'       57.5470   52.4770    0.9670 O.3   402  DHC402     -0.2831
     13  O2        53.7290   54.2980   -5.6510 O.co2 402  DHC402     -0.2405
@<TRIPOS>BOND
     1    13     1   ar
     2     1     2   ar
     3     1     3    1
     4     3     4    2
     5     4     5    1
     6    10     5   ar
     7    10     9   ar
     8     5     6   ar
     9     9     8   ar
    10     6     7   ar
    11     8     7   ar
    12     8    11    1
    13     7    12    1
