@<TRIPOS>MOLECULE
4eyq_ENO_A_1.pdb
 13 13 0 0 0
SMALL
GASTEIGER

@<TRIPOS>ATOM
      1  O4        55.6880   53.2600   -4.1680 O.2   401  ENO401     -0.2839
      2  C9        56.0300   52.9520   -0.5700 C.ar  401  ENO401     -0.0005
      3  C8        56.9460   52.2370    0.1820 C.ar  401  ENO401      0.0417
      4  C7        57.0740   50.8660   -0.0030 C.ar  401  ENO401      0.1957
      5  C6        56.3040   50.1850   -0.9450 C.ar  401  ENO401      0.0417
      6  C5        55.3810   50.9190   -1.6890 C.ar  401  ENO401     -0.0005
      7  C4        55.2460   52.2990   -1.5120 C.ar  401  ENO401     -0.0140
      8  O3        57.9880   50.2040    0.7480 O.3   401  ENO401     -0.2866
      9  C3        54.2200   53.0980   -2.3040 C.3   401  ENO401      0.1025
     10  C2        54.5690   53.4430   -3.7240 C.2   401  ENO401      0.2564
     11  C1        53.5150   54.0210   -4.5640 C.2   401  ENO401      0.4222
     12  O2        53.7590   54.2560   -5.7640 O.co2 401  ENO401     -0.2373
     13  O1        52.3810   54.2600   -4.0750 O.co2 401  ENO401     -0.2373
@<TRIPOS>BOND
     1    12    11   ar
     2    11    13   ar
     3    11    10    1
     4     1    10    2
     5    10     9    1
     6     9     7    1
     7     6     7   ar
     8     6     5   ar
     9     7     2   ar
    10     5     4   ar
    11     2     3   ar
    12     4     3   ar
    13     4     8    1
