@<TRIPOS>MOLECULE
4eyr_RIT_B_1.pdb
 50 53 0 0 0
SMALL
GASTEIGER

@<TRIPOS>ATOM
      1  C1        12.0480   -3.7360    4.9050 C.ar  301  RIT301      0.1053
      2  C2        12.0210   -3.7540    3.5250 C.ar  301  RIT301      0.0714
      3  S3        11.5240   -2.2750    2.7360 S.2   301  RIT301     -0.0652
      4  C4        11.3390   -1.7070    4.3820 C.ar  301  RIT301      0.1343
      5  N5        11.6750   -2.5490    5.3820 N.ar  301  RIT301     -0.2350
      6  C6        12.3650   -4.9210    2.6340 C.3   301  RIT301      0.2448
      7  O7        12.9190   -4.5380    1.3940 O.3   301  RIT301     -0.4279
      8  C10       14.0340   -5.3350    0.9260 C.2   301  RIT301      0.4215
      9  O24       14.7540   -5.8970    1.7290 O.2   301  RIT301     -0.2246
     10  N11       14.2240   -5.3970   -0.3830 N.am  301  RIT301     -0.1675
     11  C12       14.9390   -6.4640   -1.0590 C.3   301  RIT301      0.1333
     12  C13       16.4160   -6.5530   -0.6470 C.3   301  RIT301      0.1739
     13  C14       16.6970   -7.7880    0.2120 C.3   301  RIT301      0.0567
     14  C15       16.8340   -8.9850   -0.7200 C.3   301  RIT301      0.1023
     15  C26       14.7980   -6.2110   -2.5590 C.3   301  RIT301      0.0507
     16  C28       13.6290   -5.2830   -2.7530 C.ar  301  RIT301     -0.0204
     17  C31       12.4940   -5.7450   -3.4220 C.ar  301  RIT301     -0.0042
     18  C32       11.4090   -4.8870   -3.5660 C.ar  301  RIT301     -0.0003
     19  C33       11.4710   -3.5930   -3.0440 C.ar  301  RIT301     -0.0000
     20  C34       12.6040   -3.1420   -2.3680 C.ar  301  RIT301     -0.0003
     21  C35       13.6860   -3.9860   -2.2230 C.ar  301  RIT301     -0.0042
     22  O41       16.8460   -5.3600    0.0100 O.3   301  RIT301     -0.2212
     23  C44       17.6140  -10.1170   -0.0610 C.3   301  RIT301      0.0481
     24  C45       16.7200  -11.2050    0.4890 C.ar  301  RIT301     -0.0205
     25  C48       16.9590  -12.5310    0.1250 C.ar  301  RIT301     -0.0042
     26  C49       16.1580  -13.5600    0.6190 C.ar  301  RIT301     -0.0003
     27  C50       15.1140  -13.2540    1.4880 C.ar  301  RIT301     -0.0000
     28  C51       14.8720  -11.9360    1.8640 C.ar  301  RIT301     -0.0003
     29  C52       15.6760  -10.9110    1.3670 C.ar  301  RIT301     -0.0042
     30  N58       17.5390   -8.5080   -1.8870 N.am  301  RIT301     -0.2053
     31  N20       18.1520  -10.7720   -3.2820 N.am  301  RIT301     -0.1808
     32  C19       17.9020   -9.5140   -4.0150 C.3   301  RIT301      0.1742
     33  C18       17.0730   -8.6180   -3.1280 C.2   301  RIT301      0.2612
     34  O61       16.0670   -8.0220   -3.5080 O.2   301  RIT301     -0.2715
     35  C62       17.3700   -9.6400   -5.4780 C.3   301  RIT301      0.0290
     36  C64       16.1480   -8.7950   -5.8540 C.3   301  RIT301      0.0023
     37  C68       18.4150   -9.3410   -6.5570 C.3   301  RIT301      0.0023
     38  C21       19.3180  -11.3790   -2.9050 C.2   301  RIT301      0.3240
     39  N74       19.2510  -12.6160   -2.3690 N.am  301  RIT301     -0.2546
     40  C75       20.3760  -13.2790   -1.7010 C.3   301  RIT301      0.1504
     41  O76       20.4320  -10.8870   -3.0320 O.2   301  RIT301     -0.2507
     42  C77       20.6160  -12.9050   -0.2490 C.2   301  RIT301      0.1182
     43  C80       21.2250  -11.7300    0.1830 C.3   301  RIT301      0.1202
     44  S81       21.4170  -11.5520    1.9170 S.3   301  RIT301     -0.0795
     45  C82       20.6370  -13.1270    1.9790 C.2   301  RIT301      0.1335
     46  N83       20.2990  -13.6890    0.8010 N.2   301  RIT301     -0.4061
     47  C85       20.4570  -13.6550    3.3500 C.3   301  RIT301      0.0585
     48  C86       21.5840  -14.6280    3.6950 C.3   301  RIT301      0.0080
     49  C90       19.0860  -14.3120    3.4700 C.3   301  RIT301      0.0080
     50  C95       18.0580  -13.4600   -2.4460 C.3   301  RIT301      0.1169
@<TRIPOS>BOND
     1    37    35    1
     2    36    35    1
     3    35    32    1
     4    32    31    1
     5    32    33    1
     6    18    17   ar
     7    18    19   ar
     8    34    33    2
     9    17    16   ar
    10    31    38   am
    11    33    30   am
    12    19    20   ar
    13    41    38    2
    14    38    39   am
    15    16    15    1
    16    16    21   ar
    17    15    11    1
    18    50    39    1
    19    39    40    1
    20    20    21   ar
    21    30    14    1
    22    40    42    1
    23    11    12    1
    24    11    10    1
    25    14    23    1
    26    14    13    1
    27    12    22    1
    28    12    13    1
    29    10     8   am
    30    42    43    1
    31    42    46    2
    32    23    24    1
    33    25    24   ar
    34    25    26   ar
    35    43    44    1
    36    24    29   ar
    37    26    27   ar
    38    46    45    2
    39     8     7    1
    40     8     9    2
    41    29    28   ar
    42     7     6    1
    43    27    28   ar
    44    44    45    1
    45    45    47    1
    46     6     2    1
    47     3     2   ar
    48     3     4   ar
    49    47    49    1
    50    47    48    1
    51     2     1   ar
    52     4     5   ar
    53     1     5   ar
