@<TRIPOS>MOLECULE
4eys_AMP_A_1.pdb
 23 25 0 0 0
SMALL
GASTEIGER

@<TRIPOS>ATOM
      1  P         44.4130    3.7650   12.1880 P.3   401  AMP401      0.5327
      2  O1P       45.7980    4.4410   12.2050 O.3   401  AMP401     -0.1145
      3  O2P       43.4030    4.6380   11.4540 O.2   401  AMP401     -0.2224
      4  O3P       43.9910    3.3650   13.5580 O.3   401  AMP401     -0.1145
      5  O5'       44.5760    2.4740   11.2840 O.3   401  AMP401     -0.2675
      6  C5'       45.3670    1.4270   11.8230 C.3   401  AMP401      0.1860
      7  C4'       45.5890    0.4100   10.7350 C.3   401  AMP401      0.1823
      8  O4'       44.3190   -0.0120   10.2060 O.3   401  AMP401     -0.3135
      9  C3'       46.4160    1.0070    9.5680 C.3   401  AMP401      0.2184
     10  O3'       47.6020    0.2150    9.3050 O.3   401  AMP401     -0.2174
     11  C2'       45.3840    1.0390    8.4940 C.3   401  AMP401      0.2570
     12  O2'       45.9170    0.8650    7.1880 O.3   401  AMP401     -0.2130
     13  C1'       44.4420   -0.1080    8.8120 C.3   401  AMP401      0.3186
     14  N9        43.1400    0.0440    8.1800 N.pl3 401  AMP401     -0.1439
     15  C8        42.5490    1.1330    7.7280 C.3   401  AMP401      0.3377
     16  N7        41.2980    0.8680    7.2170 N.2   401  AMP401     -0.2095
     17  C5        41.1390   -0.4550    7.3560 C.2   401  AMP401      0.2526
     18  C6        40.1090   -1.4170    7.0040 C.2   401  AMP401      0.4393
     19  N6        38.9900   -1.0440    6.4250 N.pl3 401  AMP401      0.2180
     20  N1        40.3480   -2.6870    7.3910 N.2   401  AMP401      0.0021
     21  C2        41.4380   -3.1100    8.0120 C.3   401  AMP401      0.5254
     22  N3        42.4450   -2.2750    8.2970 N.2   401  AMP401     -0.0055
     23  C4        42.3170   -0.9850    8.0200 C.2   401  AMP401      0.3518
@<TRIPOS>BOND
     1    19    18    1
     2    18    17    1
     3    18    20    2
     4    12    11    1
     5    16    17    2
     6    16    15    1
     7    17    23    1
     8    20    21    1
     9    15    14    1
    10    21    22    1
    11    23    14    1
    12    23    22    2
    13    14    13    1
    14    11    13    1
    15    11     9    1
    16    13     8    1
    17    10     9    1
    18     9     7    1
    19     8     7    1
    20     7     6    1
    21     5     6    1
    22     5     1    1
    23     3     1    2
    24     1     2    1
    25     1     4    1
