@<TRIPOS>MOLECULE
4ez3_0S0_A_1.pdb
 20 21 0 0 0
SMALL
GASTEIGER

@<TRIPOS>ATOM
      1  O01       -1.6760   -4.0230   29.0480 O.2   301  0S0301     -0.2070
      2  C02       -0.8360   -4.2980   28.1940 C.1   301  0S0301      0.2345
      3  N03        0.0160   -3.3490   27.8250 N.2   301  0S0301     -0.2561
      4  C04        0.9850   -3.5700   26.8740 C.1   301  0S0301      0.2159
      5  O05        1.8320   -2.5690   26.5410 O.2   301  0S0301     -0.2085
      6  C06        1.0990   -4.8100   26.2480 C.2   301  0S0301      0.1097
      7  C07        0.2180   -5.8340   26.5870 C.2   301  0S0301      0.0472
      8  C08       -0.7710   -5.5850   27.5760 C.2   301  0S0301      0.1958
      9  N09       -1.6690   -6.6760   27.8850 N.2   301  0S0301     -0.1459
     10  N10       -2.5790   -6.6350   28.7020 N.pl3 301  0S0301     -0.1165
     11  C11       -3.6410   -7.6400   28.5730 C.ar  301  0S0301      0.0916
     12  C12       -3.5570   -8.5790   27.5180 C.ar  301  0S0301      0.0196
     13  C13       -4.5120   -9.5160   27.3980 C.ar  301  0S0301      0.0214
     14  C14       -5.5920   -9.5320   28.3280 C.ar  301  0S0301      0.1251
     15  S15       -6.8650  -10.7480   28.1750 S.O2  301  0S0301      0.0935
     16  O16       -6.4720  -11.8710   27.3680 O.2   301  0S0301     -0.1503
     17  N17       -7.3320  -11.2200   29.6360 N.3   301  0S0301      0.0392
     18  O18       -7.9450  -10.1570   27.3370 O.2   301  0S0301     -0.1503
     19  C19       -5.6820   -8.5970   29.3650 C.ar  301  0S0301      0.0214
     20  C20       -4.7140   -7.6510   29.4990 C.ar  301  0S0301      0.0196
@<TRIPOS>BOND
     1     6     7    2
     2     6     4    1
     3     5     4    2
     4     7     8    1
     5     4     3    2
     6    18    15    2
     7    16    15    2
     8    13    12   ar
     9    13    14   ar
    10    12    11   ar
    11     8     9    2
    12     8     2    1
    13     3     2    2
    14     9    10    1
    15    15    14    1
    16    15    17    1
    17     2     1    2
    18    14    19   ar
    19    11    10    1
    20    11    20   ar
    21    19    20   ar
