@<TRIPOS>MOLECULE
4ez5_0RS_A_1.pdb
 36 41 0 0 0
SMALL
GASTEIGER

@<TRIPOS>ATOM
      1  C1        41.1560   20.3810   17.2800 C.3   900  0RS900      0.0896
      2  C2        41.6200   21.8690   15.4620 C.3   900  0RS900      0.0896
      3  C3        39.3490   20.9040   15.7450 C.3   900  0RS900      0.0610
      4  O1        33.3950   26.1640    9.6520 O.2   900  0RS900     -0.2734
      5  C11       36.1570   22.6180   10.0100 C.2   900  0RS900      0.2292
      6  C12       34.9170   24.3260    9.6360 C.1   900  0RS900      0.1903
      7  C13       35.8010   23.1340   11.2820 C.1   900  0RS900      0.1821
      8  C14       34.1080   25.4330    8.9760 C.2   900  0RS900      0.2805
      9  C15       34.1850   25.6330    7.4990 C.ar  900  0RS900      0.0539
     10  C16       33.1390   26.2870    6.8280 C.ar  900  0RS900      0.0246
     11  C17       33.2480   26.4550    5.4430 C.ar  900  0RS900      0.0990
     12  C18       35.3040   25.3900    5.3320 C.ar  900  0RS900      0.0829
     13  C19       35.2800   25.2010    6.7190 C.ar  900  0RS900      0.0232
     14  C20       36.4310   24.9540    4.4830 C.ar  900  0RS900      0.0368
     15  C21       36.8560   25.8340    3.4560 C.ar  900  0RS900      0.1003
     16  C22       38.5250   24.4280    2.7500 C.ar  900  0RS900      0.0988
     17  C23       38.2080   23.4610    3.7200 C.ar  900  0RS900      0.0192
     18  C24       38.9340   22.2570    3.8020 C.ar  900  0RS900      0.0015
     19  C25       38.6020   21.3030    4.7860 C.ar  900  0RS900      0.0000
     20  C26       37.5490   21.5310    5.6910 C.ar  900  0RS900      0.0000
     21  C27       36.8240   22.7320    5.5900 C.ar  900  0RS900      0.0001
     22  C28       37.1380   23.7220    4.6130 C.ar  900  0RS900      0.0044
     23  N1        40.5880   21.3840   16.3830 N.3   900  0RS900     -0.2715
     24  C4        38.2970   22.0300   15.6330 C.3   900  0RS900      0.0375
     25  C5        37.0100   21.5330   14.9500 C.3   900  0RS900      0.0945
     26  N2        37.3580   21.0040   13.6330 N.pl3 900  0RS900     -0.2828
     27  C6        38.2170   19.8270   13.7520 C.3   900  0RS900      0.0945
     28  C7        39.5660   20.2000   14.3860 C.3   900  0RS900      0.0375
     29  C8        36.9640   21.5460   12.4530 C.2   900  0RS900      0.1961
     30  C9        37.3860   20.9460   11.2420 C.2   900  0RS900      0.0521
     31  C10       36.9810   21.4780   10.0020 C.2   900  0RS900      0.0496
     32  N3        35.6040   23.3670    8.9930 N.2   900  0RS900     -0.3244
     33  N4        35.0050   24.2260   10.9870 N.2   900  0RS900     -0.2691
     34  N5        36.1690   22.6470   12.5000 N.2   900  0RS900     -0.3219
     35  N6        34.3000   26.0250    4.7140 N.ar  900  0RS900     -0.2438
     36  N7        37.8730   25.5940    2.6090 N.ar  900  0RS900     -0.2423
@<TRIPOS>BOND
     1    36    16   ar
     2    36    15   ar
     3    16    17   ar
     4    15    14   ar
     5    17    18   ar
     6    17    22   ar
     7    18    19   ar
     8    14    22   ar
     9    14    12    1
    10    22    21   ar
    11    35    12   ar
    12    35    11   ar
    13    19    20   ar
    14    12    13   ar
    15    11    10   ar
    16    21    20   ar
    17    13     9   ar
    18    10     9   ar
    19     9     8    1
    20     8     6    1
    21     8     4    2
    22    32     6    2
    23    32     5    2
    24     6    33    2
    25    31     5    1
    26    31    30    2
    27     5     7    1
    28    33     7    2
    29    30    29    1
    30     7    34    2
    31    29    34    2
    32    29    26    1
    33    26    27    1
    34    26    25    1
    35    27    28    1
    36    28     3    1
    37    25    24    1
    38     2    23    1
    39    24     3    1
    40     3    23    1
    41    23     1    1
