@<TRIPOS>MOLECULE
4ez7_2AN_A_1.pdb
 21 23 0 0 0
SMALL
GASTEIGER

@<TRIPOS>ATOM
      1  C1         8.7690    3.9730  -25.7630 C.ar  302  2AN302      0.0717
      2  C2        10.1140    3.5320  -25.9380 C.ar  302  2AN302      0.0165
      3  C3        10.4020    2.1850  -26.2790 C.ar  302  2AN302      0.0013
      4  C4         9.3480    1.2740  -26.4460 C.ar  302  2AN302      0.0001
      5  C5         7.9650    1.7120  -26.2740 C.ar  302  2AN302      0.0025
      6  C6         6.9680    0.7540  -26.4460 C.ar  302  2AN302      0.0001
      7  C7         5.6290    1.1140  -26.2940 C.ar  302  2AN302      0.0013
      8  C8         5.2990    2.4220  -25.9640 C.ar  302  2AN302      0.0189
      9  N          8.5270    5.3640  -25.4290 N.pl3 302  2AN302     -0.2124
     10  S          5.7260    5.0270  -25.3880 S.3   302  2AN302      0.0421
     11  C9         6.2720    3.3890  -25.7790 C.ar  302  2AN302      0.1135
     12  C10        7.6620    3.0250  -25.9400 C.ar  302  2AN302      0.0329
     13  C11        9.6120    6.3320  -25.1810 C.ar  302  2AN302      0.0705
     14  C12        9.7940    6.8770  -23.9200 C.ar  302  2AN302      0.0165
     15  C13       10.8070    7.8090  -23.7040 C.ar  302  2AN302      0.0013
     16  C14       11.6540    8.2110  -24.7570 C.ar  302  2AN302      0.0001
     17  C15       11.4660    7.6740  -26.0220 C.ar  302  2AN302      0.0013
     18  C16       10.4560    6.7520  -26.2430 C.ar  302  2AN302      0.0165
     19  O1         6.1990    5.9620  -26.3810 O.3   302  2AN302     -0.0650
     20  O2         4.3040    5.1390  -25.5600 O.3   302  2AN302     -0.0650
     21  O3         6.1470    5.4490  -24.0150 O.3   302  2AN302     -0.0650
@<TRIPOS>BOND
     1     4     3   ar
     2     4     5   ar
     3     6     7   ar
     4     6     5   ar
     5    19    10    1
     6     7     8   ar
     7     3     2   ar
     8     5    12   ar
     9    18    17   ar
    10    18    13   ar
    11    17    16   ar
    12     8    11   ar
    13    12    11   ar
    14    12     1   ar
    15     2     1   ar
    16    11    10    1
    17     1     9    1
    18    20    10    1
    19     9    13    1
    20    10    21    1
    21    13    14   ar
    22    16    15   ar
    23    14    15   ar
