@<TRIPOS>MOLECULE
4ez7_STU_A_1.pdb
 35 42 0 0 0
SMALL
GASTEIGER

@<TRIPOS>ATOM
      1  O4        -1.0640   12.2670  -28.5900 O.3   301  STU301     -0.3186
      2  C25       -2.5040   11.9810  -28.6270 C.3   301  STU301      0.2078
      3  C24       -3.2330   12.0580  -27.2690 C.3   301  STU301      0.0739
      4  C23       -2.2280   12.4960  -26.2840 C.3   301  STU301      0.1086
      5  C22       -1.1520   11.4520  -26.2400 C.3   301  STU301      0.1761
      6  C21       -0.3450   11.5980  -27.5910 C.3   301  STU301      0.1915
      7  C26        0.7480   12.6140  -27.3490 C.3   301  STU301      0.0566
      8  N2         0.2100   10.2250  -28.0010 N.ar  301  STU301     -0.3054
      9  C18       -0.5360    9.4270  -28.8050 C.ar  301  STU301      0.0774
     10  C19       -1.7850    9.6320  -29.3830 C.ar  301  STU301      0.0783
     11  C6        -2.4190    8.6380  -30.2270 C.ar  301  STU301      0.0293
     12  C7        -1.6870    7.3640  -30.4630 C.ar  301  STU301      0.0822
     13  C10       -0.4400    7.1420  -29.8860 C.ar  301  STU301      0.0154
     14  C11        0.1700    8.1800  -29.0360 C.ar  301  STU301      0.0173
     15  C12        1.4520    8.2680  -28.2830 C.ar  301  STU301      0.0171
     16  C17        1.4690    9.5230  -27.6400 C.ar  301  STU301      0.0617
     17  C16        2.6230    9.8410  -26.8470 C.ar  301  STU301      0.0172
     18  C15        3.6830    8.9490  -26.7170 C.ar  301  STU301      0.0015
     19  C14        3.6450    7.7020  -27.3650 C.ar  301  STU301      0.0001
     20  C13        2.5120    7.3610  -28.1540 C.ar  301  STU301      0.0015
     21  C9        -0.0100    5.8280  -30.3050 C.3   301  STU301      0.1650
     22  N1        -0.9760    5.3020  -31.1030 N.2   301  STU301     -0.1976
     23  C8        -1.9950    6.1720  -31.2310 C.1   301  STU301      0.1501
     24  O5        -3.1330    5.9910  -31.9440 O.2   301  STU301     -0.2222
     25  C5        -3.7800    9.2260  -30.6750 C.ar  301  STU301      0.0180
     26  C20       -3.8960   10.5340  -30.0860 C.ar  301  STU301      0.0618
     27  C1        -5.0610   11.3300  -30.3250 C.ar  301  STU301      0.0172
     28  C2        -6.1160   10.8370  -31.1480 C.ar  301  STU301      0.0015
     29  C3        -6.0020    9.5390  -31.7360 C.ar  301  STU301      0.0001
     30  C4        -4.8340    8.7460  -31.4940 C.ar  301  STU301      0.0015
     31  N3        -2.6730   10.7200  -29.3110 N.ar  301  STU301     -0.3039
     32  O6        -1.7130   10.1630  -26.1780 O.3   301  STU301     -0.3478
     33  C27       -1.1270    9.1180  -25.4550 C.3   301  STU301      0.1743
     34  N4        -2.8660   12.7500  -24.9900 N.3   301  STU301     -0.2152
     35  C28       -3.2050   14.1580  -24.8390 C.3   301  STU301      0.1075
@<TRIPOS>BOND
     1    24    23    2
     2    29    30   ar
     3    29    28   ar
     4    30    25   ar
     5    23    22    2
     6    23    12    1
     7    28    27   ar
     8    22    21    1
     9    25    11   ar
    10    25    26   ar
    11    12    11   ar
    12    12    13   ar
    13    27    26   ar
    14    21    13    1
    15    11    10   ar
    16    26    31   ar
    17    13    14   ar
    18    10    31   ar
    19    10     9   ar
    20    31     2    1
    21    14     9   ar
    22    14    15   ar
    23     9     8   ar
    24     2     1    1
    25     2     3    1
    26     1     6    1
    27    15    20   ar
    28    15    16   ar
    29    20    19   ar
    30     8    16   ar
    31     8     6    1
    32    16    17   ar
    33     6     7    1
    34     6     5    1
    35    19    18   ar
    36     3     4    1
    37    17    18   ar
    38     4     5    1
    39     4    34    1
    40     5    32    1
    41    32    33    1
    42    34    35    1
