@<TRIPOS>MOLECULE
4ezc_SPL_A_1.pdb
 30 29 0 0 0
SMALL
GASTEIGER

@<TRIPOS>ATOM
      1  C1        24.4140   -5.3200   28.1940 C.3   407  SPL407      0.2065
      2  O1        23.2730   -4.5770   28.6620 O.3   407  SPL407     -0.2184
      3  C2        24.5150   -6.6830   28.9010 C.3   407  SPL407      0.1626
      4  N2        25.4120   -6.6940   30.0660 N.am  407  SPL407     -0.2015
      5  C3        24.9050   -7.7410   27.8540 C.3   407  SPL407      0.1961
      6  O3        24.1290   -8.8600   28.1880 O.3   407  SPL407     -0.2164
      7  C4        26.3070   -8.3080   27.8690 C.2   407  SPL407      0.0034
      8  C5        26.8610   -8.9950   26.8530 C.2   407  SPL407     -0.0282
      9  C6        26.2530   -9.3150   25.4960 C.3   407  SPL407      0.0258
     10  C7        26.7230   -8.2310   24.5260 C.3   407  SPL407      0.0047
     11  C8        27.0980   -8.7120   23.1230 C.3   407  SPL407      0.0003
     12  C9        27.5410   -7.5120   22.2850 C.3   407  SPL407      0.0000
     13  C10       28.9290   -7.6330   21.6510 C.3   407  SPL407      0.0000
     14  C11       28.9250   -7.0160   20.2520 C.3   407  SPL407      0.0000
     15  C12       30.3230   -6.6660   19.7360 C.3   407  SPL407      0.0000
     16  C13       30.2510   -5.6660   18.5740 C.3   407  SPL407      0.0000
     17  C14       31.5860   -5.5810   17.8430 C.3   407  SPL407      0.0000
     18  C15       31.8270   -4.2510   17.1220 C.3   407  SPL407      0.0000
     19  C16       33.2450   -4.2350   16.5430 C.3   407  SPL407      0.0000
     20  C17       33.7800   -2.8370   16.2550 C.3   407  SPL407      0.0000
     21  C18       35.1490   -2.5980   16.8670 C.3   407  SPL407      0.0000
     22  C19       25.7680   -5.6570   30.8650 C.2   407  SPL407      0.2415
     23  O19       25.1250   -4.6250   30.9820 O.2   407  SPL407     -0.2733
     24  C20       27.0350   -5.7810   31.7000 C.3   407  SPL407      0.0868
     25  C21       28.3060   -5.7280   30.8580 C.3   407  SPL407      0.0096
     26  C22       29.1980   -4.5470   31.2370 C.3   407  SPL407      0.0005
     27  C23       30.6730   -4.7990   30.9170 C.3   407  SPL407      0.0000
     28  C24       31.4080   -3.5130   30.5350 C.3   407  SPL407      0.0000
     29  C25       31.8790   -3.5380   29.0750 C.3   407  SPL407      0.0000
     30  C26       33.3120   -3.0610   28.8990 C.3   407  SPL407      0.0000
@<TRIPOS>BOND
     1    20    19    1
     2    20    21    1
     3    19    18    1
     4    18    17    1
     5    17    16    1
     6    16    15    1
     7    15    14    1
     8    14    13    1
     9    13    12    1
    10    12    11    1
    11    11    10    1
    12    10     9    1
    13     9     8    1
    14     8     7    2
    15     5     7    1
    16     5     6    1
    17     5     3    1
    18     1     2    1
    19     1     3    1
    20    30    29    1
    21     3     4    1
    22    29    28    1
    23     4    22   am
    24    28    27    1
    25    25    26    1
    26    25    24    1
    27    22    23    2
    28    22    24    1
    29    27    26    1
