@<TRIPOS>MOLECULE
4ezc_BGC_A_1.pdb
 12 12 0 0 0
SMALL
GASTEIGER

@<TRIPOS>ATOM
      1  C2        19.4640  -36.6750   45.0280 C.3   401  BGC401      0.2434
      2  C3        18.6510  -36.3470   43.7700 C.3   401  BGC401      0.2199
      3  C4        19.5290  -35.9050   42.6060 C.3   401  BGC401      0.2144
      4  C5        20.6680  -36.9080   42.4090 C.3   401  BGC401      0.1836
      5  C6        21.5460  -36.6080   41.2040 C.3   401  BGC401      0.2142
      6  C1        20.6990  -37.5250   44.6830 C.3   401  BGC401      0.3024
      7  O1        21.5220  -37.7410   45.8460 O.3   401  BGC401     -0.1869
      8  O2        18.6390  -37.3900   45.9650 O.3   401  BGC401     -0.2148
      9  O3        17.7260  -35.3030   44.0540 O.3   401  BGC401     -0.2174
     10  O4        18.6980  -35.7780   41.4470 O.3   401  BGC401     -0.2176
     11  O5        21.4420  -36.8960   43.6190 O.3   401  BGC401     -0.3236
     12  O6        22.8950  -37.0700   41.3840 O.3   401  BGC401     -0.2176
@<TRIPOS>BOND
     1     5    12    1
     2     5     4    1
     3    10     3    1
     4     4     3    1
     5     4    11    1
     6     3     2    1
     7    11     6    1
     8     2     9    1
     9     2     1    1
    10     6     1    1
    11     6     7    1
    12     1     8    1
