@<TRIPOS>MOLECULE
4ezd_SPL_A_1.pdb
 30 29 0 0 0
SMALL
GASTEIGER

@<TRIPOS>ATOM
      1  C1        33.0490    0.5340   35.6370 C.3   408  SPL408      0.2065
      2  O1        32.9920   -0.0640   34.3290 O.3   408  SPL408     -0.2184
      3  C2        33.8400    1.8500   35.6560 C.3   408  SPL408      0.1626
      4  N2        33.2470    2.9140   34.8490 N.am  408  SPL408     -0.2015
      5  C3        35.2970    1.5860   35.2570 C.3   408  SPL408      0.1961
      6  O3        35.9950    1.3650   36.4720 O.3   408  SPL408     -0.2164
      7  C4        36.0110    2.7280   34.5580 C.2   408  SPL408      0.0034
      8  C5        37.1880    2.6080   33.9190 C.2   408  SPL408     -0.0282
      9  C6        37.9760    1.3180   33.7960 C.3   408  SPL408      0.0258
     10  C7        38.1330    0.9590   32.3230 C.3   408  SPL408      0.0047
     11  C8        39.4530    0.2510   32.0160 C.3   408  SPL408      0.0003
     12  C9        39.2720   -0.7090   30.8350 C.3   408  SPL408      0.0000
     13  C10       39.9960   -0.3150   29.5430 C.3   408  SPL408      0.0000
     14  C11       40.5060   -1.5690   28.8250 C.3   408  SPL408      0.0000
     15  C12       40.7910   -1.3780   27.3360 C.3   408  SPL408      0.0000
     16  C13       40.6130   -2.6870   26.5650 C.3   408  SPL408      0.0000
     17  C14       41.3510   -2.6350   25.2310 C.3   408  SPL408      0.0000
     18  C15       40.5630   -3.2010   24.0440 C.3   408  SPL408      0.0000
     19  C16       41.2530   -2.8420   22.7220 C.3   408  SPL408      0.0000
     20  C17       40.4420   -3.2400   21.4890 C.3   408  SPL408      0.0000
     21  C18       39.8030   -2.0560   20.7910 C.3   408  SPL408      0.0000
     22  C19       31.9580    3.2930   34.7580 C.2   408  SPL408      0.2415
     23  O19       31.0200    2.7350   35.3140 O.2   408  SPL408     -0.2733
     24  C20       31.6790    4.5060   33.8860 C.3   408  SPL408      0.0868
     25  C21       32.0340    4.2380   32.4260 C.3   408  SPL408      0.0096
     26  C22       31.1770    5.0840   31.4950 C.3   408  SPL408      0.0005
     27  C23       31.9740    5.5170   30.2720 C.3   408  SPL408      0.0000
     28  C24       31.4810    4.8760   28.9810 C.3   408  SPL408      0.0000
     29  C25       32.6260    4.1420   28.2870 C.3   408  SPL408      0.0000
     30  C26       32.4810    4.1640   26.7780 C.3   408  SPL408      0.0000
@<TRIPOS>BOND
     1    21    20    1
     2    20    19    1
     3    19    18    1
     4    18    17    1
     5    17    16    1
     6    16    15    1
     7    30    29    1
     8    15    14    1
     9    29    28    1
    10    14    13    1
    11    28    27    1
    12    13    12    1
    13    27    26    1
    14    12    11    1
    15    26    25    1
    16    11    10    1
    17    10     9    1
    18    25    24    1
    19     9     8    1
    20    24    22    1
    21     8     7    2
    22     2     1    1
    23     7     5    1
    24    22     4   am
    25    22    23    2
    26     4     3    1
    27     5     3    1
    28     5     6    1
    29     1     3    1
