@<TRIPOS>MOLECULE
4ezd_BGC_A_1.pdb
 12 12 0 0 0
SMALL
GASTEIGER

@<TRIPOS>ATOM
      1  C2        20.2530  -36.4100   45.2890 C.3   403  BGC403      0.2434
      2  C3        19.2690  -36.1680   44.1360 C.3   403  BGC403      0.2199
      3  C4        19.9620  -35.7610   42.8340 C.3   403  BGC403      0.2144
      4  C5        21.0920  -36.7540   42.5550 C.3   403  BGC403      0.1836
      5  C6        21.7980  -36.5650   41.2150 C.3   403  BGC403      0.2142
      6  C1        21.5520  -37.1020   44.8540 C.3   403  BGC403      0.3024
      7  O1        22.5640  -36.9310   45.8590 O.3   403  BGC403     -0.1869
      8  O2        19.6160  -37.2420   46.2740 O.3   403  BGC403     -0.2148
      9  O3        18.3220  -35.1730   44.5330 O.3   403  BGC403     -0.2174
     10  O4        19.0130  -35.6980   41.7600 O.3   403  BGC403     -0.2176
     11  O5        22.0340  -36.5830   43.6110 O.3   403  BGC403     -0.3236
     12  O6        23.1880  -36.9160   41.3020 O.3   403  BGC403     -0.2176
@<TRIPOS>BOND
     1     5    12    1
     2     5     4    1
     3    10     3    1
     4     4     3    1
     5     4    11    1
     6     3     2    1
     7    11     6    1
     8     2     9    1
     9     2     1    1
    10     6     1    1
    11     6     7    1
    12     1     8    1
