@<TRIPOS>MOLECULE
4ezm_MAN_C_1.pdb
 11 11 0 0 0
SMALL
GASTEIGER

@<TRIPOS>ATOM
      1  C1       -22.1490   -9.2880   34.7450 C.3   606  MAN606      0.1777
      2  C2       -21.5840   -8.4710   33.5350 C.3   606  MAN606      0.2141
      3  C3       -20.2980   -9.0940   32.9620 C.3   606  MAN606      0.2173
      4  C4       -19.3810   -9.5910   34.1210 C.3   606  MAN606      0.2142
      5  C5       -20.1660  -10.7730   34.8140 C.3   606  MAN606      0.1810
      6  C6       -19.6550  -11.2860   36.1800 C.3   606  MAN606      0.2141
      7  O2       -21.2450   -7.1530   33.9910 O.3   606  MAN606     -0.2176
      8  O3       -19.6570   -8.2420   31.9720 O.3   606  MAN606     -0.2175
      9  O4       -18.0940   -9.9670   33.5650 O.3   606  MAN606     -0.2176
     10  O5       -21.6200  -10.6280   34.8780 O.3   606  MAN606     -0.3481
     11  O6       -19.9540  -12.6980   36.2770 O.3   606  MAN606     -0.2176
@<TRIPOS>BOND
     1     8     3    1
     2     3     2    1
     3     3     4    1
     4     2     7    1
     5     2     1    1
     6     9     4    1
     7     4     5    1
     8     1    10    1
     9     5    10    1
    10     5     6    1
    11     6    11    1
