@<TRIPOS>MOLECULE
4ezm_BMA_D_1.pdb
 11 11 0 0 0
SMALL
GASTEIGER

@<TRIPOS>ATOM
      1  C1       -33.9330   -0.8980   32.5820 C.3   603  BMA603      0.1777
      2  C2       -32.9480   -1.5300   33.5490 C.3   603  BMA603      0.2141
      3  C3       -33.2420   -1.0710   34.9620 C.3   603  BMA603      0.2173
      4  C4       -33.2720    0.4430   35.0100 C.3   603  BMA603      0.2142
      5  C5       -34.1740    1.0410   33.9500 C.3   603  BMA603      0.1810
      6  C6       -34.0810    2.5590   34.1230 C.3   603  BMA603      0.2141
      7  O2       -31.6520   -1.1090   33.2100 O.3   603  BMA603     -0.2176
      8  O3       -32.1350   -1.3950   35.7580 O.3   603  BMA603     -0.2175
      9  O4       -33.7590    0.8470   36.2660 O.3   603  BMA603     -0.2176
     10  O5       -33.8530    0.5110   32.6770 O.3   603  BMA603     -0.3481
     11  O6       -34.1740    3.2970   32.9200 O.3   603  BMA603     -0.2176
@<TRIPOS>BOND
     1     1    10    1
     2     1     2    1
     3    10     5    1
     4    11     6    1
     5     7     2    1
     6     2     3    1
     7     5     6    1
     8     5     4    1
     9     3     4    1
    10     3     8    1
    11     4     9    1
