@<TRIPOS>MOLECULE
4f04_UTP_B_1.pdb
 29 30 0 0 0
SMALL
GASTEIGER

@<TRIPOS>ATOM
      1  PA         6.9200   78.7230   32.5790 P.3   202  UTP202      0.2189
      2  O1A        5.8410   79.7320   32.6970 O.3   202  UTP202     -0.4371
      3  O2A        7.9970   79.2870   31.7490 O.2   202  UTP202     -0.5170
      4  O3A        6.3470   77.4370   31.9110 O.3   202  UTP202     -0.2700
      5  O5'        7.4790   78.4210   34.0090 O.3   202  UTP202     -0.3112
      6  PB         5.2340   76.5840   32.5750 P.3   202  UTP202      0.2277
      7  O1B        3.9440   77.4220   32.7230 O.2   202  UTP202     -0.5168
      8  O2B        5.7020   76.1590   33.9280 O.3   202  UTP202     -0.4368
      9  O3B        4.9090   75.3300   31.6970 O.3   202  UTP202     -0.2258
     10  PG         5.9760   74.1670   31.3870 P.3   202  UTP202      0.5373
     11  O1G        7.3500   74.7520   31.3820 O.3   202  UTP202     -0.1143
     12  O2G        5.8850   73.0720   32.4270 O.3   202  UTP202     -0.1143
     13  O3G        5.6830   73.5470   29.9940 O.2   202  UTP202     -0.2221
     14  C5'        8.6640   77.6420   34.1900 C.3   202  UTP202      0.1813
     15  C4'        9.4870   77.8460   35.4190 C.3   202  UTP202      0.1799
     16  O4'       10.7510   78.3330   35.0780 O.3   202  UTP202     -0.3320
     17  C1'       11.0230   79.3630   35.9720 C.3   202  UTP202      0.2401
     18  C2'        9.6940   79.9680   36.2360 C.3   202  UTP202      0.2319
     19  O2'        9.7060   80.6940   37.4580 O.3   202  UTP202     -0.2157
     20  C3'        8.8770   78.8400   36.3470 C.3   202  UTP202      0.2158
     21  O3'        8.9280   78.3690   37.6600 O.3   202  UTP202     -0.2175
     22  N1        12.1530   80.2470   35.5530 N.am  202  UTP202     -0.1766
     23  C6        12.9010   80.7800   36.5270 C.2   202  UTP202      0.0929
     24  C2        12.4730   80.5390   34.2040 C.1   202  UTP202      0.2845
     25  O2        11.8150   80.0720   33.2440 O.2   202  UTP202     -0.1918
     26  N3        13.5120   81.3450   33.9340 N.2   202  UTP202     -0.2452
     27  C4        14.2720   81.8890   34.8980 C.1   202  UTP202      0.2182
     28  O4        15.2360   82.6370   34.6090 O.2   202  UTP202     -0.2085
     29  C5        13.9760   81.6120   36.2300 C.2   202  UTP202      0.1242
@<TRIPOS>BOND
     1    13    10    2
     2    11    10    1
     3    10     9    1
     4    10    12    1
     5     9     6    1
     6     3     1    2
     7     4     6    1
     8     4     1    1
     9     6     7    2
    10     6     8    1
    11     1     2    1
    12     1     5    1
    13    25    24    2
    14    26    24    2
    15    26    27    2
    16     5    14    1
    17    14    15    1
    18    24    22   am
    19    28    27    2
    20    27    29    1
    21    16    15    1
    22    16    17    1
    23    15    20    1
    24    22    17    1
    25    22    23    1
    26    17    18    1
    27    29    23    2
    28    18    20    1
    29    18    19    1
    30    20    21    1
