@<TRIPOS>MOLECULE
4f04_PAL_A_1.pdb
 16 15 0 0 0
SMALL
GASTEIGER

@<TRIPOS>ATOM
      1  P         45.6230   29.1190   15.8040 P.3   401  PAL401      0.1264
      2  O1P       45.5170   29.7870   17.1500 O.3   401  PAL401     -0.3568
      3  O2P       46.6700   27.9540   15.8180 O.3   401  PAL401     -0.3568
      4  O3P       45.9870   30.1880   14.7060 O.2   401  PAL401     -0.4596
      5  C1P       43.9980   28.4170   15.3490 C.3   401  PAL401      0.1454
      6  C1        42.9250   29.3770   15.7300 C.2   401  PAL401      0.2492
      7  O1        42.7320   30.4240   15.0960 O.2   401  PAL401     -0.2728
      8  N2        42.1300   29.0390   16.8670 N.am  401  PAL401     -0.1946
      9  C2        41.0280   29.8150   17.3610 C.3   401  PAL401      0.2090
     10  C4        41.3140   31.2010   17.8650 C.2   401  PAL401      0.3848
     11  O2        40.3420   31.8930   18.2750 O.co2 401  PAL401     -0.2437
     12  O3        42.4850   31.6790   17.9130 O.co2 401  PAL401     -0.2437
     13  C3        40.3430   28.9990   18.4120 C.3   401  PAL401      0.1472
     14  C5        41.1060   28.7360   19.6730 C.2   401  PAL401      0.3672
     15  O4        42.1390   29.4030   20.0150 O.co2 401  PAL401     -0.2456
     16  O5        40.6530   27.8210   20.4200 O.co2 401  PAL401     -0.2456
@<TRIPOS>BOND
     1     4     1    2
     2     7     6    2
     3     5     6    1
     4     5     1    1
     5     6     8   am
     6     1     3    1
     7     1     2    1
     8     8     9    1
     9     9    10    1
    10     9    13    1
    11    10    12   ar
    12    10    11   ar
    13    13    14    1
    14    14    15   ar
    15    14    16   ar
