@<TRIPOS>MOLECULE
4f06_PHB_A_1.pdb
 10 10 0 0 0
SMALL
GASTEIGER

@<TRIPOS>ATOM
      1  C1'        9.1490   21.9200   11.9060 C.2   401  PHB401      0.3878
      2  O1'        7.9310   22.1330   11.9780 O.co2 401  PHB401     -0.2406
      3  O2'        9.7540   21.7450   10.7930 O.co2 401  PHB401     -0.2406
      4  C1         9.9370   21.9310   13.1780 C.ar  401  PHB401      0.0800
      5  C2         9.4710   22.6520   14.2940 C.ar  401  PHB401      0.0099
      6  C3        10.2170   22.7060   15.4470 C.ar  401  PHB401      0.0422
      7  C4        11.4470   22.0860   15.5130 C.ar  401  PHB401      0.1958
      8  C5        11.9250   21.3820   14.4270 C.ar  401  PHB401      0.0422
      9  C6        11.1920   21.3060   13.2490 C.ar  401  PHB401      0.0099
     10  O4        12.2370   22.1520   16.6030 O.3   401  PHB401     -0.2866
@<TRIPOS>BOND
     1     3     1   ar
     2     1     2   ar
     3     1     4    1
     4     4     9   ar
     5     4     5   ar
     6     9     8   ar
     7     5     6   ar
     8     8     7   ar
     9     6     7   ar
    10     7    10    1
