@<TRIPOS>MOLECULE
4f08_JAK_A_1.pdb
 18 21 0 0 0
SMALL
GASTEIGER

@<TRIPOS>ATOM
      1  C2        10.3890  -53.7910  -23.2710 C.3   1201  JAK1201     0.2196
      2  N3        11.0980  -53.0440  -24.0350 N.2   1201  JAK1201    -0.2491
      3  C4        11.2200  -51.8420  -23.4720 C.2   1201  JAK1201     0.0950
      4  C5        11.8720  -50.6940  -23.8730 C.3   1201  JAK1201     0.1825
      5  N6        11.8450  -49.6350  -23.1330 N.2   1201  JAK1201    -0.2134
      6  C7        11.2050  -49.5860  -21.9890 C.1   1201  JAK1201     0.0325
      7  C8        10.5180  -50.6970  -21.5090 C.2   1201  JAK1201     0.0782
      8  C9        10.5210  -51.8670  -22.2650 C.2   1201  JAK1201     0.0740
      9  N10       10.0020  -53.1230  -22.1720 N.pl3 1201  JAK1201    -0.2873
     10  C11        9.1960  -53.7450  -21.1370 C.3   1201  JAK1201     0.0775
     11  C12        7.7160  -53.4350  -21.1330 C.3   1201  JAK1201     0.0386
     12  C13        7.0830  -54.5680  -20.3380 C.3   1201  JAK1201     0.0904
     13  N14        7.6480  -54.6270  -18.9930 N.3   1201  JAK1201    -0.2179
     14  C15        9.0910  -54.8460  -18.9870 C.3   1201  JAK1201     0.0904
     15  C16        9.7580  -53.7040  -19.7330 C.3   1201  JAK1201     0.0386
     16  C17        9.9440  -50.2830  -20.2420 C.2   1201  JAK1201     0.0327
     17  C18       10.2970  -49.0140  -20.0490 C.2   1201  JAK1201     0.1103
     18  N19       11.0550  -48.5850  -21.0830 N.2   1201  JAK1201    -0.1925
@<TRIPOS>BOND
     1     2     3    2
     2     2     1    1
     3     4     3    1
     4     4     5    1
     5     3     8    1
     6     1     9    1
     7     5     6    2
     8     8     9    1
     9     8     7    2
    10     9    10    1
    11     6     7    1
    12     6    18    2
    13     7    16    1
    14    10    11    1
    15    10    15    1
    16    11    12    1
    17    18    17    1
    18    12    13    1
    19    16    17    2
    20    15    14    1
    21    13    14    1
