@<TRIPOS>MOLECULE
4f09_JAK_A_1.pdb
 19 22 0 0 0
SMALL
GASTEIGER

@<TRIPOS>ATOM
      1  C1        16.9310    6.3180   12.4400 C.3   1201  JAK1201     0.0840
      2  C2        16.5970    7.7520   12.3140 C.2   1201  JAK1201     0.1639
      3  N3        17.3130    8.7240   12.7670 N.2   1201  JAK1201    -0.3922
      4  C4        16.6240    9.8760   12.4470 C.2   1201  JAK1201     0.1497
      5  C5        16.8930   11.2010   12.7470 C.3   1201  JAK1201     0.1961
      6  N6        16.0460   12.1710   12.4260 N.2   1201  JAK1201    -0.2122
      7  C7        14.9230   11.8220   11.7920 C.1   1201  JAK1201     0.0326
      8  C8        14.5740   10.5280   11.4280 C.2   1201  JAK1201     0.0796
      9  C9        15.4800    9.5240   11.7850 C.2   1201  JAK1201     0.0903
     10  N10       15.5130    8.1500   11.7260 N.pl3 1201  JAK1201    -0.2653
     11  C11       14.5060    7.2170   11.2180 C.3   1201  JAK1201     0.0822
     12  C12       14.2750    7.3290    9.7390 C.3   1201  JAK1201     0.0390
     13  C13       13.4050    6.1810    9.3550 C.3   1201  JAK1201     0.0904
     14  N14       12.1350    6.0630   10.0260 N.3   1201  JAK1201    -0.2179
     15  C15       12.2390    6.2550   11.4640 C.3   1201  JAK1201     0.0904
     16  C16       13.2000    7.2910   11.9730 C.3   1201  JAK1201     0.0390
     17  C17       13.3080   10.6300   10.7680 C.2   1201  JAK1201     0.0328
     18  C18       12.9640   11.9260   10.7780 C.2   1201  JAK1201     0.1103
     19  N19       13.9200   12.6500   11.3990 N.2   1201  JAK1201    -0.1925
@<TRIPOS>BOND
     1    13    12    1
     2    13    14    1
     3    12    11    1
     4    14    15    1
     5    17    18    2
     6    17     8    1
     7    18    19    1
     8    11    10    1
     9    11    16    1
    10    19     7    2
    11     8     9    2
    12     8     7    1
    13    15    16    1
    14    10     9    1
    15    10     2    1
    16     9     4    1
    17     7     6    2
    18     2     1    1
    19     2     3    2
    20     6     5    1
    21     4     5    1
    22     4     3    2
