@<TRIPOS>MOLECULE
4f0a_FUC_B_1.pdb
 10 10 0 0 0
SMALL
GASTEIGER

@<TRIPOS>ATOM
      1  C1       -79.1260    8.8100   18.9700 C.3   408  FUC408      0.1776
      2  C2       -78.2280   10.0420   18.9030 C.3   408  FUC408      0.2141
      3  C3       -76.7650    9.6580   18.7610 C.3   408  FUC408      0.2172
      4  C4       -76.5740    8.6310   17.6610 C.3   408  FUC408      0.2116
      5  C5       -77.5640    7.4960   17.8660 C.3   408  FUC408      0.1483
      6  C6       -77.3560    6.3740   16.8450 C.3   408  FUC408      0.0349
      7  O2       -78.4580   10.8570   20.0200 O.3   408  FUC408     -0.2176
      8  O3       -75.9910   10.7950   18.4550 O.3   408  FUC408     -0.2175
      9  O4       -76.8150    9.2450   16.4200 O.3   408  FUC408     -0.2177
     10  O5       -78.8810    7.9920   17.8560 O.3   408  FUC408     -0.3508
@<TRIPOS>BOND
     1     9     4    1
     2     6     5    1
     3     4     5    1
     4     4     3    1
     5    10     5    1
     6    10     1    1
     7     8     3    1
     8     3     2    1
     9     2     1    1
    10     2     7    1
