@<TRIPOS>MOLECULE
4f0d_3AB_A_1.pdb
 10 10 0 0 0
SMALL
GASTEIGER

@<TRIPOS>ATOM
      1  N3        24.9840   42.0620   -5.4670 N.pl3 301  3AB301     -0.1281
      2  C3        23.7030   41.7460   -5.0800 C.ar  301  3AB301      0.0892
      3  C2        23.3980   41.8030   -3.6980 C.ar  301  3AB301      0.0227
      4  C4        22.6240   41.3760   -5.9630 C.ar  301  3AB301      0.0181
      5  C5        21.3800   41.1030   -5.3540 C.ar  301  3AB301      0.0015
      6  C6        21.1410   41.1560   -3.9410 C.ar  301  3AB301      0.0047
      7  C1        22.1390   41.5180   -3.0950 C.ar  301  3AB301      0.0580
      8  C1'       21.9370   41.6060   -1.5180 C.2   301  3AB301      0.2842
      9  O1'       21.0910   40.9730   -0.9650 O.2   301  3AB301     -0.2667
     10  N1'       22.7840   42.3460   -0.7990 N.am  301  3AB301     -0.0837
@<TRIPOS>BOND
     1     4     5   ar
     2     4     2   ar
     3     1     2    1
     4     5     6   ar
     5     2     3   ar
     6     6     7   ar
     7     3     7   ar
     8     7     8    1
     9     8     9    2
    10     8    10   am
