@<TRIPOS>MOLECULE
4f0e_0RU_A_1.pdb
 20 22 0 0 0
SMALL
GASTEIGER

@<TRIPOS>ATOM
      1  NAJ       12.4900    2.6160  -35.6340 N.2   701  0RU701     -0.2099
      2  CAE       11.7200    3.7380  -35.6180 C.3   701  0RU701      0.1645
      3  CAC       10.5130    3.7620  -36.3340 C.2   701  0RU701      0.0223
      4  CAF       10.1310    2.6250  -37.0520 C.2   701  0RU701      0.1075
      5  NAK       10.9360    1.5350  -37.0380 N.2   701  0RU701     -0.1875
      6  CAQ       12.0860    1.5540  -36.3410 C.1   701  0RU701      0.0610
      7  SAN       13.1000    0.0900  -36.3530 S.3   701  0RU701     -0.0242
      8  CAI       12.1040   -1.2320  -35.6760 C.3   701  0RU701      0.1973
      9  CAP       12.2950   -1.5690  -34.2440 C.1   701  0RU701      0.1380
     10  NAL       13.5540   -1.7560  -33.7880 N.2   701  0RU701     -0.3416
     11  CAT       13.7780   -2.0710  -32.4650 C.2   701  0RU701      0.1508
     12  CAO       15.1030   -2.2740  -31.9580 C.2   701  0RU701      0.0055
     13  CAA       16.2760   -2.1490  -32.8510 C.3   701  0RU701      0.0334
     14  CAG       15.2930   -2.5870  -30.6300 C.2   701  0RU701     -0.0231
     15  CAD       14.1950   -2.7070  -29.7830 C.3   701  0RU701      0.0526
     16  CAH       12.9020   -2.5110  -30.2720 C.2   701  0RU701     -0.0062
     17  CAS       12.7050   -2.1900  -31.6280 C.2   701  0RU701      0.1215
     18  CAR       11.3690   -1.9840  -32.1480 C.1   701  0RU701      0.2162
     19  OAB       10.2620   -2.0990  -31.3120 O.2   701  0RU701     -0.2085
     20  NAM       11.2200   -1.6800  -33.4450 N.2   701  0RU701     -0.2697
@<TRIPOS>BOND
     1     4     5    1
     2     4     3    2
     3     5     6    2
     4     7     6    1
     5     7     8    1
     6     6     1    2
     7     3     2    1
     8     8     9    1
     9     1     2    1
    10     9    10    2
    11     9    20    2
    12    10    11    2
    13    20    18    2
    14    13    12    1
    15    11    12    1
    16    11    17    1
    17    18    17    1
    18    18    19    2
    19    12    14    2
    20    17    16    2
    21    14    15    1
    22    16    15    1
