@<TRIPOS>MOLECULE
4f0f_ACP_A_1.pdb
 31 33 0 0 0
SMALL
GASTEIGER

@<TRIPOS>ATOM
      1  PG       -10.2790   26.0460  -20.7470 P.3   1301  ACP1301     0.1295
      2  O1G      -10.7320   25.8520  -22.1550 O.2   1301  ACP1301    -0.4595
      3  O2G      -11.2370   27.1090  -19.9260 O.3   1301  ACP1301    -0.3567
      4  O3G       -8.7640   26.6780  -20.6910 O.3   1301  ACP1301    -0.3567
      5  PB        -8.8110   24.4440  -18.5870 P.3   1301  ACP1301     0.3815
      6  O1B       -7.6420   25.0490  -19.2920 O.2   1301  ACP1301    -0.2547
      7  O2B       -9.2460   24.9600  -17.2660 O.3   1301  ACP1301    -0.1391
      8  C3B      -10.2230   24.4960  -19.7490 C.3   1301  ACP1301     0.1768
      9  PA        -7.8600   22.0700  -17.0310 P.3   1301  ACP1301     0.2209
     10  O1A       -8.6840   20.9060  -16.5810 O.2   1301  ACP1301    -0.5170
     11  O2A       -7.4810   23.1060  -16.0400 O.3   1301  ACP1301    -0.4371
     12  O3A       -8.5330   22.8040  -18.3940 O.3   1301  ACP1301    -0.2483
     13  O5'       -6.4770   21.4360  -17.6060 O.3   1301  ACP1301    -0.3111
     14  C5'       -5.1390   22.0370  -17.5730 C.3   1301  ACP1301     0.1813
     15  C4'       -4.2040   21.1640  -18.4270 C.3   1301  ACP1301     0.1821
     16  O4'       -4.0140   19.9680  -17.6500 O.3   1301  ACP1301    -0.3135
     17  C3'       -5.0450   20.7400  -19.6400 C.3   1301  ACP1301     0.2184
     18  O3'       -4.7090   21.5760  -20.7600 O.3   1301  ACP1301    -0.2174
     19  C2'       -4.6540   19.2750  -19.8720 C.3   1301  ACP1301     0.2570
     20  O2'       -3.4230   19.1910  -20.6100 O.3   1301  ACP1301    -0.2130
     21  C1'       -4.3150   18.7970  -18.4650 C.3   1301  ACP1301     0.3186
     22  N9        -5.3900   18.0160  -17.7770 N.pl3 1301  ACP1301    -0.1439
     23  C8        -6.3320   18.4360  -16.9040 C.3   1301  ACP1301     0.3377
     24  N7        -7.0050   17.3350  -16.5200 N.2   1301  ACP1301    -0.2095
     25  C5        -6.5160   16.2790  -17.1760 C.2   1301  ACP1301     0.2526
     26  C6        -6.7860   14.8970  -17.2090 C.2   1301  ACP1301     0.4393
     27  N6        -7.7530   14.3550  -16.4800 N.pl3 1301  ACP1301     0.2180
     28  N1        -6.0450   14.0960  -18.0060 N.2   1301  ACP1301     0.0021
     29  C2        -5.0070   14.5820  -18.7290 C.3   1301  ACP1301     0.5254
     30  N3        -4.6890   15.8790  -18.7240 N.2   1301  ACP1301    -0.0055
     31  C4        -5.4430   16.7210  -17.9380 C.2   1301  ACP1301     0.3518
@<TRIPOS>BOND
     1     2     1    2
     2    18    17    1
     3     1     4    1
     4     1     3    1
     5     1     8    1
     6    20    19    1
     7    19    17    1
     8    19    21    1
     9     8     5    1
    10    17    15    1
    11     6     5    2
    12    29    30    1
    13    29    28    1
    14    30    31    2
    15     5    12    1
    16     5     7    1
    17    21    22    1
    18    21    16    1
    19    15    16    1
    20    15    14    1
    21    12     9    1
    22    28    26    2
    23    31    22    1
    24    31    25    1
    25    22    23    1
    26    13    14    1
    27    13     9    1
    28    26    25    1
    29    26    27    1
    30    25    24    2
    31     9    10    2
    32     9    11    1
    33    23    24    1
