@<TRIPOS>MOLECULE
4f0r_MTA_A_1.pdb
 20 22 0 0 0
SMALL
GASTEIGER

@<TRIPOS>ATOM
      1  CS        -0.1880   24.4300   17.3800 C.3   503  MTA503      0.0693
      2  S5'        0.7530   22.9920   17.0560 S.3   503  MTA503     -0.1367
      3  C5'        0.3800   21.8800   18.3960 C.3   503  MTA503      0.0899
      4  C4'        1.0370   22.3710   19.6710 C.3   503  MTA503      0.1630
      5  O4'        0.3060   21.8730   20.8430 O.3   503  MTA503     -0.3153
      6  C2'        2.1050   20.4220   20.3570 C.3   503  MTA503      0.2569
      7  O2'        3.2470   19.8160   20.9220 O.3   503  MTA503     -0.2130
      8  C3'        2.4230   21.7610   19.7390 C.3   503  MTA503      0.2168
      9  O3'        3.2200   22.5200   20.6630 O.3   503  MTA503     -0.2175
     10  C1'        1.0500   20.7760   21.4020 C.3   503  MTA503      0.3185
     11  N9         0.1500   19.6400   21.6610 N.pl3 503  MTA503     -0.1439
     12  C8        -0.7000   19.0570   20.7680 C.3   503  MTA503      0.3377
     13  N7        -1.4170   18.0540   21.3750 N.2   503  MTA503     -0.2095
     14  C5        -1.0070   17.9920   22.6630 C.2   503  MTA503      0.2526
     15  C6        -1.3360   17.1620   23.8590 C.2   503  MTA503      0.4393
     16  N6        -2.2630   16.1840   23.7970 N.pl3 503  MTA503      0.2180
     17  N1        -0.6830   17.4320   25.0190 N.2   503  MTA503      0.0021
     18  C2         0.2460   18.4060   25.1160 C.3   503  MTA503      0.5254
     19  N3         0.5670   19.2220   24.0880 N.2   503  MTA503     -0.0055
     20  C4        -0.0120   19.0540   22.8550 C.2   503  MTA503      0.3518
@<TRIPOS>BOND
     1     2     1    1
     2     2     3    1
     3     3     4    1
     4     4     8    1
     5     4     5    1
     6     8     6    1
     7     8     9    1
     8     6     7    1
     9     6    10    1
    10    12    13    1
    11    12    11    1
    12     5    10    1
    13    13    14    2
    14    10    11    1
    15    11    20    1
    16    14    20    1
    17    14    15    1
    18    20    19    2
    19    16    15    1
    20    15    17    2
    21    19    18    1
    22    17    18    1
