@<TRIPOS>MOLECULE
4f0s_NOS_A_1.pdb
 19 21 0 0 0
SMALL
GASTEIGER

@<TRIPOS>ATOM
      1  N9        -2.1230  -20.0920   16.3560 N.pl3 501  NOS501     -0.1435
      2  C4        -1.3010  -19.1890   15.6780 C.2   501  NOS501      0.3528
      3  N3        -0.0590  -18.7250   15.8910 N.2   501  NOS501     -0.0334
      4  C2         0.4800  -17.8640   15.0900 C.3   501  NOS501      0.4017
      5  N1        -0.1550  -17.4210   14.0240 N.2   501  NOS501     -0.1458
      6  C6        -1.4160  -17.8170   13.6980 C.1   501  NOS501      0.1792
      7  O6        -2.0690  -17.3240   12.5660 O.2   501  NOS501     -0.2203
      8  C5        -2.0600  -18.7360   14.5460 C.2   501  NOS501      0.2446
      9  N7        -3.2860  -19.3890   14.5850 N.2   501  NOS501     -0.2054
     10  C8        -3.2920  -20.1990   15.7010 C.3   501  NOS501      0.3382
     11  C5'       -0.5400  -24.0920   17.3850 C.3   501  NOS501      0.2143
     12  O5'        0.7320  -24.2000   16.7560 O.3   501  NOS501     -0.2176
     13  C4'       -0.6760  -22.8040   18.1650 C.3   501  NOS501      0.1851
     14  O4'       -0.6640  -21.6750   17.2410 O.3   501  NOS501     -0.3134
     15  C1'       -1.7250  -20.7990   17.5710 C.3   501  NOS501      0.3186
     16  C2'       -2.8060  -21.7020   18.1410 C.3   501  NOS501      0.2570
     17  O2'       -3.7710  -20.9730   18.8710 O.3   501  NOS501     -0.2130
     18  C3'       -1.9720  -22.6730   18.9770 C.3   501  NOS501      0.2186
     19  O3'       -1.6820  -22.0840   20.2450 O.3   501  NOS501     -0.2174
@<TRIPOS>BOND
     1     7     6    2
     2     6     5    2
     3     6     8    1
     4     5     4    1
     5     8     9    2
     6     8     2    1
     7     9    10    1
     8     4     3    1
     9     2     3    2
    10     2     1    1
    11    10     1    1
    12     1    15    1
    13    12    11    1
    14    14    15    1
    15    14    13    1
    16    11    13    1
    17    15    16    1
    18    16    17    1
    19    16    18    1
    20    13    18    1
    21    18    19    1
