@<TRIPOS>MOLECULE
4f10_LGU_A_1.pdb
 12 12 0 0 0
SMALL
GASTEIGER

@<TRIPOS>ATOM
      1  C1       -10.0920  -14.1340   43.6330 C.3   402  LGU402      0.1783
      2  C2       -11.2570  -14.8660   44.3030 C.3   402  LGU402      0.2141
      3  O2       -10.7130  -16.0130   44.9160 O.3   402  LGU402     -0.2176
      4  C3       -11.8710  -13.9700   45.3870 C.3   402  LGU402      0.2178
      5  O3       -10.9170  -13.7810   46.4540 O.3   402  LGU402     -0.2175
      6  C4       -12.3710  -12.6710   44.7380 C.3   402  LGU402      0.2227
      7  O4       -13.3880  -13.0180   43.7680 O.3   402  LGU402     -0.2171
      8  C5       -11.1590  -12.0600   44.0220 C.3   402  LGU402      0.2512
      9  O5       -10.5760  -12.9310   43.0540 O.3   402  LGU402     -0.3403
     10  C6       -11.6060  -10.8320   43.2710 C.2   402  LGU402      0.3940
     11  O6A      -11.5850   -9.7350   43.7870 O.co2 402  LGU402     -0.2429
     12  O6B      -11.9350  -10.9830   42.1080 O.co2 402  LGU402     -0.2429
@<TRIPOS>BOND
     1    12    10   ar
     2     9     1    1
     3     9     8    1
     4    10    11   ar
     5    10     8    1
     6     1     2    1
     7     7     6    1
     8     8     6    1
     9     2     3    1
    10     2     4    1
    11     6     4    1
    12     4     5    1
