@<TRIPOS>MOLECULE
4f10_MAW_A_1.pdb
 11 11 0 0 0
SMALL
GASTEIGER

@<TRIPOS>ATOM
      1  C1       -14.5390  -12.1640   44.1120 C.3   401  MAW401      0.2413
      2  C2       -15.7650  -12.3470   43.1910 C.3   401  MAW401      0.2297
      3  O2       -16.3150  -13.6410   43.4290 O.3   401  MAW401     -0.2160
      4  C3       -16.7680  -11.2630   43.5910 C.3   401  MAW401      0.2111
      5  O3       -17.9840  -11.4400   42.8550 O.3   401  MAW401     -0.2153
      6  C4       -17.1300  -11.2900   44.9440 C.2   401  MAW401      0.0526
      7  C5       -16.2490  -11.7450   45.9150 C.2   401  MAW401      0.2164
      8  O5       -14.9530  -12.1900   45.5740 O.2   401  MAW401     -0.4664
      9  C6       -16.6170  -11.7010   47.2630 C.2   401  MAW401      0.4208
     10  O6A      -15.8750  -12.0900   48.1920 O.co2 401  MAW401     -0.2371
     11  O6B      -17.7650  -11.2720   47.5700 O.co2 401  MAW401     -0.2371
@<TRIPOS>BOND
     1     5     4    1
     2     2     3    1
     3     2     4    1
     4     2     1    1
     5     4     6    1
     6     1     8    1
     7     6     7    2
     8     8     7    1
     9     7     9    1
    10     9    11   ar
    11     9    10   ar
