@<TRIPOS>MOLECULE
4f10_BEM_A_1.pdb
 12 12 0 0 0
SMALL
GASTEIGER

@<TRIPOS>ATOM
      1  C1        -4.7730  -13.6180   44.3100 C.3   403  BEM403      0.1783
      2  C2        -5.5980  -12.3050   44.4860 C.3   403  BEM403      0.2141
      3  O2        -5.6780  -11.5660   43.2570 O.3   403  BEM403     -0.2176
      4  C3        -6.9760  -12.6450   45.0430 C.3   403  BEM403      0.2178
      5  O3        -7.7230  -11.4270   45.1510 O.3   403  BEM403     -0.2175
      6  C4        -7.6970  -13.5760   44.0940 C.3   403  BEM403      0.2227
      7  O4        -9.0520  -13.9210   44.6150 O.3   403  BEM403     -0.2171
      8  C5        -6.8060  -14.8370   43.8490 C.3   403  BEM403      0.2512
      9  O5        -5.4760  -14.4910   43.3840 O.3   403  BEM403     -0.3403
     10  C6        -7.4560  -15.7730   42.8300 C.2   403  BEM403      0.3940
     11  O6A       -8.1340  -16.7170   43.2670 O.co2 403  BEM403     -0.2429
     12  O6B       -7.1480  -15.5580   41.6400 O.co2 403  BEM403     -0.2429
@<TRIPOS>BOND
     1    12    10   ar
     2    10    11   ar
     3    10     8    1
     4     3     2    1
     5     9     8    1
     6     9     1    1
     7     8     6    1
     8     6     7    1
     9     6     4    1
    10     1     2    1
    11     2     4    1
    12     4     5    1
