@<TRIPOS>MOLECULE
4f13_MAW_A_1.pdb
 11 11 0 0 0
SMALL
GASTEIGER

@<TRIPOS>ATOM
      1  C1       -14.6350  -11.9610   44.1910 C.3   401  MAW401      0.2413
      2  C2       -15.8400  -12.0450   43.2590 C.3   401  MAW401      0.2297
      3  O2       -16.3890  -13.3680   43.4440 O.3   401  MAW401     -0.2160
      4  C3       -16.7790  -10.9320   43.7380 C.3   401  MAW401      0.2111
      5  O3       -17.9830  -11.1870   43.0210 O.3   401  MAW401     -0.2153
      6  C4       -17.1110  -11.0040   45.0880 C.2   401  MAW401      0.0526
      7  C5       -16.2280  -11.5230   46.0200 C.2   401  MAW401      0.2164
      8  O5       -14.9730  -11.9970   45.6070 O.2   401  MAW401     -0.4664
      9  C6       -16.4710  -11.4940   47.4160 C.2   401  MAW401      0.4208
     10  O6A      -15.6740  -11.9650   48.2610 O.co2 401  MAW401     -0.2371
     11  O6B      -17.5470  -11.0200   47.8360 O.co2 401  MAW401     -0.2371
@<TRIPOS>BOND
     1     5     4    1
     2     2     3    1
     3     2     4    1
     4     2     1    1
     5     4     6    1
     6     1     8    1
     7     6     7    2
     8     8     7    1
     9     7     9    1
    10     9    11   ar
    11     9    10   ar
