@<TRIPOS>MOLECULE
4f13_BEM_A_1.pdb
 12 12 0 0 0
SMALL
GASTEIGER

@<TRIPOS>ATOM
      1  C1        -9.8020  -14.0300   44.2940 C.3   402  BEM402      0.1783
      2  C2       -10.7840  -14.6140   45.3110 C.3   402  BEM402      0.2141
      3  O2       -10.7390  -13.9060   46.5370 O.3   402  BEM402     -0.2176
      4  C3       -12.1390  -14.5290   44.7060 C.3   402  BEM402      0.2178
      5  O3       -13.0220  -14.9620   45.7520 O.3   402  BEM402     -0.2175
      6  C4       -12.4300  -13.0830   44.4140 C.3   402  BEM402      0.2227
      7  O4       -13.7370  -12.9830   43.8090 O.3   402  BEM402     -0.2171
      8  C5       -11.3690  -12.5550   43.4340 C.3   402  BEM402      0.2512
      9  O5       -10.1150  -12.6960   43.9800 O.3   402  BEM402     -0.3403
     10  C6       -11.6450  -11.0700   43.1120 C.2   402  BEM402      0.3940
     11  O6A      -11.7860  -10.7970   41.9350 O.co2 402  BEM402     -0.2429
     12  O6B      -11.5880  -10.2240   43.9920 O.co2 402  BEM402     -0.2429
@<TRIPOS>BOND
     1    11    10   ar
     2    10     8    1
     3    10    12   ar
     4     8     9    1
     5     8     6    1
     6     7     6    1
     7     9     1    1
     8     1     2    1
     9     6     4    1
    10     4     2    1
    11     4     5    1
    12     2     3    1
