@<TRIPOS>MOLECULE
4f1l_0RY_A_1.pdb
 17 17 0 0 0
SMALL
GASTEIGER

@<TRIPOS>ATOM
      1  OAB        2.9760   12.6890    4.9760 O.co2 1801  0RY1801    -0.2405
      2  CAM        4.0580   13.3230    5.0630 C.2   1801  0RY1801     0.3881
      3  OAE        4.3450   14.0160    6.0680 O.co2 1801  0RY1801    -0.2405
      4  CAF        4.9460   13.4410    3.9650 C.2   1801  0RY1801     0.0909
      5  CAG        4.9780   12.8210    2.6970 C.2   1801  0RY1801     0.0666
      6  CAO        4.1440   11.8390    2.1070 C.2   1801  0RY1801     0.2693
      7  OAD        4.5280   11.4050    1.0260 O.2   1801  0RY1801    -0.2680
      8  NAL        3.0000   11.4660    2.6950 N.am  1801  0RY1801    -0.1754
      9  CAP        2.2330   10.4190    2.3690 C.ar  1801  0RY1801     0.0738
     10  CAK        1.8680    9.9630    1.0950 C.ar  1801  0RY1801     0.0212
     11  CAI        1.8260    9.6850    3.4890 C.ar  1801  0RY1801     0.0166
     12  CAH        1.0970    8.5320    3.3150 C.ar  1801  0RY1801     0.0015
     13  CAJ        0.7310    8.0890    2.0380 C.ar  1801  0RY1801     0.0047
     14  CAQ        1.1050    8.7990    0.9140 C.ar  1801  0RY1801     0.0580
     15  CAN        0.6680    8.2480   -0.4920 C.2   1801  0RY1801     0.2842
     16  OAC       -0.4720    7.7990   -0.6400 O.2   1801  0RY1801    -0.2667
     17  NAA        1.4870    8.4400   -1.5180 N.am  1801  0RY1801    -0.0837
@<TRIPOS>BOND
     1    17    15   am
     2    16    15    2
     3    15    14    1
     4    14    10   ar
     5    14    13   ar
     6     7     6    2
     7    10     9   ar
     8    13    12   ar
     9     6     8   am
    10     6     5    1
    11     9     8    1
    12     9    11   ar
    13     5     4    2
    14    12    11   ar
    15     4     2    1
    16     1     2   ar
    17     2     3   ar
