@<TRIPOS>MOLECULE
4f1m_ACP_A_1.pdb
 31 33 0 0 0
SMALL
GASTEIGER

@<TRIPOS>ATOM
      1  PG        10.2010    4.5070  -18.2770 P.3   1301  ACP1301     0.1295
      2  O1G       10.4160    5.1640  -19.5910 O.2   1301  ACP1301    -0.4595
      3  O2G        8.6530    4.5900  -17.8050 O.3   1301  ACP1301    -0.3567
      4  O3G       11.0360    5.2380  -17.0940 O.3   1301  ACP1301    -0.3567
      5  PB        11.8830    2.4040  -17.0090 P.3   1301  ACP1301     0.3815
      6  O1B       13.1280    3.1280  -17.3430 O.2   1301  ACP1301    -0.2547
      7  O2B       11.2690    2.5810  -15.6750 O.3   1301  ACP1301    -0.1391
      8  C3B       10.6390    2.7480  -18.2750 C.3   1301  ACP1301     0.1768
      9  PA        13.3260    0.0730  -16.4680 P.3   1301  ACP1301     0.2209
     10  O1A       13.1380   -1.3780  -16.6710 O.2   1301  ACP1301    -0.5170
     11  O2A       13.4510    0.6060  -15.0930 O.3   1301  ACP1301    -0.4371
     12  O3A       12.1380    0.8350  -17.2390 O.3   1301  ACP1301    -0.2483
     13  O5'       14.6140    0.5400  -17.3280 O.3   1301  ACP1301    -0.3111
     14  C5'       15.9480    0.2410  -16.8850 C.3   1301  ACP1301     0.1813
     15  C4'       16.6480   -0.8370  -17.7440 C.3   1301  ACP1301     0.1821
     16  O4'       16.9360   -1.9720  -16.8870 O.3   1301  ACP1301    -0.3135
     17  C3'       15.7760   -1.4040  -18.8640 C.3   1301  ACP1301     0.2184
     18  O3'       15.9200   -0.6020  -20.0410 O.3   1301  ACP1301    -0.2174
     19  C2'       16.3770   -2.7840  -19.0860 C.3   1301  ACP1301     0.2570
     20  O2'       17.4910   -2.7060  -19.9840 O.3   1301  ACP1301    -0.2130
     21  C1'       16.8680   -3.1880  -17.6900 C.3   1301  ACP1301     0.3186
     22  N9        15.9050   -4.1450  -17.0680 N.pl3 1301  ACP1301    -0.1439
     23  C8        14.9410   -3.8300  -16.2010 C.3   1301  ACP1301     0.3377
     24  N7        14.2740   -4.9290  -15.8540 N.2   1301  ACP1301    -0.2095
     25  C5        14.8160   -5.9550  -16.4980 C.2   1301  ACP1301     0.2526
     26  C6        14.5480   -7.3190  -16.5330 C.2   1301  ACP1301     0.4393
     27  N6        13.5610   -7.8340  -15.8060 N.pl3 1301  ACP1301     0.2180
     28  N1        15.3040   -8.1100  -17.3120 N.2   1301  ACP1301     0.0021
     29  C2        16.2900   -7.6040  -18.0430 C.3   1301  ACP1301     0.5254
     30  N3        16.5710   -6.3080  -18.0310 N.2   1301  ACP1301    -0.0055
     31  C4        15.8540   -5.4600  -17.2720 C.2   1301  ACP1301     0.3518
@<TRIPOS>BOND
     1    18    17    1
     2    20    19    1
     3     2     1    2
     4    19    17    1
     5    19    21    1
     6    17    15    1
     7     1     8    1
     8     1     3    1
     9     1     4    1
    10     8     5    1
    11    29    30    1
    12    29    28    1
    13    30    31    2
    14    15    16    1
    15    15    14    1
    16    21    22    1
    17    21    16    1
    18     6     5    2
    19    13    14    1
    20    13     9    1
    21    28    26    2
    22    31    22    1
    23    31    25    1
    24    12     5    1
    25    12     9    1
    26    22    23    1
    27     5     7    1
    28    10     9    2
    29    26    25    1
    30    26    27    1
    31    25    24    2
    32     9    11    1
    33    23    24    1
