@<TRIPOS>MOLECULE
4f1o_ACP_A_1.pdb
 31 33 0 0 0
SMALL
GASTEIGER

@<TRIPOS>ATOM
      1  PG        -9.6540   26.1820  -20.2940 P.3   1301  ACP1301     0.1295
      2  O1G      -10.2440   26.2980  -21.6520 O.2   1301  ACP1301    -0.4595
      3  O2G      -10.4450   27.0840  -19.2030 O.3   1301  ACP1301    -0.3567
      4  O3G       -8.1210   26.7060  -20.2590 O.3   1301  ACP1301    -0.3567
      5  PB        -9.0490   24.4060  -17.9730 P.3   1301  ACP1301     0.3815
      6  O1B       -7.6650   24.9260  -17.9370 O.2   1301  ACP1301    -0.2547
      7  O2B      -10.0700   24.9870  -17.0730 O.3   1301  ACP1301    -0.1391
      8  C3B       -9.6510   24.4810  -19.6770 C.3   1301  ACP1301     0.1768
      9  PA        -8.0360   22.1020  -16.6770 P.3   1301  ACP1301     0.2209
     10  O1A       -8.4190   20.6800  -16.5460 O.2   1301  ACP1301    -0.5170
     11  O2A       -7.9460   22.9440  -15.4650 O.3   1301  ACP1301    -0.4371
     12  O3A       -9.0230   22.8050  -17.7400 O.3   1301  ACP1301    -0.2483
     13  O5'       -6.6220   22.1620  -17.4550 O.3   1301  ACP1301    -0.3111
     14  C5'       -5.4260   21.6990  -16.8110 C.3   1301  ACP1301     0.1813
     15  C4'       -4.4310   20.9970  -17.7780 C.3   1301  ACP1301     0.1821
     16  O4'       -4.0760   19.7010  -17.2030 O.3   1301  ACP1301    -0.3135
     17  C3'       -4.9530   20.7380  -19.2010 C.3   1301  ACP1301     0.2184
     18  O3'       -3.9160   21.0270  -20.1470 O.3   1301  ACP1301    -0.2174
     19  C2'       -5.3120   19.2530  -19.2220 C.3   1301  ACP1301     0.2570
     20  O2'       -4.9550   18.6660  -20.4790 O.3   1301  ACP1301    -0.2130
     21  C1'       -4.4620   18.6300  -18.1100 C.3   1301  ACP1301     0.3186
     22  N9        -5.3050   17.6260  -17.3960 N.pl3 1301  ACP1301    -0.1439
     23  C8        -6.2500   17.8950  -16.4910 C.3   1301  ACP1301     0.3377
     24  N7        -6.8010   16.7580  -16.0680 N.2   1301  ACP1301    -0.2095
     25  C5        -6.2060   15.7560  -16.7040 C.2   1301  ACP1301     0.2526
     26  C6        -6.3560   14.3730  -16.6760 C.2   1301  ACP1301     0.4393
     27  N6        -7.2580   13.8070  -15.8780 N.pl3 1301  ACP1301     0.2180
     28  N1        -5.5750   13.6140  -17.4650 N.2   1301  ACP1301     0.0021
     29  C2        -4.6740   14.1720  -18.2640 C.3   1301  ACP1301     0.5254
     30  N3        -4.5070   15.4870  -18.3150 N.2   1301  ACP1301    -0.0055
     31  C4        -5.2540   16.3040  -17.5500 C.2   1301  ACP1301     0.3518
@<TRIPOS>BOND
     1     2     1    2
     2    20    19    1
     3     1     4    1
     4     1     8    1
     5     1     3    1
     6    18    17    1
     7     8     5    1
     8    19    17    1
     9    19    21    1
    10    17    15    1
    11    30    29    1
    12    30    31    2
    13    29    28    1
    14    21    22    1
    15    21    16    1
    16     5     6    2
    17     5    12    1
    18     5     7    1
    19    15    16    1
    20    15    14    1
    21    12     9    1
    22    31    22    1
    23    31    25    1
    24    28    26    2
    25    13    14    1
    26    13     9    1
    27    22    23    1
    28    25    26    1
    29    25    24    2
    30     9    10    2
    31     9    11    1
    32    26    27    1
    33    23    24    1
