@<TRIPOS>MOLECULE
4f1q_0RZ_A_1.pdb
 17 17 0 0 0
SMALL
GASTEIGER

@<TRIPOS>ATOM
      1  OAB       38.9190   22.0640  -25.8630 O.co2 1801  0RZ1801    -0.2405
      2  CAM       39.4130   21.1480  -25.1630 C.2   1801  0RZ1801     0.3881
      3  OAE       40.3740   20.4540  -25.5860 O.co2 1801  0RZ1801    -0.2405
      4  CAF       38.8280   20.8900  -23.7850 C.2   1801  0RZ1801     0.0909
      5  CAG       39.3790   19.7620  -22.8790 C.2   1801  0RZ1801     0.0666
      6  CAO       38.7670   19.5150  -21.4860 C.2   1801  0RZ1801     0.2693
      7  OAD       39.2040   18.6350  -20.7400 O.2   1801  0RZ1801    -0.2680
      8  NAL       37.7890   20.3870  -21.1940 N.am  1801  0RZ1801    -0.1754
      9  CAP       37.0220   20.3120  -20.1160 C.ar  1801  0RZ1801     0.0738
     10  CAK       36.3220   21.4760  -19.8160 C.ar  1801  0RZ1801     0.0212
     11  CAI       36.7800   19.1510  -19.3710 C.ar  1801  0RZ1801     0.0166
     12  CAH       35.8790   19.1920  -18.3070 C.ar  1801  0RZ1801     0.0015
     13  CAJ       35.2100   20.3730  -17.9930 C.ar  1801  0RZ1801     0.0047
     14  CAQ       35.4320   21.5170  -18.7540 C.ar  1801  0RZ1801     0.0580
     15  CAN       34.7790   22.6880  -18.4550 C.2   1801  0RZ1801     0.2842
     16  OAC       34.3950   22.9130  -17.3100 O.2   1801  0RZ1801    -0.2667
     17  NAA       34.5620   23.5020  -19.4810 N.am  1801  0RZ1801    -0.0837
@<TRIPOS>BOND
     1     1     2   ar
     2     3     2   ar
     3     2     4    1
     4     4     5    2
     5     5     6    1
     6     6     8   am
     7     6     7    2
     8     8     9    1
     9     9    10   ar
    10     9    11   ar
    11    10    14   ar
    12    17    15   am
    13    11    12   ar
    14    14    15    1
    15    14    13   ar
    16    15    16    2
    17    12    13   ar
