@<TRIPOS>MOLECULE
4f1s_F1S_A_1.pdb
 33 36 0 0 0
SMALL
GASTEIGER

@<TRIPOS>ATOM
      1  C31       27.6930   16.1280   18.7160 C.3   1207  F1S1207     0.2016
      2  S30       27.3540   14.7220   17.6710 S.O2  1207  F1S1207     0.0751
      3  O32       28.2990   14.7050   16.5080 O.2   1207  F1S1207    -0.1528
      4  O33       25.9390   14.7830   17.1680 O.2   1207  F1S1207    -0.1528
      5  N27       27.5430   13.3310   18.4980 N.pl3 1207  F1S1207    -0.0981
      6  C26       27.1240   13.1940   19.7550 C.ar  1207  F1S1207     0.1203
      7  C25       25.8770   13.6650   20.1580 C.ar  1207  F1S1207     0.0386
      8  C21       27.9450   12.5520   20.6730 C.ar  1207  F1S1207     0.1550
      9 CL2        29.4910   11.9420   20.1960 Cl    1207  F1S1207    -0.0599
     10  N22       27.5450   12.4010   21.9400 N.ar  1207  F1S1207    -0.2297
     11  C23       26.3700   12.8480   22.3490 C.ar  1207  F1S1207     0.1164
     12  C24       25.4910   13.5040   21.4880 C.ar  1207  F1S1207     0.0927
     13  N28       24.3140   13.9310   21.9820 N.pl3 1207  F1S1207    -0.1919
     14  C2        23.5980   14.9560   21.4850 C.ar  1207  F1S1207     0.1631
     15  N1        24.1660   15.8090   20.6160 N.ar  1207  F1S1207    -0.2270
     16  C6        23.5110   16.8260   20.0950 C.ar  1207  F1S1207     0.0961
     17  C5        22.1860   17.0640   20.4350 C.ar  1207  F1S1207    -0.0024
     18  C15       21.4660   18.2700   19.8120 C.3   1207  F1S1207     0.0289
     19  C16       19.9510   18.0300   19.6760 C.3   1207  F1S1207     0.0365
     20  C17       19.2680   19.2950   19.1450 C.3   1207  F1S1207     0.1425
     21  O18       19.5570   20.3240   20.1050 O.3   1207  F1S1207    -0.3538
     22  C19       20.9500   20.6770   20.0640 C.3   1207  F1S1207     0.1425
     23  C20       21.7330   19.5150   20.6600 C.3   1207  F1S1207     0.0365
     24  C4        21.5500   16.2220   21.3390 C.ar  1207  F1S1207     0.0122
     25  C3        22.2610   15.1500   21.8730 C.ar  1207  F1S1207     0.1201
     26  C7        21.6380   14.2890   22.7770 C.1   1207  F1S1207     0.1642
     27  N12       20.3660   14.4700   23.1610 N.2   1207  F1S1207    -0.2576
     28  N8        22.3330   13.2570   23.2760 N.2   1207  F1S1207    -0.2775
     29  C9        21.7770   12.4040   24.1420 C.1   1207  F1S1207     0.1395
     30  C13       22.6010   11.2410   24.6810 C.3   1207  F1S1207     0.1448
     31  N10       20.5070   12.5830   24.5220 N.2   1207  F1S1207    -0.2621
     32  C11       19.8060   13.6180   24.0330 C.1   1207  F1S1207     0.2608
     33  N14       18.5500   13.7880   24.4180 N.pl3 1207  F1S1207    -0.0220
@<TRIPOS>BOND
     1     3     2    2
     2     4     2    2
     3     2     5    1
     4     2     1    1
     5     5     6    1
     6    20    19    1
     7    20    21    1
     8    19    18    1
     9     6     7   ar
    10     6     8   ar
    11    18    17    1
    12    18    23    1
    13    22    21    1
    14    22    23    1
    15    16    17   ar
    16    16    15   ar
    17     7    12   ar
    18     9     8    1
    19    17    24   ar
    20    15    14   ar
    21     8    10   ar
    22    24    25   ar
    23    14    25   ar
    24    14    13    1
    25    12    13    1
    26    12    11   ar
    27    25    26    1
    28    10    11   ar
    29    26    27    2
    30    26    28    2
    31    27    32    2
    32    28    29    2
    33    32    33    1
    34    32    31    2
    35    29    31    2
    36    29    30    1
