@<TRIPOS>MOLECULE
4f1t_H52_A_1.pdb
 22 24 0 0 0
SMALL
GASTEIGER

@<TRIPOS>ATOM
      1  O1        -6.3160   19.7280  -16.7520 O.2   1301  H521301    -0.1528
      2  S5        -6.9640   19.2840  -17.8960 S.O2  1301  H521301     0.0633
      3  O2        -8.2050   18.7290  -17.5950 O.2   1301  H521301    -0.1528
      4  N21       -7.3540   20.4640  -18.6480 N.3   1301  H521301    -0.1554
      5  C22       -6.4570   21.2490  -19.4150 C.3   1301  H521301     0.0969
      6  C2M       -7.3880   21.8500  -20.4430 C.3   1301  H521301     0.0207
      7  C23       -5.9640   22.2930  -18.4300 C.3   1301  H521301     0.1063
      8  N24       -6.7130   23.5100  -18.6480 N.3   1301  H521301    -0.2165
      9  C25       -8.1240   23.3930  -18.9070 C.3   1301  H521301     0.0902
     10  C26       -8.7090   22.3190  -18.0250 C.3   1301  H521301     0.0379
     11  C27       -8.7120   20.9430  -18.6870 C.3   1301  H521301     0.0973
     12  C5        -6.0640   18.3440  -18.7640 C.ar  1301  H521301     0.1220
     13  C10       -6.1560   16.8450  -18.8020 C.ar  1301  H521301     0.0177
     14  C4        -7.0820   15.9740  -18.0190 C.ar  1301  H521301    -0.0014
     15  CM        -8.0840   16.5010  -17.0470 C.3   1301  H521301     0.0327
     16  C9        -5.2400   16.1420  -19.7140 C.ar  1301  H521301     0.0202
     17  C8        -4.3480   16.8590  -20.4700 C.ar  1301  H521301     0.0016
     18  C7        -4.3020   18.2390  -20.4000 C.ar  1301  H521301     0.0014
     19  C6        -5.1380   18.9680  -19.5710 C.ar  1301  H521301     0.0199
     20  C1        -5.2890   14.7720  -19.8000 C.ar  1301  H521301     0.0989
     21  N2        -6.1360   14.0730  -19.0640 N.ar  1301  H521301    -0.2426
     22  C3        -7.0080   14.6110  -18.2170 C.ar  1301  H521301     0.0946
@<TRIPOS>BOND
     1    17    18   ar
     2    17    16   ar
     3     6     5    1
     4    18    19   ar
     5    20    16   ar
     6    20    21   ar
     7    16    13   ar
     8    19    12   ar
     9     5     4    1
    10     5     7    1
    11    21    22   ar
    12     9     8    1
    13     9    10    1
    14    13    12   ar
    15    13    14   ar
    16    12     2    1
    17    11     4    1
    18    11    10    1
    19     4     2    1
    20     8     7    1
    21    22    14   ar
    22    14    15    1
    23     2     3    2
    24     2     1    2
