@<TRIPOS>MOLECULE
4f1y_CNI_A_1.pdb
 17 18 0 0 0
SMALL
GASTEIGER

@<TRIPOS>ATOM
      1  C1        -3.6780   -7.1410   16.5890 C.1   401  CNI401      0.3024
      2  C2        -2.5400   -6.8020   15.6930 C.1   401  CNI401      0.3024
      3  C3        -2.7250   -9.2580   16.9270 C.2   401  CNI401      0.1552
      4  C4        -1.6580   -8.9380   16.0860 C.2   401  CNI401      0.1543
      5  C5        -2.7810  -10.5130   17.5320 C.3   401  CNI401      0.1135
      6  C6        -0.6520   -9.8700   15.8600 C.3   401  CNI401      0.1005
      7  C8        -0.7130  -11.1200   16.4640 C.2   401  CNI401      0.0721
      8  O1        -4.5990   -6.3340   16.8170 O.2   401  CNI401     -0.1961
      9  O2        -2.4430   -5.6930   15.1360 O.2   401  CNI401     -0.1961
     10  N2        -1.5840   -7.7300   15.4890 N.2   401  CNI401     -0.3251
     11  N1        -3.7060   -8.3600   17.1630 N.2   401  CNI401     -0.3250
     12  C7        -1.7740  -11.4480   17.2980 C.2   401  CNI401      0.1336
     13  N3        -1.8250  -12.7110   17.9160 N.pl3 401  CNI401      0.0544
     14  O3        -1.6900  -12.7960   19.1290 O.2   401  CNI401     -0.1264
     15  O5        -1.9870  -13.7260   17.2510 O.2   401  CNI401     -0.1264
     16  C          0.2170  -11.9740   16.2470 C.1   401  CNI401      0.0979
     17  N17        0.9840  -12.8160   16.0290 N.1   401  CNI401     -0.1911
@<TRIPOS>BOND
     1     9     2    2
     2    10     2    2
     3    10     4    2
     4     2     1    1
     5     6     4    1
     6     6     7    1
     7    17    16    3
     8     4     3    1
     9    16     7    1
    10     7    12    2
    11     1     8    2
    12     1    11    2
    13     3    11    2
    14     3     5    1
    15    15    13    2
    16    12     5    1
    17    12    13    1
    18    13    14    2
