@<TRIPOS>MOLECULE
4f22_KAI_A_1.pdb
 15 15 0 0 0
SMALL
GASTEIGER

@<TRIPOS>ATOM
      1  N         -2.7760  -22.5870  -19.7890 N.3   301  KAI301     -0.2084
      2  CD        -2.1200  -22.9830  -18.5170 C.3   301  KAI301      0.0893
      3  CD1       -1.7290  -23.9050  -15.9490 C.3   301  KAI301      0.0000
      4  CD2       -3.8950  -22.6410  -15.0460 C.3   301  KAI301      0.0000
      5  CA        -4.2050  -22.2870  -19.5390 C.3   301  KAI301      0.1762
      6  CB        -4.4920  -22.9280  -18.2190 C.3   301  KAI301      0.0397
      7  CB1       -4.7460  -24.4380  -18.3800 C.3   301  KAI301      0.1160
      8  CG        -3.2100  -22.6170  -17.4790 C.3   301  KAI301      0.0199
      9  CG1       -6.1750  -24.9280  -18.6700 C.2   301  KAI301      0.3649
     10  CG2       -3.1440  -23.3910  -16.1730 C.3   301  KAI301      0.0015
     11  C         -4.5290  -20.7920  -19.5980 C.2   301  KAI301      0.3803
     12  O         -3.7510  -20.0100  -20.1810 O.co2 301  KAI301     -0.2441
     13  OD1       -6.4170  -26.1610  -18.8670 O.co2 301  KAI301     -0.2457
     14  OD2       -7.1070  -24.1030  -18.7630 O.co2 301  KAI301     -0.2457
     15  OXT       -5.6090  -20.3020  -19.1800 O.co2 301  KAI301     -0.2441
@<TRIPOS>BOND
     1    12    11   ar
     2     1     5    1
     3     1     2    1
     4    11     5    1
     5    11    15   ar
     6     5     6    1
     7    13     9   ar
     8    14     9   ar
     9     9     7    1
    10     2     8    1
    11     7     6    1
    12     6     8    1
    13     8    10    1
    14    10     3    1
    15    10     4    1
