@<TRIPOS>MOLECULE
4f29_QUS_A_1.pdb
 13 13 0 0 0
SMALL
GASTEIGER

@<TRIPOS>ATOM
      1  C01       -4.5940   18.8830   20.2300 C.2   301  QUS301      0.3838
      2  C02       -4.2820   20.3840   20.2400 C.3   301  QUS301      0.2184
      3  C03       -4.3790   20.8120   18.7690 C.3   301  QUS301      0.1793
      4  C04       -6.1110   22.6770   18.9870 C.1   301  QUS301      0.3141
      5  C05       -4.6310   24.3640   19.1540 C.1   301  QUS301      0.4071
      6  NP3       -2.9350   20.4820   20.8890 N.3   301  QUS301     -0.1188
      7  N14       -4.8670   22.1990   18.6650 N.am  301  QUS301     -0.0527
      8  N15       -5.9320   23.9890   19.2710 N.2   301  QUS301     -0.2120
      9  O16       -3.7870   18.0990   20.7460 O.co2 301  QUS301     -0.2440
     10  O17       -5.6610   18.5240   19.7080 O.co2 301  QUS301     -0.2440
     11  O18       -7.1010   22.0180   18.9970 O.2   301  QUS301     -0.1893
     12  O19       -4.1080   25.4390   19.3320 O.2   301  QUS301     -0.1667
     13  O20       -3.9090   23.2630   18.7720 O.3   301  QUS301     -0.2752
@<TRIPOS>BOND
     1     7     3    1
     2     7    13    1
     3     7     4   am
     4     3     2    1
     5    13     5    1
     6     4    11    2
     7     4     8    2
     8     5     8    2
     9     5    12    2
    10    10     1   ar
    11     1     2    1
    12     1     9   ar
    13     2     6    1
