@<TRIPOS>MOLECULE
4f2a_2OB_A_1.pdb
 35 38 0 0 0
SMALL
GASTEIGER

@<TRIPOS>ATOM
      1  O2       -18.1590   -1.4050  -40.8200 O.2   605  2OB605     -0.2501
      2  C48      -17.5580   -1.4260  -39.7800 C.2   605  2OB605      0.3169
      3  O1       -16.2120   -1.6180  -39.6760 O.3   605  2OB605     -0.4519
      4  C3       -15.3740   -1.9950  -40.8230 C.3   605  2OB605      0.1728
      5  C2       -14.9440   -0.7380  -41.5490 C.3   605  2OB605      0.0443
      6  C4       -14.1880   -2.6710  -40.1630 C.3   605  2OB605      0.0653
      7  C5       -13.0420   -2.9240  -41.1230 C.2   605  2OB605     -0.0455
      8  C10      -12.5590   -1.7310  -41.9540 C.3   605  2OB605      0.0151
      9  C9       -11.6380   -2.2300  -43.1270 C.3   605  2OB605      0.0038
     10  C11      -10.9390   -1.0930  -43.8960 C.3   605  2OB605      0.0003
     11  C12      -10.0380   -1.5620  -45.0490 C.3   605  2OB605      0.0000
     12  C13       -9.0250   -2.6660  -44.6810 C.3   605  2OB605      0.0003
     13  C18       -7.8860   -2.0880  -43.8120 C.3   605  2OB605      0.0000
     14  C17       -8.4820   -3.5010  -45.8800 C.3   605  2OB605      0.0040
     15  C20       -7.2660   -3.0420  -46.7210 C.3   605  2OB605      0.0217
     16  C22       -6.8880   -4.0930  -47.8010 C.2   605  2OB605     -0.0310
     17  C23       -7.9640   -4.4060  -48.8520 C.2   605  2OB605     -0.0307
     18  C24       -7.6620   -5.5670  -49.7890 C.3   605  2OB605      0.0257
     19  C25       -8.6940   -5.7420  -50.9200 C.3   605  2OB605      0.0043
     20  C27       -8.9180   -4.4670  -51.7320 C.3   605  2OB605      0.0003
     21  C26       -8.4660   -6.9150  -51.8570 C.3   605  2OB605      0.0003
     22  C21       -7.4320   -1.6580  -47.3570 C.3   605  2OB605      0.0047
     23  C16       -8.3050   -4.9360  -45.3260 C.3   605  2OB605      0.0003
     24  C15       -8.8740   -4.9490  -43.9090 C.3   605  2OB605      0.0000
     25  C14       -9.8340   -3.7660  -43.9580 C.3   605  2OB605      0.0003
     26  C8       -10.6220   -3.3210  -42.7090 C.3   605  2OB605      0.0046
     27  C7       -11.3540   -4.5120  -42.0920 C.3   605  2OB605      0.0254
     28  C6       -12.4720   -4.1160  -41.1770 C.2   605  2OB605     -0.0345
     29  C19      -11.8070   -0.7590  -41.0170 C.3   605  2OB605      0.0040
     30  C1       -13.8080   -1.0240  -42.5460 C.3   605  2OB605      0.0074
     31  C47      -18.1960   -1.2330  -38.4210 C.3   605  2OB605      0.1096
     32  C46      -18.0280    0.1720  -37.8240 C.3   605  2OB605      0.0116
     33  C45      -18.1480    0.2200  -36.2930 C.3   605  2OB605      0.0006
     34  C44      -17.5440    1.4570  -35.6000 C.3   605  2OB605      0.0000
     35  C43      -17.4130    1.3310  -34.0720 C.3   605  2OB605      0.0000
@<TRIPOS>BOND
     1    21    19    1
     2    20    19    1
     3    19    18    1
     4    18    17    1
     5    17    16    2
     6    16    15    1
     7    22    15    1
     8    15    14    1
     9    14    23    1
    10    14    12    1
    11    23    24    1
    12    11    12    1
    13    11    10    1
    14    12    25    1
    15    12    13    1
    16    25    24    1
    17    25    26    1
    18    10     9    1
    19     9    26    1
    20     9     8    1
    21    26    27    1
    22    30     8    1
    23    30     5    1
    24    27    28    1
    25     8     7    1
    26     8    29    1
    27     5     4    1
    28    28     7    2
    29     7     6    1
    30     4     6    1
    31     4     3    1
    32     1     2    2
    33     2     3    1
    34     2    31    1
    35    31    32    1
    36    32    33    1
    37    33    34    1
    38    34    35    1
