@<TRIPOS>MOLECULE
4f2a_FUC_A_1.pdb
 10 10 0 0 0
SMALL
GASTEIGER

@<TRIPOS>ATOM
      1  C1       -28.8090   29.9170    9.5480 C.3   604  FUC604      0.1776
      2  C2       -29.5600   28.6480    9.1150 C.3   604  FUC604      0.2141
      3  C3       -28.8430   27.9390    7.9660 C.3   604  FUC604      0.2172
      4  C4       -27.3840   27.6510    8.3110 C.3   604  FUC604      0.2116
      5  C5       -26.6780   28.9550    8.6900 C.3   604  FUC604      0.1483
      6  C6       -25.2680   28.7550    9.1960 C.3   604  FUC604      0.0349
      7  O2       -30.9000   28.9670    8.7560 O.3   604  FUC604     -0.2176
      8  O3       -29.5100   26.7250    7.6390 O.3   604  FUC604     -0.2175
      9  O4       -27.2930   26.6830    9.3540 O.3   604  FUC604     -0.2177
     10  O5       -27.4130   29.6300    9.7320 O.3   604  FUC604     -0.3508
@<TRIPOS>BOND
     1     8     3    1
     2     3     4    1
     3     3     2    1
     4     4     5    1
     5     4     9    1
     6     5     6    1
     7     5    10    1
     8     7     2    1
     9     2     1    1
    10     1    10    1
