@<TRIPOS>MOLECULE
4f2b_INS_A_1.pdb
 12 12 0 0 0
SMALL
GASTEIGER

@<TRIPOS>ATOM
      1  C1        22.8350    9.1440   17.1430 C.3   401  INS401      0.2175
      2  C2        23.2750    7.8710   17.8740 C.3   401  INS401      0.2175
      3  C3        24.1820    6.9980   16.9900 C.3   401  INS401      0.2175
      4  C4        25.3950    7.7980   16.4890 C.3   401  INS401      0.2175
      5  C5        24.9610    9.0890   15.7720 C.3   401  INS401      0.2175
      6  C6        24.0510    9.9470   16.6640 C.3   401  INS401      0.2175
      7  O1        22.0600    9.9540   18.0400 O.3   401  INS401     -0.2175
      8  O2        22.1120    7.1130   18.2480 O.3   401  INS401     -0.2175
      9  O3        23.4350    6.5050   15.8700 O.3   401  INS401     -0.2175
     10  O4        26.1750    6.9760   15.6140 O.3   401  INS401     -0.2175
     11  O5        26.1180    9.8370   15.3940 O.3   401  INS401     -0.2175
     12  O6        23.5980   11.0750   15.9120 O.3   401  INS401     -0.2175
@<TRIPOS>BOND
     1    11     5    1
     2    10     4    1
     3     5     4    1
     4     5     6    1
     5     9     3    1
     6    12     6    1
     7     4     3    1
     8     6     1    1
     9     3     2    1
    10     1     2    1
    11     1     7    1
    12     2     8    1
