@<TRIPOS>MOLECULE
4f2d_RB0_A_1.pdb
 10 9 0 0 0
SMALL
GASTEIGER

@<TRIPOS>ATOM
      1  C1        35.3560    6.3710    6.5530 C.3   602  RB0602      0.2175
      2  O1        35.0440    7.3490    7.5520 O.3   602  RB0602     -0.2175
      3  C2        36.7530    6.6420    6.0500 C.3   602  RB0602      0.2175
      4  O2        36.7840    7.9640    5.5210 O.3   602  RB0602     -0.2175
      5  C3        37.1930    5.6730    4.9530 C.3   602  RB0602      0.2175
      6  O3        36.8190    4.3150    5.2410 O.3   602  RB0602     -0.2175
      7  C4        38.7020    5.7910    4.8050 C.3   602  RB0602      0.2175
      8  O4        39.1400    5.1650    3.6020 O.3   602  RB0602     -0.2175
      9  C5        39.4360    5.1400    5.9620 C.3   602  RB0602      0.2175
     10  O5        40.7970    5.5350    5.8690 O.3   602  RB0602     -0.2175
@<TRIPOS>BOND
     1     8     7    1
     2     7     5    1
     3     7     9    1
     4     5     6    1
     5     5     3    1
     6     4     3    1
     7    10     9    1
     8     3     1    1
     9     1     2    1
