@<TRIPOS>MOLECULE
4f2k_LE2_A_1.pdb
 11 11 0 0 0
SMALL
GASTEIGER

@<TRIPOS>ATOM
      1  C          3.3640  -14.2510   34.6910 C.2   201  LE2201      0.1352
      2  N          2.2080  -14.5550   35.2550 N.2   201  LE2201     -0.2610
      3  S          4.8330  -14.6870   35.3420 S.3   201  LE2201     -0.0284
      4  C1         2.1460  -15.3300   36.5040 C.3   201  LE2201      0.1309
      5  C2         1.9500  -14.3460   37.7280 C.3   201  LE2201      0.0526
      6  C3         0.7620  -13.3780   37.5390 C.ar  201  LE2201     -0.0202
      7  C4         1.0950  -11.9810   37.4490 C.ar  201  LE2201     -0.0042
      8  C5         0.0580  -10.9960   37.2660 C.ar  201  LE2201     -0.0003
      9  C6        -1.2950  -11.4660   37.1590 C.ar  201  LE2201     -0.0000
     10  C7        -1.6100  -12.8300   37.2160 C.ar  201  LE2201     -0.0003
     11  C8        -0.6040  -13.7980   37.3820 C.ar  201  LE2201     -0.0042
@<TRIPOS>BOND
     1     1     2    2
     2     1     3    1
     3     2     4    1
     4     4     5    1
     5     9    10   ar
     6     9     8   ar
     7    10    11   ar
     8     8     7   ar
     9    11     6   ar
    10     7     6   ar
    11     6     5    1
