@<TRIPOS>MOLECULE
4f2o_QUS_A_1.pdb
 13 13 0 0 0
SMALL
GASTEIGER

@<TRIPOS>ATOM
      1  C01        4.5860   -4.3750  -14.2300 C.2   301  QUS301      0.3838
      2  C02        3.0980   -4.0070  -14.2060 C.3   301  QUS301      0.2184
      3  C03        2.6690   -4.0250  -15.6810 C.3   301  QUS301      0.1793
      4  C04        0.7400   -5.6920  -15.5390 C.1   301  QUS301      0.3141
      5  C05       -0.8910   -4.1590  -15.3080 C.1   301  QUS301      0.4071
      6  NP3        3.0490   -2.6870  -13.5000 N.3   301  QUS301     -0.1188
      7  N14        1.2650   -4.4550  -15.8060 N.am  301  QUS301     -0.0527
      8  N15       -0.5650   -5.4770  -15.2480 N.2   301  QUS301     -0.2120
      9  O16        5.3980   -3.6210  -13.6780 O.co2 301  QUS301     -0.2440
     10  O17        4.9050   -5.4310  -14.7980 O.co2 301  QUS301     -0.2440
     11  O18        1.3610   -6.7060  -15.5720 O.2   301  QUS301     -0.1893
     12  O19       -1.9460   -3.6040  -15.1090 O.2   301  QUS301     -0.1667
     13  O20        0.2370   -3.4630  -15.6580 O.3   301  QUS301     -0.2752
@<TRIPOS>BOND
     1     7     3    1
     2     7    13    1
     3     7     4   am
     4     3     2    1
     5    13     5    1
     6    11     4    2
     7     4     8    2
     8     5     8    2
     9     5    12    2
    10    10     1   ar
    11     1     2    1
    12     1     9   ar
    13     2     6    1
