@<TRIPOS>MOLECULE
4f2q_QUS_A_1.pdb
 13 13 0 0 0
SMALL
GASTEIGER

@<TRIPOS>ATOM
      1  C01        4.5100   -4.3380  -14.2750 C.2   301  QUS301      0.3838
      2  C02        3.0260   -3.9550  -14.2970 C.3   301  QUS301      0.2184
      3  C03        2.6410   -3.9740  -15.7840 C.3   301  QUS301      0.1793
      4  C04        0.6920   -5.6220  -15.6940 C.1   301  QUS301      0.3141
      5  C05       -0.9290   -4.0710  -15.5180 C.1   301  QUS301      0.4071
      6  NP3        2.9690   -2.6320  -13.5970 N.3   301  QUS301     -0.1188
      7  N14        1.2370   -4.3910  -15.9500 N.am  301  QUS301     -0.0527
      8  N15       -0.6190   -5.3930  -15.4430 N.2   301  QUS301     -0.2120
      9  O16        5.3130   -3.5900  -13.7010 O.co2 301  QUS301     -0.2440
     10  O17        4.8350   -5.4000  -14.8290 O.co2 301  QUS301     -0.2440
     11  O18        1.3040   -6.6420  -15.7040 O.2   301  QUS301     -0.1893
     12  O19       -1.9840   -3.5050  -15.3520 O.2   301  QUS301     -0.1667
     13  O20        0.2160   -3.3880  -15.8360 O.3   301  QUS301     -0.2752
@<TRIPOS>BOND
     1     7    13    1
     2     7     3    1
     3     7     4   am
     4    13     5    1
     5     3     2    1
     6    11     4    2
     7     4     8    2
     8     5     8    2
     9     5    12    2
    10    10     1   ar
    11     2     1    1
    12     2     6    1
    13     1     9   ar
