@<TRIPOS>MOLECULE
4f31_KAI_B_1.pdb
 15 15 0 0 0
SMALL
GASTEIGER

@<TRIPOS>ATOM
      1  N          1.6040  -12.3110    7.4910 N.3   301  KAI301     -0.2080
      2  CD         1.4960  -13.1470    6.2400 C.3   301  KAI301      0.0933
      3  CD1        0.9860  -15.5440    4.7580 C.2   301  KAI301     -0.0091
      4  CD2        1.9900  -17.1490    6.3050 C.3   301  KAI301      0.0264
      5  CA         1.7240  -13.2120    8.6090 C.3   301  KAI301      0.1766
      6  CB         1.3120  -14.6030    8.1920 C.3   301  KAI301      0.0434
      7  CB1       -0.2520  -14.8850    8.0560 C.3   301  KAI301      0.1164
      8  CG         1.8260  -14.6110    6.7870 C.3   301  KAI301      0.0382
      9  CG1       -0.8730  -15.1810    9.4290 C.2   301  KAI301      0.3649
     10  CG2        1.5890  -15.8000    5.8520 C.2   301  KAI301     -0.0428
     11  C          3.1350  -13.1640    9.2570 C.2   301  KAI301      0.3803
     12  O          3.8670  -12.2250    8.8780 O.co2 301  KAI301     -0.2441
     13  OD1       -2.1140  -15.2160    9.4450 O.co2 301  KAI301     -0.2457
     14  OD2       -0.1200  -15.3980   10.4020 O.co2 301  KAI301     -0.2457
     15  OXT        3.3950  -14.0690   10.0890 O.co2 301  KAI301     -0.2441
@<TRIPOS>BOND
     1     3    10    2
     2    10     4    1
     3    10     8    1
     4     2     8    1
     5     2     1    1
     6     8     6    1
     7     1     5    1
     8     7     6    1
     9     7     9    1
    10     6     5    1
    11     5    11    1
    12    12    11   ar
    13    11    15   ar
    14     9    13   ar
    15     9    14   ar
