@<TRIPOS>MOLECULE
4f32_N32_A_1.pdb
 31 34 0 0 0
SMALL
GASTEIGER

@<TRIPOS>ATOM
      1  C1       -32.5240   12.8900  -30.2050 C.3   501  N32501      0.0184
      2  O19      -33.2650   11.2200  -24.4020 O.2   501  N32501     -0.2914
      3  O20      -30.5570    7.9570  -25.3100 O.2   501  N32501     -0.2730
      4  N28      -29.9180    7.9930  -27.5060 N.am  501  N32501     -0.1727
      5  C11      -30.6780    8.3790  -26.4780 C.2   501  N32501      0.2458
      6  C2       -31.7050    9.4290  -26.8440 C.3   501  N32501      0.0876
      7  C3       -31.2310   10.7880  -26.3540 C.3   501  N32501      0.0169
      8  C4       -32.2550   11.9390  -26.4790 C.3   501  N32501      0.0563
      9  C5       -33.3590   11.8660  -25.4450 C.2   501  N32501      0.1720
     10  C6       -34.6090   12.6280  -25.6680 C.2   501  N32501      0.0328
     11  C7       -34.8750   13.1580  -26.8680 C.2   501  N32501     -0.0235
     12  C8       -33.9620   13.0640  -28.0730 C.3   501  N32501      0.0228
     13  C9       -32.8620   11.9930  -27.8960 C.3   501  N32501      0.0112
     14  C10      -31.8530   12.1300  -29.0360 C.3   501  N32501      0.0048
     15  C14      -34.8570   12.5980  -29.2130 C.3   501  N32501      0.0260
     16  C15      -33.9000   12.3160  -30.3540 C.2   501  N32501     -0.0443
     17  C17      -34.2460   11.5360  -31.3430 C.2   501  N32501     -0.0091
     18  C18      -31.5560   13.2450  -26.0370 C.3   501  N32501      0.0077
     19  C28      -33.3970   14.4290  -28.4480 C.3   501  N32501      0.0047
     20  C29      -32.6090   14.3420  -29.7570 C.3   501  N32501      0.0044
     21  O30      -29.9500    5.5450  -28.8300 O.3   501  N32501     -0.2851
     22  O31      -27.7860    8.5750  -25.7850 O.3   501  N32501     -0.2848
     23  O32      -25.6290    7.7270  -24.6730 O.co2 501  N32501     -0.2404
     24  O33      -24.8640    5.7750  -25.1210 O.co2 501  N32501     -0.2404
     25  C21      -25.6870    6.6700  -25.3170 C.2   501  N32501      0.3909
     26  C22      -26.8290    6.4300  -26.2430 C.ar  501  N32501      0.1201
     27  C23      -27.8260    7.3710  -26.4370 C.ar  501  N32501      0.2203
     28  C24      -28.9120    7.0770  -27.2780 C.ar  501  N32501      0.1511
     29  C25      -28.9350    5.8030  -27.9760 C.ar  501  N32501      0.2140
     30  C26      -27.9030    4.9040  -27.7720 C.ar  501  N32501      0.0438
     31  C27      -26.8850    5.2180  -26.8910 C.ar  501  N32501      0.0132
@<TRIPOS>BOND
     1    17    16    2
     2    16     1    1
     3    16    15    1
     4     1    20    1
     5     1    14    1
     6    20    19    1
     7    15    12    1
     8    14    13    1
     9    21    29    1
    10    19    12    1
    11    12    13    1
    12    12    11    1
    13    29    30   ar
    14    29    28   ar
    15    13     8    1
    16    30    31   ar
    17     4    28    1
    18     4     5   am
    19    28    27   ar
    20    31    26   ar
    21    11    10    2
    22     6     5    1
    23     6     7    1
    24     8     7    1
    25     8    18    1
    26     8     9    1
    27     5     3    2
    28    27    26   ar
    29    27    22    1
    30    26    25    1
    31    10     9    1
    32     9     2    2
    33    25    24   ar
    34    25    23   ar
