@<TRIPOS>MOLECULE
4f35_CIT_A_1.pdb
 13 12 0 0 0
SMALL
GASTEIGER

@<TRIPOS>ATOM
      1  C1        -2.8920   35.6640   53.4960 C.2   501  CIT501      0.3680
      2  O1        -2.0100   36.3230   54.1010 O.co2 501  CIT501     -0.2455
      3  O2        -3.5430   36.2110   52.5780 O.co2 501  CIT501     -0.2455
      4  C2        -3.2140   34.2330   53.8670 C.3   501  CIT501      0.1560
      5  C3        -2.1750   33.2210   53.3890 C.3   501  CIT501      0.2402
      6  O7        -2.7810   31.9070   53.3910 O.3   501  CIT501     -0.2129
      7  C4        -1.7200   33.5240   51.9690 C.3   501  CIT501      0.1560
      8  C5        -2.5920   32.7720   50.9900 C.2   501  CIT501      0.3680
      9  O3        -3.7950   33.0770   50.8150 O.co2 501  CIT501     -0.2455
     10  O4        -2.1080   31.8230   50.3410 O.co2 501  CIT501     -0.2455
     11  C6        -0.9740   33.1850   54.3270 C.2   501  CIT501      0.3927
     12  O5        -1.1050   33.3430   55.5650 O.co2 501  CIT501     -0.2429
     13  O6         0.1650   32.9780   53.8550 O.co2 501  CIT501     -0.2429
@<TRIPOS>BOND
     1    10     8   ar
     2     9     8   ar
     3     8     7    1
     4     7     5    1
     5     3     1   ar
     6     5     6    1
     7     5     4    1
     8     5    11    1
     9     1     4    1
    10     1     2   ar
    11    13    11   ar
    12    11    12   ar
