@<TRIPOS>MOLECULE
4f38_GNP_A_1.pdb
 32 34 0 0 0
SMALL
GASTEIGER

@<TRIPOS>ATOM
      1  PG       -20.8050  -18.8210   23.2070 P.3   204  GNP204      0.4884
      2  O1G      -19.7350  -18.0580   22.4470 O.3   204  GNP204     -0.1240
      3  O2G      -21.9310  -17.8860   23.5800 O.3   204  GNP204     -0.1240
      4  O3G      -21.2480  -19.9760   22.3160 O.2   204  GNP204     -0.2331
      5  N3B      -20.2180  -19.5110   24.5490 N.3   204  GNP204     -0.0163
      6  PB       -19.8470  -18.7140   25.8770 P.3   204  GNP204      0.4669
      7  O1B      -18.4960  -18.1600   25.7820 O.2   204  GNP204     -0.2351
      8  O2B      -20.9260  -17.7220   25.9770 O.3   204  GNP204     -0.1253
      9  O3A      -19.8690  -19.5940   27.1290 O.3   204  GNP204     -0.2360
     10  PA       -21.1500  -20.1650   27.7340 P.3   204  GNP204      0.2220
     11  O1A      -21.3320  -19.6260   29.0830 O.3   204  GNP204     -0.4370
     12  O2A      -22.2510  -20.0340   26.7650 O.2   204  GNP204     -0.5170
     13  O5'      -21.1220  -21.7140   27.9530 O.3   204  GNP204     -0.3111
     14  C5'      -20.0030  -22.5960   27.8570 C.3   204  GNP204      0.1813
     15  C4'      -20.3960  -23.9210   28.5120 C.3   204  GNP204      0.1799
     16  O4'      -19.6190  -24.1410   29.7200 O.3   204  GNP204     -0.3326
     17  C3'      -21.8600  -23.9720   28.9550 C.3   204  GNP204      0.2158
     18  O3'      -22.4740  -25.2070   28.5820 O.3   204  GNP204     -0.2175
     19  C2'      -21.8660  -23.8240   30.4660 C.3   204  GNP204      0.2310
     20  O2'      -22.6760  -24.8190   31.0440 O.3   204  GNP204     -0.2158
     21  C1'      -20.4380  -24.1060   30.8810 C.3   204  GNP204      0.2293
     22  N9       -19.9260  -23.1690   31.8920 N.pl3 204  GNP204     -0.2354
     23  C8       -19.8870  -21.8050   31.8540 C.3   204  GNP204      0.2246
     24  N7       -19.3710  -21.2590   32.9260 N.2   204  GNP204     -0.2322
     25  C5       -19.0380  -22.3250   33.7360 C.2   204  GNP204      0.2182
     26  C6       -18.4420  -22.3650   35.0260 C.1   204  GNP204      0.2372
     27  O6       -18.0640  -21.4450   35.7520 O.2   204  GNP204     -0.2069
     28  N1       -18.2810  -23.6640   35.4810 N.2   204  GNP204     -0.2485
     29  C2       -18.6440  -24.7830   34.7660 C.1   204  GNP204      0.2531
     30  N2       -18.4290  -25.9650   35.3450 N.pl3 204  GNP204     -0.0226
     31  N3       -19.2090  -24.7610   33.5800 N.2   204  GNP204     -0.3074
     32  C4       -19.3760  -23.5020   33.1130 C.2   204  GNP204      0.2300
@<TRIPOS>BOND
     1     4     1    2
     2     2     1    1
     3     1     3    1
     4     1     5    1
     5     5     6    1
     6     7     6    2
     7     6     8    1
     8     6     9    1
     9    12    10    2
    10     9    10    1
    11    10    13    1
    12    10    11    1
    13    14    13    1
    14    14    15    1
    15    15    17    1
    16    15    16    1
    17    18    17    1
    18    17    19    1
    19    16    21    1
    20    19    21    1
    21    19    20    1
    22    21    22    1
    23    23    22    1
    24    23    24    1
    25    22    32    1
    26    24    25    2
    27    32    31    2
    28    32    25    1
    29    31    29    2
    30    25    26    1
    31    29    30    1
    32    29    28    2
    33    26    28    2
    34    26    27    2
