@<TRIPOS>MOLECULE
4f38_GER_A_1.pdb
 20 19 0 0 0
SMALL
GASTEIGER

@<TRIPOS>ATOM
      1  C1         7.6370   18.8430   17.7540 C.3   201  GER201      0.0300
      2  C2         6.4730   19.0010   16.7770 C.2   201  GER201     -0.0342
      3  C3         6.2460   20.3700   16.1170 C.2   201  GER201     -0.0478
      4  C4         7.2540   21.5120   16.2800 C.3   201  GER201      0.0260
      5  C5         5.0370   20.5310   15.2000 C.3   201  GER201      0.0263
      6  C6         3.9730   19.4410   15.4370 C.3   201  GER201      0.0297
      7  C7         2.6050   20.1040   15.3410 C.2   201  GER201     -0.0342
      8  C8         1.4240   19.2460   14.9450 C.2   201  GER201     -0.0478
      9  C9         1.6200   17.7790   14.6660 C.3   201  GER201      0.0260
     10  C10        0.0490   19.9020   14.8400 C.3   201  GER201      0.0263
     11  C11       -0.9110   19.1410   13.9610 C.3   201  GER201      0.0297
     12  C12       -2.1770   18.8300   14.7080 C.2   201  GER201     -0.0342
     13  C13       -3.4800   19.2090   14.0530 C.2   201  GER201     -0.0478
     14  C14       -3.4680   19.8050   12.6700 C.3   201  GER201      0.0260
     15  C15       -4.7840   18.8430   14.7250 C.3   201  GER201      0.0263
     16  C16       -5.9540   19.6950   14.3120 C.3   201  GER201      0.0297
     17  C17       -6.9970   18.8280   13.6670 C.2   201  GER201     -0.0342
     18  C18       -8.3450   19.4580   13.4680 C.2   201  GER201     -0.0478
     19  C19       -9.4500   18.7070   12.7720 C.3   201  GER201      0.0260
     20  C20       -8.6040   20.8710   13.8980 C.3   201  GER201      0.0260
@<TRIPOS>BOND
     1    14    13    1
     2    19    18    1
     3    18    17    2
     4    18    20    1
     5    17    16    1
     6    11    12    1
     7    11    10    1
     8    13    12    2
     9    13    15    1
    10    16    15    1
    11     9     8    1
    12    10     8    1
    13     8     7    2
    14     5     6    1
    15     5     3    1
    16     7     6    1
    17     3     4    1
    18     3     2    2
    19     2     1    1
