@<TRIPOS>MOLECULE
4f39_KAI_A_1.pdb
 15 15 0 0 0
SMALL
GASTEIGER

@<TRIPOS>ATOM
      1  N          2.7220   23.7450   13.7900 N.3   301  KAI301     -0.2080
      2  CD         2.5790   22.4810   14.5790 C.3   301  KAI301      0.0933
      3  CD1        1.3770   20.9790   16.7820 C.2   301  KAI301     -0.0091
      4  CD2        2.3790   22.3430   18.5290 C.3   301  KAI301      0.0264
      5  CA         3.0850   24.8210   14.8010 C.3   301  KAI301      0.1766
      6  CB         2.4100   24.2500   16.0940 C.3   301  KAI301      0.0434
      7  CB1        0.8840   24.4420   16.2600 C.3   301  KAI301      0.1164
      8  CG         2.8590   22.7980   16.0220 C.3   301  KAI301      0.0382
      9  CG1        0.3130   25.8270   16.5500 C.2   301  KAI301      0.3649
     10  CG2        2.1640   22.0400   17.0960 C.2   301  KAI301     -0.0428
     11  C          4.5990   25.0510   14.8960 C.2   301  KAI301      0.3803
     12  O          5.3380   24.6940   14.0130 O.co2 301  KAI301     -0.2441
     13  OD1       -0.9040   26.0590   16.5820 O.co2 301  KAI301     -0.2457
     14  OD2        1.2240   26.6640   17.1590 O.co2 301  KAI301     -0.2457
     15  OXT        4.9800   25.9430   15.8690 O.co2 301  KAI301     -0.2441
@<TRIPOS>BOND
     1     1     2    1
     2     1     5    1
     3    12    11   ar
     4     2     8    1
     5     5    11    1
     6     5     6    1
     7    11    15   ar
     8     8     6    1
     9     8    10    1
    10     6     7    1
    11     7     9    1
    12     9    13   ar
    13     9    14   ar
    14     3    10    2
    15    10     4    1
