@<TRIPOS>MOLECULE
4f3b_GLU_A_1.pdb
 10 9 0 0 0
SMALL
GASTEIGER

@<TRIPOS>ATOM
      1  N         -2.6070  -21.4910   13.1430 N.3   301  GLU301     -0.1208
      2  CA        -2.8530  -22.1630   14.4260 C.3   301  GLU301      0.1949
      3  C         -4.3380  -22.4390   14.6360 C.2   301  GLU301      0.3819
      4  O         -4.7530  -22.9250   15.7050 O.co2 301  GLU301     -0.2441
      5  CB        -2.3220  -21.3290   15.5930 C.3   301  GLU301      0.0424
      6  CG        -0.8030  -21.3740   15.7770 C.3   301  GLU301      0.1161
      7  CD        -0.2840  -22.6980   16.3300 C.2   301  GLU301      0.3649
      8  OE1        0.9640  -22.8670   16.3880 O.co2 301  GLU301     -0.2457
      9  OE2       -1.1090  -23.5710   16.7070 O.co2 301  GLU301     -0.2457
     10  OXT       -5.1430  -22.1540   13.7400 O.co2 301  GLU301     -0.2441
@<TRIPOS>BOND
     1     1     2    1
     2    10     3   ar
     3     2     3    1
     4     2     5    1
     5     3     4   ar
     6     5     6    1
     7     6     7    1
     8     7     8   ar
     9     7     9   ar
