@<TRIPOS>MOLECULE
4f3g_KAI_A_1.pdb
 15 15 0 0 0
SMALL
GASTEIGER

@<TRIPOS>ATOM
      1  N          2.7970    1.8810   19.9440 N.3   301  KAI301     -0.2080
      2  CD         2.1340    1.7330   18.6100 C.3   301  KAI301      0.0933
      3  CD1        2.0090    0.5210   15.9520 C.2   301  KAI301     -0.0091
      4  CD2        4.0870    1.5190   15.1750 C.3   301  KAI301      0.0264
      5  CA         4.2430    2.2410   19.6460 C.3   301  KAI301      0.1766
      6  CB         4.4340    1.5610   18.2480 C.3   301  KAI301      0.0434
      7  CB1        4.6840    0.0350   18.2130 C.3   301  KAI301      0.1164
      8  CG         3.1600    2.0080   17.5470 C.3   301  KAI301      0.0382
      9  CG1        6.0150   -0.5350   18.6950 C.2   301  KAI301      0.3649
     10  CG2        3.0770    1.3090   16.2370 C.2   301  KAI301     -0.0428
     11  C          4.4900    3.7550   19.6800 C.2   301  KAI301      0.3803
     12  O          3.7240    4.4970   20.2420 O.co2 301  KAI301     -0.2441
     13  OD1        6.2280   -1.7520   18.7940 O.co2 301  KAI301     -0.2457
     14  OD2        7.0470    0.3740   18.6120 O.co2 301  KAI301     -0.2457
     15  OXT        5.7600    4.1340   19.3180 O.co2 301  KAI301     -0.2441
@<TRIPOS>BOND
     1     4    10    1
     2     3    10    2
     3    10     8    1
     4     8     6    1
     5     8     2    1
     6     7     6    1
     7     7     9    1
     8     6     5    1
     9     2     1    1
    10    14     9   ar
    11     9    13   ar
    12    15    11   ar
    13     5    11    1
    14     5     1    1
    15    11    12   ar
