@<TRIPOS>MOLECULE
4f3h_C2E_A_1.pdb
 46 52 0 0 0
SMALL
GASTEIGER

@<TRIPOS>ATOM
      1  P1        23.3040  -27.0400  -37.3880 P.3   501  C2E501      0.2141
      2  O2P       24.5870  -26.8170  -36.6580 O.3   501  C2E501     -0.4373
      3  O1P       22.5640  -25.7570  -37.5460 O.2   501  C2E501     -0.5172
      4  O5'       23.6000  -27.6560  -38.7900 O.3   501  C2E501     -0.3114
      5  C5'       22.5780  -28.0070  -39.7120 C.3   501  C2E501      0.1812
      6  C4'       23.2810  -28.5550  -40.9630 C.3   501  C2E501      0.1771
      7  O4'       24.1290  -27.5440  -41.4050 O.3   501  C2E501     -0.3327
      8  C3'       24.1890  -29.7540  -40.7750 C.3   501  C2E501      0.1857
      9  O3'       23.4280  -30.9870  -40.8940 O.3   501  C2E501     -0.3112
     10  C2'       25.2290  -29.4870  -41.8490 C.3   501  C2E501      0.2282
     11  O2'       24.8320  -30.1290  -43.0700 O.3   501  C2E501     -0.2159
     12  C1'       25.3480  -27.9590  -42.0050 C.3   501  C2E501      0.2292
     13  N9        26.5180  -27.4770  -41.2310 N.pl3 501  C2E501     -0.2354
     14  C8        26.5100  -26.8220  -40.0590 C.3   501  C2E501      0.2246
     15  N7        27.7530  -26.5240  -39.6480 N.2   501  C2E501     -0.2322
     16  C5        28.5960  -26.9780  -40.5750 C.2   501  C2E501      0.2182
     17  C6        30.0820  -26.9820  -40.7860 C.1   501  C2E501      0.2372
     18  O6        30.8520  -26.4560  -39.9410 O.2   501  C2E501     -0.2069
     19  N1        30.5720  -27.5590  -41.9160 N.2   501  C2E501     -0.2485
     20  C2        29.7530  -28.1310  -42.8510 C.1   501  C2E501      0.2531
     21  N2        30.2710  -28.6920  -43.9660 N.pl3 501  C2E501     -0.0226
     22  N3        28.3940  -28.1570  -42.7020 N.2   501  C2E501     -0.3074
     23  C4        27.7770  -27.6080  -41.6130 C.2   501  C2E501      0.2300
     24  P11       23.7440  -31.9910  -39.7010 P.3   501  C2E501      0.2141
     25  O21       25.2140  -32.2400  -39.7760 O.3   501  C2E501     -0.4373
     26  O11       22.9360  -33.2130  -39.9460 O.2   501  C2E501     -0.5172
     27  O5A       23.3390  -31.3010  -38.3090 O.3   501  C2E501     -0.3114
     28  C5A       21.9450  -31.0470  -38.0300 C.3   501  C2E501      0.1812
     29  C4A       21.7120  -30.2970  -36.7220 C.3   501  C2E501      0.1771
     30  O4A       21.2980  -30.9990  -35.5120 O.3   501  C2E501     -0.3327
     31  C3A       22.8670  -29.3390  -36.3430 C.3   501  C2E501      0.1857
     32  O3A       22.3480  -28.0080  -36.5380 O.3   501  C2E501     -0.3112
     33  C2A       23.2190  -29.7110  -34.9280 C.3   501  C2E501      0.2282
     34  O2A       23.3830  -28.5360  -34.1290 O.3   501  C2E501     -0.2159
     35  C1A       22.1120  -30.6350  -34.3950 C.3   501  C2E501      0.2292
     36  N91       22.6430  -31.8210  -33.6660 N.pl3 501  C2E501     -0.2354
     37  C81       22.3110  -32.1610  -32.3870 C.3   501  C2E501      0.2246
     38  N71       22.9470  -33.2880  -31.9820 N.2   501  C2E501     -0.2322
     39  C51       23.7150  -33.7030  -33.0120 C.2   501  C2E501      0.2182
     40  C61       24.6590  -34.8280  -33.2860 C.1   501  C2E501      0.2372
     41  O61       24.9040  -35.6950  -32.4380 O.2   501  C2E501     -0.2069
     42  N11       25.2540  -34.8930  -34.5040 N.2   501  C2E501     -0.2485
     43  C21       25.0280  -33.9720  -35.4820 C.1   501  C2E501      0.2531
     44  N21       25.6610  -34.1120  -36.6580 N.pl3 501  C2E501     -0.0226
     45  N31       24.1810  -32.9130  -35.3100 N.2   501  C2E501     -0.3074
     46  C41       23.5090  -32.7270  -34.1190 C.2   501  C2E501      0.2300
@<TRIPOS>BOND
     1    21    20    1
     2    11    10    1
     3    20    22    2
     4    20    19    2
     5    22    23    2
     6    12    10    1
     7    12     7    1
     8    12    13    1
     9    19    17    2
    10    10     8    1
    11    23    13    1
    12    23    16    1
    13     7     6    1
    14    13    14    1
    15     6     8    1
    16     6     5    1
    17     9     8    1
    18     9    24    1
    19    17    16    1
    20    17    18    2
    21    16    15    2
    22    14    15    1
    23    26    24    2
    24    25    24    1
    25     5     4    1
    26    24    27    1
    27     4     1    1
    28    27    28    1
    29    28    29    1
    30     3     1    2
    31     1     2    1
    32     1    32    1
    33    29    31    1
    34    29    30    1
    35    44    43    1
    36    32    31    1
    37    31    33    1
    38    30    35    1
    39    43    45    2
    40    43    42    2
    41    45    46    2
    42    33    35    1
    43    33    34    1
    44    42    40    2
    45    35    36    1
    46    46    36    1
    47    46    39    1
    48    36    37    1
    49    40    39    1
    50    40    41    2
    51    39    38    2
    52    37    38    1
