@<TRIPOS>MOLECULE
4f3i_0S6_A_1.pdb
 28 31 0 0 0
SMALL
GASTEIGER

@<TRIPOS>ATOM
      1 CL1        30.0780   48.6070   -6.8350 Cl    203  0S6203     -0.0822
      2  C15       29.0620   49.3100   -5.5850 C.ar  203  0S6203      0.0577
      3  C16       29.2980   48.9730   -4.2560 C.ar  203  0S6203      0.0114
      4  C17       28.4950   49.5700   -3.2990 C.ar  203  0S6203      0.0023
      5  C13       28.0650   50.1620   -5.9820 C.ar  203  0S6203      0.0114
      6  C14       27.2380   50.7460   -4.9910 C.ar  203  0S6203      0.0023
      7  C12       27.4570   50.4280   -3.6580 C.ar  203  0S6203      0.0174
      8  C8        26.5330   50.9910   -2.6140 C.2   203  0S6203      0.0780
      9  C5        27.0840   51.0760   -1.2410 C.ar  203  0S6203      0.0359
     10  C4        28.3570   51.6390   -0.9240 C.ar  203  0S6203     -0.0165
     11  C7        29.2960   52.3370   -1.8280 C.3   203  0S6203      0.0313
     12  C2        28.6690   51.5130    0.4560 C.ar  203  0S6203      0.0051
     13  C6        29.9260   51.8780    1.2240 C.3   203  0S6203      0.0379
     14  S1        27.3520   50.7640    1.3280 S.2   203  0S6203     -0.0740
     15  C3        26.5040   50.5950   -0.1490 C.ar  203  0S6203      0.0970
     16  N9        25.1640   50.0220   -0.1550 N.ar  203  0S6203     -0.2736
     17  C11       24.6130   48.9560    0.6150 C.ar  203  0S6203      0.1477
     18  C28       25.3670   48.1070    1.5930 C.3   203  0S6203      0.0742
     19  N27       23.2960   48.8830    0.3010 N.ar  203  0S6203     -0.1332
     20  N21       22.9960   49.8580   -0.6460 N.ar  203  0S6203     -0.1313
     21  C19       24.1120   50.5510   -0.8840 C.ar  203  0S6203      0.1702
     22  N10       25.2590   51.0700   -2.8930 N.2   203  0S6203     -0.2640
     23  C20       24.3770   51.6530   -1.8660 C.3   203  0S6203      0.1727
     24  C22       23.0760   52.0490   -2.4700 C.3   203  0S6203      0.1415
     25  C23       23.3210   53.2020   -3.4120 C.2   203  0S6203      0.3196
     26  O24       24.2910   53.9370   -3.4370 O.2   203  0S6203     -0.2500
     27  O25       22.2190   53.4940   -4.2050 O.3   203  0S6203     -0.4443
     28  C26       22.3100   54.6030   -5.1170 C.3   203  0S6203      0.2556
@<TRIPOS>BOND
     1     1     2    1
     2     5     2   ar
     3     5     6   ar
     4     2     3   ar
     5    28    27    1
     6     6     7   ar
     7     3     4   ar
     8    27    25    1
     9     7     4   ar
    10     7     8    1
    11    26    25    2
    12    25    24    1
    13    22     8    2
    14    22    23    1
    15     8     9    1
    16    24    23    1
    17    23    21    1
    18    11    10    1
    19     9    10   ar
    20     9    15   ar
    21    10    12   ar
    22    21    20   ar
    23    21    16   ar
    24    20    19   ar
    25    16    15    1
    26    16    17   ar
    27    15    14   ar
    28    19    17   ar
    29    12    13    1
    30    12    14   ar
    31    17    18    1
