@<TRIPOS>MOLECULE
4f3x_NAD_A_1.pdb
 44 48 0 0 0
SMALL
GASTEIGER

@<TRIPOS>ATOM
      1  PA       -26.3810   21.9560    5.3950 P.3   500  NAD500      0.2189
      2  O1A      -25.9730   22.9150    4.3120 O.2   500  NAD500     -0.5170
      3  O2A      -26.6070   22.4340    6.7990 O.3   500  NAD500     -0.4371
      4  O5B      -25.3690   20.6920    5.4760 O.3   500  NAD500     -0.3112
      5  C5B      -24.9330   19.9570    4.3270 C.3   500  NAD500      0.1813
      6  C4B      -23.4950   19.4980    4.5400 C.3   500  NAD500      0.1821
      7  O4B      -22.6610   20.6680    4.5850 O.3   500  NAD500     -0.3135
      8  C3B      -23.2390   18.7550    5.8470 C.3   500  NAD500      0.2184
      9  O3B      -22.2880   17.7100    5.6240 O.3   500  NAD500     -0.2174
     10  C2B      -22.6160   19.8420    6.6870 C.3   500  NAD500      0.2570
     11  O2B      -21.8330   19.3730    7.7720 O.3   500  NAD500     -0.2130
     12  C1B      -21.7750   20.6040    5.6830 C.3   500  NAD500      0.3186
     13  N9A      -21.5040   21.9820    6.1510 N.pl3 500  NAD500     -0.1439
     14  C8A      -22.3300   22.7130    6.9090 C.3   500  NAD500      0.3377
     15  N7A      -21.7920   23.9300    7.1810 N.2   500  NAD500     -0.2095
     16  C5A      -20.5880   23.9830    6.5800 C.2   500  NAD500      0.2526
     17  C6A      -19.5090   24.9960    6.4800 C.2   500  NAD500      0.4393
     18  N6A      -19.6230   26.2080    7.0940 N.pl3 500  NAD500      0.2180
     19  N1A      -18.4200   24.6700    5.7690 N.2   500  NAD500      0.0021
     20  C2A      -18.3130   23.4650    5.1470 C.3   500  NAD500      0.5254
     21  N3A      -19.2490   22.4930    5.2060 N.2   500  NAD500     -0.0055
     22  C4A      -20.4030   22.7040    5.8940 C.2   500  NAD500      0.3518
     23  O3       -27.6950   21.2360    4.7950 O.3   500  NAD500     -0.2703
     24  PN       -28.4280   20.0020    5.5110 P.3   500  NAD500      0.2189
     25  O1N      -29.5240   19.4960    4.5970 O.2   500  NAD500     -0.5170
     26  O2N      -27.4190   18.9700    5.9790 O.3   500  NAD500     -0.4371
     27  O5D      -28.9810   20.8390    6.7890 O.3   500  NAD500     -0.3112
     28  C5D      -30.3630   21.0390    7.0910 C.3   500  NAD500      0.1813
     29  C4D      -30.8440   22.4750    6.8830 C.3   500  NAD500      0.1799
     30  O4D      -30.5200   22.9490    5.5720 O.3   500  NAD500     -0.3327
     31  C3D      -32.3610   22.5220    7.0030 C.3   500  NAD500      0.2158
     32  O3D      -32.7420   23.6130    7.8510 O.3   500  NAD500     -0.2175
     33  C2D      -32.8920   22.7070    5.5920 C.3   500  NAD500      0.2309
     34  O2D      -33.9670   23.6490    5.5440 O.3   500  NAD500     -0.2158
     35  C1D      -31.7060   23.2570    4.8180 C.3   500  NAD500      0.2263
     36  N1N      -31.6280   22.7280    3.4450 N.pl3 500  NAD500     -0.2787
     37  C2N      -31.2150   21.4710    3.1890 C.3   500  NAD500      0.1244
     38  C3N      -31.1330   21.0000    1.8770 C.2   500  NAD500      0.0544
     39  C7N      -30.6760   19.6020    1.5720 C.2   500  NAD500      0.2818
     40  O7N      -30.2740   19.3320    0.4460 O.2   500  NAD500     -0.2670
     41  N7N      -30.7240   18.6810    2.5360 N.am  500  NAD500     -0.0839
     42  C4N      -31.4800   21.8460    0.8320 C.2   500  NAD500      0.0033
     43  C5N      -31.8960   23.1370    1.1140 C.2   500  NAD500      0.0157
     44  C6N      -31.9610   23.5540    2.4390 C.2   500  NAD500      0.0633
@<TRIPOS>BOND
     1    40    39    2
     2    42    43    1
     3    42    38    2
     4    43    44    2
     5    39    38    1
     6    39    41   am
     7    38    37    1
     8    44    36    1
     9    37    36    1
    10    36    35    1
    11     2     1    2
    12     5     6    1
    13     5     4    1
    14     6     7    1
    15     6     8    1
    16     7    12    1
    17    25    24    2
    18    23     1    1
    19    23    24    1
    20    35    30    1
    21    35    33    1
    22    20    21    1
    23    20    19    1
    24    21    22    2
    25     1     4    1
    26     1     3    1
    27    24    26    1
    28    24    27    1
    29    34    33    1
    30    30    29    1
    31    33    31    1
    32     9     8    1
    33    12    13    1
    34    12    10    1
    35    19    17    2
    36     8    10    1
    37    22    13    1
    38    22    16    1
    39    13    14    1
    40    17    16    1
    41    17    18    1
    42    16    15    2
    43    10    11    1
    44    27    28    1
    45    29    31    1
    46    29    28    1
    47    14    15    1
    48    31    32    1
