@<TRIPOS>MOLECULE
4f48_C2E_A_1.pdb
 46 52 0 0 0
SMALL
GASTEIGER

@<TRIPOS>ATOM
      1  P1        18.6460   62.1800   23.9450 P.3   501  C2E501      0.2141
      2  O2P       19.3860   62.9810   24.9800 O.3   501  C2E501     -0.4373
      3  O1P       19.1110   60.7480   23.9530 O.2   501  C2E501     -0.5172
      4  O5'       17.0400   62.1860   24.1950 O.3   501  C2E501     -0.3114
      5  C5'       16.1910   61.4700   23.2640 C.3   501  C2E501      0.1812
      6  C4'       14.6530   61.5160   23.5670 C.3   501  C2E501      0.1771
      7  O4'       14.2940   60.3200   24.2450 O.3   501  C2E501     -0.3327
      8  C3'       14.0890   62.6730   24.4160 C.3   501  C2E501      0.1857
      9  O3'       13.6350   63.8310   23.5840 O.3   501  C2E501     -0.3112
     10  C2'       12.9650   61.9510   25.2130 C.3   501  C2E501      0.2282
     11  O2'       11.6780   62.2240   24.6270 O.3   501  C2E501     -0.2159
     12  C1'       13.2480   60.4280   25.2200 C.3   501  C2E501      0.2292
     13  N9        13.6910   59.9350   26.5840 N.pl3 501  C2E501     -0.2354
     14  C8        14.9290   59.5000   26.9370 C.3   501  C2E501      0.2246
     15  N7        14.9940   59.1060   28.2380 N.2   501  C2E501     -0.2322
     16  C5        13.7790   59.2730   28.7500 C.2   501  C2E501      0.2182
     17  C6        13.1460   59.0370   30.0710 C.1   501  C2E501      0.2372
     18  O6        13.8290   58.5710   31.0160 O.2   501  C2E501     -0.2069
     19  N1        11.8150   59.3340   30.2260 N.2   501  C2E501     -0.2485
     20  C2        11.0530   59.8430   29.2000 C.1   501  C2E501      0.2531
     21  N2         9.7390   60.1150   29.4060 N.pl3 501  C2E501     -0.0226
     22  N3        11.5830   60.0880   27.9460 N.2   501  C2E501     -0.3074
     23  C4        12.9100   59.8270   27.6670 C.2   501  C2E501      0.2300
     24  P11       14.5910   65.1850   23.6550 P.3   501  C2E501      0.2141
     25  O21       14.7200   65.5990   25.1110 O.3   501  C2E501     -0.4373
     26  O11       13.9330   66.2500   22.8120 O.2   501  C2E501     -0.5172
     27  O5A       16.0310   64.8960   23.0000 O.3   501  C2E501     -0.3114
     28  C5A       16.1060   64.5320   21.5970 C.3   501  C2E501      0.1812
     29  C4A       17.5390   64.2590   21.1330 C.3   501  C2E501      0.1771
     30  O4A       18.0490   65.1870   20.1350 O.3   501  C2E501     -0.3327
     31  C3A       18.5730   64.1800   22.2870 C.3   501  C2E501      0.1857
     32  O3A       18.9970   62.7930   22.4570 O.3   501  C2E501     -0.3112
     33  C2A       19.6670   65.1710   21.8970 C.3   501  C2E501      0.2282
     34  O2A       20.9580   64.5140   21.9000 O.3   501  C2E501     -0.2159
     35  C1A       19.3220   65.7430   20.5070 C.3   501  C2E501      0.2292
     36  N91       19.2960   67.2520   20.4870 N.pl3 501  C2E501     -0.2354
     37  C81       18.3160   68.0570   20.9610 C.3   501  C2E501      0.2246
     38  N71       18.6150   69.3720   20.7780 N.2   501  C2E501     -0.2322
     39  C51       19.8190   69.4390   20.1670 C.2   501  C2E501      0.2182
     40  C61       20.7500   70.5210   19.6690 C.1   501  C2E501      0.2372
     41  O61       20.4750   71.7390   19.7770 O.2   501  C2E501     -0.2069
     42  N11       21.9210   70.1490   19.0850 N.2   501  C2E501     -0.2485
     43  C21       22.2830   68.8360   18.9360 C.1   501  C2E501      0.2531
     44  N21       23.4710   68.5470   18.3400 N.pl3 501  C2E501     -0.0226
     45  N31       21.4820   67.8020   19.3690 N.2   501  C2E501     -0.3074
     46  C41       20.2620   68.0370   19.9790 C.2   501  C2E501      0.2300
@<TRIPOS>BOND
     1    44    43    1
     2    43    42    2
     3    43    45    2
     4    42    40    2
     5    45    46    2
     6    40    41    2
     7    40    39    1
     8    46    39    1
     9    46    36    1
    10    30    35    1
    11    30    29    1
    12    39    38    2
    13    36    35    1
    14    36    37    1
    15    35    33    1
    16    38    37    1
    17    29    28    1
    18    29    31    1
    19    28    27    1
    20    33    34    1
    21    33    31    1
    22    31    32    1
    23    32     1    1
    24    26    24    2
    25    27    24    1
    26     5     6    1
    27     5     4    1
    28     6     7    1
    29     6     8    1
    30     9    24    1
    31     9     8    1
    32    24    25    1
    33     1     3    2
    34     1     4    1
    35     1     2    1
    36     7    12    1
    37     8    10    1
    38    11    10    1
    39    10    12    1
    40    12    13    1
    41    13    14    1
    42    13    23    1
    43    14    15    1
    44    23    22    2
    45    23    16    1
    46    22    20    2
    47    15    16    2
    48    16    17    1
    49    20    21    1
    50    20    19    2
    51    17    19    2
    52    17    18    2
