@<TRIPOS>MOLECULE
4f49_K36_A_1.pdb
 29 30 0 0 0
SMALL
GASTEIGER

@<TRIPOS>ATOM
      1  C7        10.6750   -9.3240   16.4340 C.3   401  K36401      0.2368
      2  O8        11.4370   -9.1760   17.6340 O.3   401  K36401     -0.4285
      3  C9        12.0540   -7.8750   17.9060 C.2   401  K36401      0.4218
      4  O10       11.9400   -6.9830   17.0730 O.2   401  K36401     -0.2245
      5  C1        11.4980  -10.0130   15.3680 C.ar  401  K36401      0.0213
      6  C2        12.7700  -10.4810   15.6590 C.ar  401  K36401     -0.0007
      7  C3        13.5200  -11.1140   14.6800 C.ar  401  K36401     -0.0002
      8  C4        13.0040  -11.2610   13.4020 C.ar  401  K36401     -0.0000
      9  C5        11.7320  -10.7860   13.1010 C.ar  401  K36401     -0.0002
     10  C6        10.9830  -10.1650   14.0920 C.ar  401  K36401     -0.0007
     11  N11       12.7660   -7.6280   19.0620 N.am  401  K36401     -0.1611
     12  C12       13.5880   -6.3940   19.1540 C.3   401  K36401      0.1761
     13  C17       14.6940   -6.4620   18.1380 C.2   401  K36401      0.2614
     14  O18       15.2810   -7.5140   17.9250 O.2   401  K36401     -0.2715
     15  C13       14.1330   -6.2280   20.5700 C.3   401  K36401      0.0312
     16  C14       13.1330   -5.4940   21.4750 C.3   401  K36401      0.0022
     17  C15       11.7110   -5.9970   21.2530 C.3   401  K36401      0.0001
     18  C16       13.5090   -5.6130   22.9530 C.3   401  K36401      0.0001
     19  N19       15.0130   -5.3500   17.3880 N.am  401  K36401     -0.2030
     20  C20       16.1240   -5.4470   16.4100 C.3   401  K36401      0.1296
     21  C21       17.2540   -4.5050   16.8460 C.3   401  K36401      0.2036
     22  O22       18.2570   -4.3620   15.8120 O.3   401  K36401     -0.2185
     23  C24       15.6220   -5.1480   14.9860 C.3   401  K36401      0.0454
     24  C25       14.5660   -6.1660   14.5560 C.3   401  K36401      0.1318
     25  C26       15.2610   -7.4740   14.2110 C.2   401  K36401      0.0116
     26  C27       14.7310   -7.9070   12.8440 C.2   401  K36401      0.1073
     27  N28       13.8810   -6.8130   12.3170 N.2   401  K36401     -0.1785
     28  C29       13.8520   -5.8260   13.2770 C.1   401  K36401      0.1336
     29  O30       13.2400   -4.7700   13.0920 O.2   401  K36401     -0.2264
@<TRIPOS>BOND
     1    27    26    1
     2    27    28    2
     3    26    25    2
     4    29    28    2
     5     9     8   ar
     6     9    10   ar
     7    28    24    1
     8     8     7   ar
     9    10     5   ar
    10    25    24    1
    11    24    23    1
    12     7     6   ar
    13    23    20    1
    14     5     6   ar
    15     5     1    1
    16    22    21    1
    17    20    21    1
    18    20    19    1
    19     1     2    1
    20     4     3    2
    21    19    13   am
    22     2     3    1
    23     3    11   am
    24    14    13    2
    25    13    12    1
    26    11    12    1
    27    12    15    1
    28    15    16    1
    29    17    16    1
    30    16    18    1
