@<TRIPOS>MOLECULE
4f4a_UDP_A_1.pdb
 25 26 0 0 0
SMALL
GASTEIGER

@<TRIPOS>ATOM
      1  N1        11.8350    5.0700   47.1700 N.am  201  UDP201     -0.1766
      2  C2        10.8340    4.0660   47.3270 C.1   201  UDP201      0.2845
      3  N3        10.2490    3.8950   48.5000 N.2   201  UDP201     -0.2452
      4  C4        10.5900    4.6590   49.5470 C.1   201  UDP201      0.2182
      5  C5        11.5570    5.6480   49.4480 C.2   201  UDP201      0.1242
      6  C6        12.1720    5.8520   48.2240 C.2   201  UDP201      0.0929
      7  O2        10.4810    3.3380   46.3920 O.2   201  UDP201     -0.1918
      8  O4        10.0090    4.4610   50.6270 O.2   201  UDP201     -0.2085
      9  C1'       12.4700    5.2840   45.8570 C.3   201  UDP201      0.2401
     10  C2'       11.9910    6.5760   45.2030 C.3   201  UDP201      0.2319
     11  O2'       11.7790    6.2970   43.8190 O.3   201  UDP201     -0.2157
     12  C3'       13.1160    7.5750   45.3940 C.3   201  UDP201      0.2158
     13  C4'       14.2910    6.6070   45.3500 C.3   201  UDP201      0.1799
     14  O4'       13.8810    5.3930   45.9760 O.3   201  UDP201     -0.3320
     15  O3'       13.2410    8.6310   44.3940 O.3   201  UDP201     -0.2175
     16  C5'       15.5100    7.1540   46.0370 C.3   201  UDP201      0.1813
     17  O5'       15.2130    7.5110   47.3900 O.3   201  UDP201     -0.3111
     18  PA        15.8740    8.8820   47.9400 P.3   201  UDP201      0.2231
     19  O1A       15.6410    8.9240   49.4310 O.3   201  UDP201     -0.4370
     20  O2A       17.2600    9.0390   47.3270 O.2   201  UDP201     -0.5169
     21  O3A       14.8700    9.9670   47.2410 O.3   201  UDP201     -0.2261
     22  PB        15.2510   11.0620   46.1090 P.3   201  UDP201      0.5373
     23  O1B       14.8110   10.4650   44.7640 O.2   201  UDP201     -0.2221
     24  O2B       14.3770   12.2410   46.5640 O.3   201  UDP201     -0.1143
     25  O3B       16.7580   11.2970   46.2240 O.3   201  UDP201     -0.1143
@<TRIPOS>BOND
     1    11    10    1
     2    15    12    1
     3    23    22    2
     4    10    12    1
     5    10     9    1
     6    13    12    1
     7    13    14    1
     8    13    16    1
     9     9    14    1
    10     9     1    1
    11    16    17    1
    12    22    25    1
    13    22    24    1
    14    22    21    1
    15     7     2    2
    16     1     2   am
    17     1     6    1
    18    21    18    1
    19    20    18    2
    20     2     3    2
    21    17    18    1
    22    18    19    1
    23     6     5    2
    24     3     4    2
    25     5     4    1
    26     4     8    2
