@<TRIPOS>MOLECULE
4f4c_0SA_A_1.pdb
 34 35 0 0 0
SMALL
GASTEIGER

@<TRIPOS>ATOM
      1  CL       -26.8650  -17.5470  -11.1820 C.3   1405  0SA1405     0.0000
      2  CK       -26.0020  -16.4120  -10.6290 C.3   1405  0SA1405     0.0000
      3  CJ       -26.8070  -15.1090  -10.6040 C.3   1405  0SA1405     0.0000
      4  CI       -25.9000  -13.9570  -10.1630 C.3   1405  0SA1405     0.0000
      5  CH       -26.7110  -12.6640  -10.0780 C.3   1405  0SA1405     0.0000
      6  CG       -25.8860  -11.5900   -9.3660 C.3   1405  0SA1405     0.0000
      7  CF       -26.7840  -10.3770   -9.0990 C.3   1405  0SA1405     0.0000
      8  CD       -26.0540   -9.3620   -8.2240 C.3   1405  0SA1405     0.0000
      9  CC       -26.9380   -8.1290   -8.0320 C.3   1405  0SA1405     0.0009
     10  CB       -26.0780   -6.9970   -7.4600 C.3   1405  0SA1405     0.0117
     11  CA       -26.8470   -5.6670   -7.4720 C.3   1405  0SA1405     0.0599
     12  S1'      -25.7660   -4.2520   -7.1080 S.3   1405  0SA1405    -0.1094
     13  C1'      -25.7490   -4.2140   -5.3280 C.3   1405  0SA1405     0.1955
     14  C2'      -24.6000   -3.3330   -4.8660 C.3   1405  0SA1405     0.2218
     15  O2'      -23.3740   -3.8700   -5.3850 O.3   1405  0SA1405    -0.2167
     16  C3'      -24.5510   -3.3080   -3.3470 C.3   1405  0SA1405     0.2149
     17  O3'      -23.5820   -2.3270   -2.9430 O.3   1405  0SA1405    -0.2176
     18  O5'      -26.9640   -3.6240   -4.8490 O.3   1405  0SA1405    -0.3399
     19  C5'      -27.0210   -3.7380   -3.4210 C.3   1405  0SA1405     0.1788
     20  C6'      -28.3820   -3.1790   -3.0040 C.3   1405  0SA1405     0.2140
     21  O6'      -29.3960   -3.8620   -3.7460 O.3   1405  0SA1405    -0.2176
     22  C4'      -25.9060   -2.9470   -2.7470 C.3   1405  0SA1405     0.1803
     23  O1       -25.9220   -3.2260   -1.3340 O.3   1405  0SA1405    -0.3257
     24  C1       -25.3300   -2.1990   -0.5200 C.3   1405  0SA1405     0.2695
     25  O5       -26.1710   -1.0350   -0.4740 O.3   1405  0SA1405    -0.3256
     26  C5       -27.4630   -1.3260    0.0830 C.3   1405  0SA1405     0.1835
     27  C6       -28.3540   -0.0810    0.0410 C.3   1405  0SA1405     0.2142
     28  O6       -28.8440    0.1180   -1.2870 O.3   1405  0SA1405    -0.2176
     29  C4       -27.3530   -1.8200    1.5180 C.3   1405  0SA1405     0.2144
     30  O4       -28.6570   -2.2200    1.9670 O.3   1405  0SA1405    -0.2176
     31  C3       -26.4340   -3.0300    1.5670 C.3   1405  0SA1405     0.2198
     32  O3       -26.1910   -3.3800    2.9390 O.3   1405  0SA1405    -0.2174
     33  C2       -25.1080   -2.7010    0.9010 C.3   1405  0SA1405     0.2406
     34  O2       -24.2740   -3.8680    0.8980 O.3   1405  0SA1405    -0.2149
@<TRIPOS>BOND
     1     1     2    1
     2     2     3    1
     3     3     4    1
     4     4     5    1
     5     5     6    1
     6     6     7    1
     7     7     8    1
     8     8     9    1
     9     9    10    1
    10    11    10    1
    11    11    12    1
    12    12    13    1
    13    15    14    1
    14    13    14    1
    15    13    18    1
    16    14    16    1
    17    18    19    1
    18    21    20    1
    19    19    20    1
    20    19    22    1
    21    16    17    1
    22    16    22    1
    23    22    23    1
    24    23    24    1
    25    28    27    1
    26    24    25    1
    27    24    33    1
    28    25    26    1
    29    27    26    1
    30    26    29    1
    31    34    33    1
    32    33    31    1
    33    29    31    1
    34    29    30    1
    35    31    32    1
