@<TRIPOS>MOLECULE
4f4f_PLP_A_1.pdb
 15 15 0 0 0
SMALL
GASTEIGER

@<TRIPOS>ATOM
      1  N1        33.1670   43.7110   -9.9480 N.ar  501  PLP501     -0.2452
      2  C2        32.0680   44.5430   -9.7890 C.ar  501  PLP501      0.0978
      3  C2A       31.6920   45.6390  -10.7620 C.3   501  PLP501      0.0555
      4  C3        31.1750   44.3490   -8.6100 C.ar  501  PLP501      0.2049
      5  O3        30.0750   45.1690   -8.4540 O.3   501  PLP501     -0.2857
      6  C4        31.5530   43.2590   -7.6390 C.ar  501  PLP501      0.0182
      7  C4A       30.7420   42.9490   -6.4220 C.3   501  PLP501      0.0342
      8  C5        32.7460   42.4200   -7.9140 C.ar  501  PLP501      0.0261
      9  C6        33.4860   42.7020   -9.0870 C.ar  501  PLP501      0.0965
     10  C5A       33.0990   41.2700   -6.9480 C.3   501  PLP501      0.1815
     11  O4P       32.0760   40.1910   -6.8820 O.3   501  PLP501     -0.2653
     12  P         32.0460   38.9530   -5.7990 P.3   501  PLP501      0.5329
     13  O1P       33.4360   38.3380   -5.8550 O.3   501  PLP501     -0.1145
     14  O2P       31.7310   39.6370   -4.4840 O.3   501  PLP501     -0.1145
     15  O3P       30.9530   37.9890   -6.2090 O.2   501  PLP501     -0.2224
@<TRIPOS>BOND
     1     3     2    1
     2     1     2   ar
     3     1     9   ar
     4     2     4   ar
     5     9     8   ar
     6     4     5    1
     7     4     6   ar
     8     8     6   ar
     9     8    10    1
    10     6     7    1
    11    10    11    1
    12    11    12    1
    13    15    12    2
    14    13    12    1
    15    12    14    1
