@<TRIPOS>MOLECULE
4f4o_HEM_A_1.pdb
 43 50 0 0 0
SMALL
GASTEIGER

@<TRIPOS>ATOM
      1  CHA      -32.7430  -11.8920   79.1940 C.2   201  HEM201      0.0000
      2  CHB      -34.2280  -16.2670   77.6630 C.2   201  HEM201      0.0000
      3  CHC      -31.8230  -15.5350   73.4820 C.2   201  HEM201      0.0000
      4  CHD      -30.0240  -11.3550   75.1670 C.2   201  HEM201      0.0000
      5  C1A      -33.3030  -13.1500   79.1460 C.2   201  HEM201      0.0000
      6  C2A      -33.9820  -13.8140   80.2290 C.2   201  HEM201      0.0000
      7  C3A      -34.3970  -15.0130   79.8160 C.2   201  HEM201      0.0000
      8  C4A      -33.9910  -15.1640   78.4440 C.2   201  HEM201      0.0000
      9  CMA      -35.1700  -16.0570   80.6570 C.3   201  HEM201      0.0000
     10  CAA      -34.1770  -13.2520   81.6460 C.3   201  HEM201      0.0000
     11  CBA      -35.4250  -12.4040   81.6780 C.3   201  HEM201      0.0000
     12  CGA      -35.5850  -11.9950   83.1160 C.2   201  HEM201      0.0000
     13  O1A      -34.6110  -12.2540   83.9350 O.co2 201  HEM201      0.0000
     14  O2A      -36.6890  -11.4080   83.4100 O.co2 201  HEM201      0.0000
     15  C1B      -33.7000  -16.4630   76.4020 C.ar  201  HEM201      0.0000
     16  C2B      -33.8980  -17.6350   75.5610 C.ar  201  HEM201      0.0000
     17  C3B      -33.2410  -17.4150   74.4210 C.ar  201  HEM201      0.0000
     18  C4B      -32.5950  -16.1150   74.4900 C.ar  201  HEM201      0.0000
     19  CMB      -34.7380  -18.8700   75.9620 C.3   201  HEM201      0.0000
     20  CAB      -33.0920  -18.3400   73.2090 C.2   201  HEM201      0.0000
     21  CBB      -33.2810  -19.6530   73.2860 C.2   201  HEM201      0.0000
     22  C1C      -31.0690  -14.3790   73.5780 C.2   201  HEM201      0.0000
     23  C2C      -30.0100  -13.9360   72.6860 C.2   201  HEM201      0.0000
     24  C3C      -29.5310  -12.7630   73.1600 C.2   201  HEM201      0.0000
     25  C4C      -30.2430  -12.4580   74.3720 C.2   201  HEM201      0.0000
     26  CMC      -29.5680  -14.6950   71.3960 C.3   201  HEM201      0.0000
     27  CAC      -28.3920  -11.8630   72.6190 C.2   201  HEM201      0.0000
     28  CBC      -27.4090  -12.3290   71.8420 C.2   201  HEM201      0.0000
     29  C1D      -30.5570  -11.1110   76.4150 C.ar  201  HEM201      0.0000
     30  C2D      -30.2250   -9.9810   77.2450 C.ar  201  HEM201      0.0000
     31  C3D      -31.0810  -10.1320   78.5060 C.ar  201  HEM201      0.0000
     32  C4D      -31.8420  -11.3450   78.3070 C.ar  201  HEM201      0.0000
     33  CMD      -29.2220   -8.8530   76.9260 C.3   201  HEM201      0.0000
     34  CAD      -31.0790   -9.2040   79.7240 C.3   201  HEM201      0.0000
     35  CBD      -30.1780   -9.9390   80.7030 C.3   201  HEM201      0.0000
     36  CGD      -29.9590   -9.1220   81.9390 C.2   201  HEM201      0.0000
     37  O1D      -29.8710   -9.7510   83.0410 O.co2 201  HEM201      0.0000
     38  O2D      -29.8890   -7.8620   81.7900 O.co2 201  HEM201      0.0000
     39  NA       -33.3340  -14.0100   78.0690 N.2   201  HEM201      0.0000
     40  NB       -32.9100  -15.5550   75.7220 N.ar  201  HEM201      0.0000
     41  NC       -31.1750  -13.4510   74.5960 N.2   201  HEM201      0.0000
     42  ND       -31.5080  -11.8830   77.0670 N.ar  201  HEM201      0.0000
     43 FE        -32.3100  -13.7380   76.4360 Fe    201  HEM201      0.0000
@<TRIPOS>BOND
     1    26    23    1
     2    28    27    2
     3    27    24    1
     4    23    24    2
     5    23    22    1
     6    24    25    1
     7    20    21    2
     8    20    17    1
     9     3    22    2
    10     3    18    1
    11    22    41    1
    12    25    41    2
    13    25     4    1
    14    17    18   ar
    15    17    16   ar
    16    18    40   ar
    17    41    43    1
    18     4    29    2
    19    16    19    1
    20    16    15   ar
    21    40    15   ar
    22    40    43    1
    23    15     2    1
    24    29    42   ar
    25    29    30   ar
    26    43    42    1
    27    43    39    1
    28    33    30    1
    29    42    32   ar
    30    30    31   ar
    31     2     8    2
    32    39     8    1
    33    39     5    2
    34    32    31   ar
    35    32     1    2
    36     8     7    1
    37    31    34    1
    38     5     1    1
    39     5     6    1
    40    34    35    1
    41     7     6    2
    42     7     9    1
    43     6    10    1
    44    35    36    1
    45    10    11    1
    46    11    12    1
    47    38    36   ar
    48    36    37   ar
    49    12    14   ar
    50    12    13   ar
