@<TRIPOS>MOLECULE
4f4o_FUC_F_1.pdb
 10 10 0 0 0
SMALL
GASTEIGER

@<TRIPOS>ATOM
      1  C1       -51.7400   29.4540  -44.9750 C.3   1006  FUC1006     0.1776
      2  C2       -50.4950   28.6940  -45.3970 C.3   1006  FUC1006     0.2141
      3  C3       -49.4650   28.8410  -44.3460 C.3   1006  FUC1006     0.2172
      4  C4       -50.0300   28.4590  -43.0750 C.3   1006  FUC1006     0.2116
      5  C5       -51.3260   29.1840  -42.7680 C.3   1006  FUC1006     0.1483
      6  C6       -51.6940   28.8410  -41.3820 C.3   1006  FUC1006     0.0349
      7  O2       -49.9810   29.1070  -46.6700 O.3   1006  FUC1006    -0.2176
      8  O3       -48.2100   28.1020  -44.6940 O.3   1006  FUC1006    -0.2175
      9  O4       -50.2330   27.0120  -43.0110 O.3   1006  FUC1006    -0.2177
     10  O5       -52.3610   28.9030  -43.8570 O.3   1006  FUC1006    -0.3508
@<TRIPOS>BOND
     1     7     2    1
     2     2     1    1
     3     2     3    1
     4     1    10    1
     5     8     3    1
     6     3     4    1
     7    10     5    1
     8     4     9    1
     9     4     5    1
    10     5     6    1
