@<TRIPOS>MOLECULE
4f4p_0SB_A_1.pdb
 29 32 0 0 0
SMALL
GASTEIGER

@<TRIPOS>ATOM
      1  C1        -0.1400    2.6730   12.3210 C.ar  701  0SB701      0.0480
      2  C2         0.1300    1.5660   13.1000 C.ar  701  0SB701      0.0171
      3  C3        -1.1800    2.5980   11.3950 C.ar  701  0SB701      0.0145
      4  C4        -0.5810    0.3910   12.9650 C.ar  701  0SB701      0.0308
      5  C5        -1.9190    1.4310   11.2650 C.ar  701  0SB701      0.0014
      6  C6        -1.6340    0.3320   12.0580 C.ar  701  0SB701      0.0026
      7  C7        -0.2130   -0.6830   13.9070 C.2   701  0SB701      0.1324
      8  C11       -0.7800   -2.5740   15.2650 C.2   701  0SB701     -0.0146
      9  C12        0.4980   -2.5900   15.7980 C.3   701  0SB701      0.1028
     10  N13        2.7330   -1.7120   15.9030 N.pl3 701  0SB701     -0.1682
     11  C15        3.8770   -0.0780   14.4380 C.ar  701  0SB701      0.0401
     12  C17        5.0510    0.6190   14.1700 C.ar  701  0SB701      0.0758
     13  C18        6.1420   -0.4400   16.0050 C.ar  701  0SB701      0.1003
     14  C19        6.1720    0.4530   14.9570 C.ar  701  0SB701      0.0246
     15  C27        0.7480    6.3520   12.8730 C.3   701  0SB701      0.1101
     16  F23        4.9890    2.8400   13.6140 F     701  0SB701     -0.1659
     17  C20        5.1330    1.6190   13.0540 C.3   701  0SB701      0.4187
     18  F21        6.3610    1.5480   12.4750 F     701  0SB701     -0.1659
     19  F22        4.1690    1.4370   12.1040 F     701  0SB701     -0.1659
     20  N16        4.9860   -1.1460   16.2790 N.ar  701  0SB701     -0.2273
     21  C14        3.8530   -0.9710   15.5030 C.ar  701  0SB701      0.1538
     22  C10        1.4220   -1.6360   15.3910 C.2   701  0SB701      0.1857
     23  N8         1.0590   -0.6860   14.4680 N.2   701  0SB701     -0.3893
     24  C9        -1.1470   -1.6190   14.3330 C.2   701  0SB701      0.0280
     25  N24        0.6400    3.8480   12.5240 N.pl3 701  0SB701     -0.3045
     26  C26        2.0780    3.7960   12.8500 C.3   701  0SB701      0.1096
     27  C28        2.3930    4.8600   13.9110 C.3   701  0SB701      0.1101
     28  N29        2.1410    6.1800   13.3320 N.3   701  0SB701     -0.2144
     29  C25        0.2720    5.1860   11.9840 C.3   701  0SB701      0.1096
@<TRIPOS>BOND
     1     5     3   ar
     2     5     6   ar
     3     3     1   ar
     4    29    25    1
     5    29    15    1
     6     6     4   ar
     7    19    17    1
     8     1    25    1
     9     1     2   ar
    10    18    17    1
    11    25    26    1
    12    26    27    1
    13    15    28    1
    14     4     2   ar
    15     4     7    1
    16    17    16    1
    17    17    12    1
    18    28    27    1
    19     7    24    1
    20     7    23    2
    21    12    11   ar
    22    12    14   ar
    23    24     8    2
    24    11    21   ar
    25    23    22    2
    26    14    13   ar
    27     8     9    1
    28    22     9    1
    29    22    10    1
    30    21    10    1
    31    21    20   ar
    32    13    20   ar
