@<TRIPOS>MOLECULE
4f4q_0SK_A_1.pdb
 28 31 0 0 0
SMALL
GASTEIGER

@<TRIPOS>ATOM
      1  NBE      -12.6030   -7.8160   35.4310 N.4   501  0SK501     -0.0959
      2  OAE      -11.4260   -8.2790   34.6150 O.3   501  0SK501     -0.0605
      3  CAX      -13.1280   -6.5850   35.2200 C.ar  501  0SK501      0.1174
      4  CBB      -12.2680   -5.4980   34.9270 C.ar  501  0SK501      0.0648
      5  SAV      -10.4870   -5.7510   34.8520 S.3   501  0SK501     -0.0368
      6  CAJ      -14.5100   -6.3940   35.2690 C.ar  501  0SK501      0.0259
      7  CAW      -15.0560   -5.1320   35.0450 C.ar  501  0SK501      0.0738
      8  CBG      -16.4360   -4.9280   35.1060 C.3   501  0SK501      0.4186
      9  FAG      -16.7250   -4.1780   36.1750 F     501  0SK501     -0.1659
     10  FAH      -17.0720   -6.0970   35.2130 F     501  0SK501     -0.1659
     11  FAF      -16.8550   -4.2970   33.9940 F     501  0SK501     -0.1659
     12  CAK      -14.2120   -4.0620   34.7660 C.ar  501  0SK501      0.0171
     13  CBA      -12.8260   -4.2210   34.7010 C.ar  501  0SK501      0.1023
     14  CAZ      -12.0770   -3.0710   34.4110 C.1   501  0SK501      0.2069
     15  OAD      -12.6440   -1.9930   34.2260 O.2   501  0SK501     -0.2092
     16  NAR      -10.6840   -3.0470   34.3090 N.2   501  0SK501     -0.3105
     17  CAY       -9.8310   -4.1390   34.4750 C.2   501  0SK501      0.2275
     18  NBF       -8.4980   -3.9450   34.3470 N.pl3 501  0SK501     -0.2774
     19  CAM       -7.5460   -5.0910   34.5090 C.3   501  0SK501      0.0987
     20  CAO       -6.2450   -4.7020   35.2240 C.3   501  0SK501      0.0777
     21  CAL       -7.9780   -2.5780   34.0220 C.3   501  0SK501      0.0987
     22  CAN       -6.7030   -2.2390   34.8120 C.3   501  0SK501      0.0777
     23  CBH       -5.6650   -3.3750   34.6810 C.3   501  0SK501      0.1904
     24  OAT       -5.2630   -3.5290   33.2910 O.3   501  0SK501     -0.3341
     25  OAS       -4.4650   -3.0270   35.4390 O.3   501  0SK501     -0.3316
     26  CAP       -3.3850   -2.8760   34.4840 C.3   501  0SK501      0.1740
     27  CBD       -3.8350   -3.6890   33.2840 C.3   501  0SK501      0.1473
     28  CAA       -3.2640   -3.0900   31.9920 C.3   501  0SK501      0.0348
@<TRIPOS>BOND
     1    28    27    1
     2    27    24    1
     3    27    26    1
     4    24    23    1
     5    11     8    1
     6    21    18    1
     7    21    22    1
     8    15    14    2
     9    16    14    2
    10    16    17    2
    11    18    17    1
    12    18    19    1
    13    14    13    1
    14    17     5    1
    15    26    25    1
    16    19    20    1
    17     2     1    1
    18    23    22    1
    19    23    20    1
    20    23    25    1
    21    13    12   ar
    22    13     4   ar
    23    12     7   ar
    24     5     4    1
    25     4     3   ar
    26     7     8    1
    27     7     6   ar
    28     8    10    1
    29     8     9    1
    30     3     6   ar
    31     3     1    1
