@<TRIPOS>MOLECULE
4f4w_DCP_A_1.pdb
 28 29 0 0 0
SMALL
GASTEIGER

@<TRIPOS>ATOM
      1  N1       -15.5940  -18.4860  -37.7470 N.am  401  DCP401     -0.1802
      2  C2       -15.2100  -17.1990  -37.9490 C.1   401  DCP401      0.2756
      3  N3       -15.5140  -16.5220  -39.0570 N.2   401  DCP401     -0.3024
      4  C4       -16.2490  -17.1410  -40.0010 C.2   401  DCP401      0.2346
      5  C5       -16.6830  -18.4540  -39.8390 C.2   401  DCP401      0.0687
      6  C6       -16.3460  -19.1390  -38.6660 C.2   401  DCP401      0.0835
      7  O2       -14.5080  -16.5720  -37.0030 O.2   401  DCP401     -0.1925
      8  N4       -16.6200  -16.4620  -41.2080 N.pl3 401  DCP401     -0.0921
      9  C1'      -15.2860  -19.2010  -36.5070 C.3   401  DCP401      0.2090
     10  C2'      -16.4660  -19.1250  -35.6100 C.3   401  DCP401      0.0874
     11  C3'      -17.0790  -20.4750  -35.7070 C.3   401  DCP401      0.1857
     12  C4'      -15.9330  -21.3110  -35.9150 C.3   401  DCP401      0.1773
     13  O4'      -15.0740  -20.5550  -36.8050 O.3   401  DCP401     -0.3339
     14  O3'      -17.8470  -20.8630  -34.5740 O.3   401  DCP401     -0.2203
     15  C5'      -16.2990  -22.5720  -36.5840 C.3   401  DCP401      0.1812
     16  O5'      -16.8490  -22.3810  -37.8610 O.3   401  DCP401     -0.3112
     17  PA       -17.9830  -23.3080  -38.4310 P.3   401  DCP401      0.2189
     18  O1A      -17.9970  -23.1740  -39.9210 O.2   401  DCP401     -0.5170
     19  O2A      -17.7050  -24.7110  -38.1050 O.3   401  DCP401     -0.4371
     20  O3A      -19.3650  -22.8440  -37.8510 O.3   401  DCP401     -0.2699
     21  PB       -19.9870  -22.9580  -36.4190 P.3   401  DCP401      0.2335
     22  O1B      -19.2560  -23.8150  -35.4750 O.3   401  DCP401     -0.4367
     23  O2B      -20.0800  -21.5890  -35.8190 O.2   401  DCP401     -0.5167
     24  O3B      -21.4770  -23.4500  -36.6730 O.3   401  DCP401     -0.1746
     25  PG       -21.8590  -24.9310  -37.1600 P.3   401  DCP401      0.8694
     26  O1G      -22.7470  -25.5000  -36.0890 O.3   401  DCP401     -0.0572
     27  O2G      -22.6910  -24.7390  -38.3760 O.2   401  DCP401      0.2741
     28  O3G      -20.6280  -25.8180  -37.4230 O.3   401  DCP401     -0.0572
@<TRIPOS>UNITY_ATOM_ATTR
18 1
charge 1
22 1
charge 1
27 1
charge 1
@<TRIPOS>BOND
     1     8     4    1
     2     4     5    1
     3     4     3    2
     4    18    17    2
     5     5     6    2
     6     3     2    2
     7     6     1    1
     8    17    19    1
     9    17    16    1
    10    17    20    1
    11    27    25    2
    12     2     1   am
    13     2     7    2
    14    16    15    1
    15    20    21    1
    16     1     9    1
    17    28    25    1
    18    25    24    1
    19    25    26    1
    20    13     9    1
    21    13    12    1
    22    24    21    1
    23    15    12    1
    24     9    10    1
    25    21    23    2
    26    21    22    1
    27    12    11    1
    28    11    10    1
    29    11    14    1
