@<TRIPOS>MOLECULE
4f4x_DCP_A_1.pdb
 28 29 0 0 0
SMALL
GASTEIGER

@<TRIPOS>ATOM
      1  N1        30.9930  -12.7130  -15.8310 N.am  404  DCP404     -0.1802
      2  C2        32.2660  -12.8650  -15.4520 C.1   404  DCP404      0.2756
      3  N3        32.9900  -13.9530  -15.7550 N.2   404  DCP404     -0.3024
      4  C4        32.4300  -14.9380  -16.4880 C.2   404  DCP404      0.2346
      5  C5        31.1230  -14.8190  -16.9320 C.2   404  DCP404      0.0687
      6  C6        30.4020  -13.6640  -16.5880 C.2   404  DCP404      0.0835
      7  O2        32.8340  -11.8910  -14.7080 O.2   404  DCP404     -0.1925
      8  N4        33.1870  -16.0940  -16.8510 N.pl3 404  DCP404     -0.0921
      9  C1'       30.2480  -11.4800  -15.4880 C.3   404  DCP404      0.2090
     10  C2'       30.3460  -10.5300  -16.6250 C.3   404  DCP404      0.0874
     11  C3'       29.0430  -10.6660  -17.3320 C.3   404  DCP404      0.1857
     12  C4'       28.1640  -10.8210  -16.2140 C.3   404  DCP404      0.1773
     13  O4'       28.8910  -11.7420  -15.3510 O.3   404  DCP404     -0.3339
     14  O3'       28.7130   -9.5560  -18.1360 O.3   404  DCP404     -0.2203
     15  C5'       26.8780  -11.4210  -16.6090 C.3   404  DCP404      0.1812
     16  O5'       26.9300  -12.7470  -17.0520 O.3   404  DCP404     -0.3112
     17  PA        26.1720  -13.3200  -18.2930 P.3   404  DCP404      0.2189
     18  O1A       26.1130  -14.8140  -18.2610 O.2   404  DCP404     -0.5170
     19  O2A       24.7550  -13.0730  -18.1280 O.3   404  DCP404     -0.4371
     20  O3A       26.7370  -12.8620  -19.6820 O.3   404  DCP404     -0.2699
     21  PB        26.6090  -11.4300  -20.2970 P.3   404  DCP404      0.2335
     22  O1B       25.8550  -10.4660  -19.4990 O.3   404  DCP404     -0.4367
     23  O2B       27.9430  -10.7590  -20.3550 O.2   404  DCP404     -0.5167
     24  O3B       26.0540  -11.5710  -21.7740 O.3   404  DCP404     -0.1752
     25  PG        24.6210  -12.0550  -22.2010 P.3   404  DCP404      0.8585
     26  O1G       23.9840  -11.0060  -23.0760 O.2   404  DCP404     -0.1694
     27  O2G       24.7420  -13.3060  -22.9890 O.3   404  DCP404      0.3985
     28  O3G       23.5870  -12.3540  -21.1080 O.3   404  DCP404     -0.0578
@<TRIPOS>UNITY_ATOM_ATTR
18 1
charge 1
22 1
charge 1
27 1
charge 1
@<TRIPOS>BOND
     1    26    25    2
     2    27    25    1
     3    25    24    1
     4    25    28    1
     5    24    21    1
     6    23    21    2
     7    21    20    1
     8    21    22    1
     9    20    17    1
    10    17    18    2
    11    17    19    1
    12    17    16    1
    13    14    11    1
    14    11    10    1
    15    11    12    1
    16    16    15    1
    17     5     6    2
    18     5     4    1
    19     8     4    1
    20    10     9    1
    21    15    12    1
    22     6     1    1
    23     4     3    2
    24    12    13    1
    25     1     9    1
    26     1     2   am
    27     3     2    2
    28     9    13    1
    29     2     7    2
