@<TRIPOS>MOLECULE
4f4y_DCP_A_1.pdb
 24 25 0 0 0
SMALL
GASTEIGER

@<TRIPOS>ATOM
      1  N1         6.0630   11.5560   50.7040 N.am  401  DCP401     -0.1802
      2  C2         5.6870   11.6940   49.4280 C.1   401  DCP401      0.2756
      3  N3         6.0290   12.7570   48.6990 N.2   401  DCP401     -0.3024
      4  C4         6.7760   13.7300   49.2500 C.2   401  DCP401      0.2346
      5  C5         7.1910   13.6240   50.5760 C.2   401  DCP401      0.0687
      6  C6         6.8220   12.4870   51.3220 C.2   401  DCP401      0.0835
      7  O2         4.9380   10.7230   48.8510 O.2   401  DCP401     -0.1925
      8  N4         7.1360   14.8770   48.4510 N.pl3 401  DCP401     -0.0921
      9  C1'        5.6510   10.3420   51.4180 C.3   401  DCP401      0.2090
     10  C2'        6.7420    9.3800   51.3450 C.3   401  DCP401      0.0874
     11  C3'        7.3200    9.4020   52.7000 C.3   401  DCP401      0.1857
     12  C4'        6.1730    9.6020   53.5160 C.3   401  DCP401      0.1773
     13  O4'        5.4140   10.5880   52.7670 O.3   401  DCP401     -0.3339
     14  O3'        7.9060    8.1850   52.9730 O.3   401  DCP401     -0.2203
     15  C5'        6.5540   10.1570   54.8060 C.3   401  DCP401      0.1812
     16  O5'        7.0390   11.4700   54.7880 O.3   401  DCP401     -0.3110
     17  PA         8.3770   11.8310   55.5160 P.3   401  DCP401      0.2289
     18  O1A        8.5130   13.2920   55.7320 O.2   401  DCP401     -0.5168
     19  O2A        8.3500   11.3960   56.9300 O.3   401  DCP401     -0.4369
     20  O3A        9.6150   11.3010   54.7120 O.3   401  DCP401     -0.1748
     21  PB        10.3160    9.9060   54.9500 P.3   401  DCP401      0.8694
     22  O1B        9.4360    8.7540   55.3280 O.3   401  DCP401     -0.0572
     23  O2B       10.7400    9.3960   53.6070 O.2   401  DCP401      0.2741
     24  O3B       11.5020   10.1070   55.9690 O.3   401  DCP401     -0.0572
@<TRIPOS>UNITY_ATOM_ATTR
18 1
charge 1
23 1
charge 1
@<TRIPOS>BOND
     1     8     4    1
     2     3     4    2
     3     3     2    2
     4     7     2    2
     5     4     5    1
     6     2     1   am
     7     5     6    2
     8     1     6    1
     9     1     9    1
    10    10     9    1
    11    10    11    1
    12     9    13    1
    13    11    14    1
    14    11    12    1
    15    13    12    1
    16    12    15    1
    17    23    21    2
    18    20    21    1
    19    20    17    1
    20    16    15    1
    21    16    17    1
    22    21    22    1
    23    21    24    1
    24    17    18    2
    25    17    19    1
