@<TRIPOS>MOLECULE
4f56_III_C_1.pdb
 49 48 0 0 0
SMALL
GASTEIGER

@<TRIPOS>ATOM
      1  N         -8.0170   -8.1900   -2.5980 N.3     6  THR6       -0.1203
      2  CA        -7.6580   -8.2140   -4.0500 C.3     6  THR6        0.1994
      3  C         -8.8440   -8.7020   -4.8720 C.2     6  THR6        0.2618
      4  O         -9.0330   -8.2570   -6.0030 O.2     6  THR6       -0.2717
      5  CB        -6.4120   -9.0900   -4.3260 C.3     6  THR6        0.1784
      6  OG1       -5.2520   -8.4630   -3.7690 O.3     6  THR6       -0.2211
      7  CG2       -6.1790   -9.3070   -5.8220 C.3     6  THR6        0.0376
      8  N         -9.6440   -9.6040   -4.3010 N.am    7  ALA7       -0.1965
      9  CA       -10.7840  -10.1690   -5.0260 C.3     7  ALA7        0.1728
     10  C        -12.0420   -9.2880   -5.0020 C.2     7  ALA7        0.2616
     11  O        -12.9730   -9.5560   -5.7460 O.2     7  ALA7       -0.2715
     12  CB       -11.0990  -11.5820   -4.5330 C.3     7  ALA7        0.0334
     13  N        -12.0560   -8.2520   -4.1580 N.am    8  ARG8       -0.1963
     14  CA       -13.1940   -7.3250   -4.0310 C.3     8  ARG8        0.1729
     15  C        -13.2610   -6.3510   -5.2000 C.2     8  ARG8        0.2616
     16  O        -12.2460   -5.7810   -5.5910 O.2     8  ARG8       -0.2715
     17  CB       -13.0930   -6.5150   -2.7250 C.3     8  ARG8        0.0348
     18  CG       -13.9490   -7.0470   -1.5920 C.3     8  ARG8        0.0492
     19  CD       -13.2610   -6.8300   -0.2610 C.3     8  ARG8        0.2205
     20  NE       -13.4250   -5.4780    0.2670 N.pl3   8  ARG8       -0.0865
     21  CZ       -12.5530   -4.8790    1.0790 C.cat   8  ARG8        0.5346
     22  NH1      -12.7910   -3.6540    1.5180 N.pl3   8  ARG8        0.1354
     23  NH2      -11.4320   -5.4920    1.4390 N.pl3   8  ARG8        0.1354
     24  N        -14.4620   -6.1570   -5.7450 N.am    9  LYS9       -0.1963
     25  CA       -14.6940   -5.1210   -6.7510 C.3     9  LYS9        0.1728
     26  C        -14.5570   -3.7790   -6.0550 C.2     9  LYS9        0.2617
     27  O        -15.2280   -3.4980   -5.0530 O.2     9  LYS9       -0.2715
     28  CB       -16.0770   -5.2930   -7.3780 C.3     9  LYS9        0.0311
     29  CG       -16.3010   -4.3280   -8.5460 C.3     9  LYS9        0.0038
     30  CD       -17.7400   -4.3540   -9.0910 C.3     9  LYS9        0.0206
     31  CE       -17.8790   -3.5450  -10.3750 C.3     9  LYS9        0.1093
     32  NZ       -19.2780   -3.2190  -10.6770 N.3     9  LYS9       -0.1314
     33  N        -13.6650   -2.9450   -6.5630 N.am   10  SER10      -0.1936
     34  CA       -13.4430   -1.6480   -5.9380 C.3    10  SER10       0.2055
     35  C        -12.8540   -0.6370   -6.8970 C.2    10  SER10       0.2644
     36  O        -12.4070   -0.9680   -7.9860 O.2    10  SER10      -0.2714
     37  CB       -12.5220   -1.7920   -4.7270 C.3    10  SER10       0.2130
     38  OG       -11.2410   -2.2030   -5.1520 O.3    10  SER10      -0.2179
     39  N        -12.8450    0.6070   -6.4490 N.am   11  THR11      -0.1936
     40  CA       -12.2830    1.7050   -7.1980 C.3    11  THR11       0.2028
     41  C        -11.5930    2.5440   -6.1310 C.2    11  THR11       0.2642
     42  O        -12.2670    3.1670   -5.3270 O.2    11  THR11      -0.2714
     43  CB       -13.4020    2.4790   -7.9440 C.3    11  THR11       0.1808
     44  OG1      -12.8300    3.5180   -8.7430 O.3    11  THR11      -0.2208
     45  CG2      -14.4370    3.0890   -6.9720 C.3    11  THR11       0.0379
     46  N        -10.2590    2.5270   -6.0660 N.am   12  GLY12      -0.1954
     47  CA        -9.4020    1.8410   -7.0200 C.3    12  GLY12       0.1869
     48  C         -8.6550    2.8540   -7.8700 C.2    12  GLY12       0.2309
     49  O         -8.9630    3.0420   -9.0530 O.2    12  GLY12      -0.2863
@<TRIPOS>BOND
     1    32    31    1
     2    31    30    1
     3    30    29    1
     4    49    48    2
     5    44    43    1
     6    29    28    1
     7    36    35    2
     8    43    40    1
     9    43    45    1
    10    48    47    1
    11    28    25    1
    12    40    39    1
    13    40    41    1
    14    47    46    1
    15    35    39   am
    16    35    34    1
    17    25    26    1
    18    25    24    1
    19    33    26   am
    20    33    34    1
    21    41    46   am
    22    41    42    2
    23    26    27    2
    24     4     3    2
    25    34    37    1
    26     7     5    1
    27    11    10    2
    28    24    15   am
    29    16    15    2
    30    15    14    1
    31    38    37    1
    32     9    10    1
    33     9    12    1
    34     9     8    1
    35    10    13   am
    36     3     8   am
    37     3     2    1
    38     5     2    1
    39     5     6    1
    40    13    14    1
    41     2     1    1
    42    14    17    1
    43    17    18    1
    44    18    19    1
    45    19    20    1
    46    20    21    2
    47    21    23    1
    48    21    22    1
