@<TRIPOS>MOLECULE
4f56_CGK_C_1.pdb
 42 46 0 0 0
SMALL
GASTEIGER

@<TRIPOS>ATOM
      1  CX       -19.6500   -2.3810  -11.8110 C.3   101  CGK101      0.1653
      2  CY       -21.1830   -2.4390  -12.0260 C.3   101  CGK101      0.0528
      3  CT       -21.6630   -3.7860  -12.5480 C.3   101  CGK101      0.1175
      4  CI       -22.8190   -3.5170  -13.4840 C.2   101  CGK101      0.3650
      5  OI2      -24.0000   -3.1860  -12.9570 O.co2 101  CGK101     -0.2457
      6  OI1      -22.6880   -3.5910  -14.7070 O.co2 101  CGK101     -0.2457
      7  O1       -18.9530   -2.8560  -12.9600 O.3   101  CGK101     -0.3417
      8  C2       -19.0600   -1.8920  -14.0130 C.3   101  CGK101      0.1863
      9  C1       -18.7210   -0.5280  -13.4240 C.3   101  CGK101      0.1943
     10  SX       -19.1720   -0.6580  -11.7240 S.3   101  CGK101     -0.0809
     11  C3       -17.9340   -2.1450  -14.9910 C.3   101  CGK101      0.2117
     12  O2       -17.7910   -3.5540  -15.2110 O.3   101  CGK101     -0.2177
     13  C4       -16.7630   -1.5720  -14.2230 C.3   101  CGK101      0.1790
     14  O3       -17.2950   -0.4120  -13.5590 O.3   101  CGK101     -0.3399
     15  C5       -15.6020   -1.2150  -15.1380 C.3   101  CGK101      0.1812
     16  O4       -16.0360   -0.1580  -15.9910 O.3   101  CGK101     -0.3112
     17  P1       -15.5070   -0.1240  -17.5140 P.3   101  CGK101      0.2189
     18  O5       -14.0420    0.1090  -17.5790 O.3   101  CGK101     -0.4371
     19  O6       -15.9300   -1.4450  -18.3060 O.2   101  CGK101     -0.5170
     20  O7       -16.3050    1.0960  -18.1570 O.3   101  CGK101     -0.2703
     21  P2       -16.0880    2.6880  -17.9780 P.3   101  CGK101      0.2189
     22  O9       -17.4120    3.2860  -18.3130 O.2   101  CGK101     -0.5170
     23  O8       -15.4250    3.0320  -16.5650 O.3   101  CGK101     -0.4371
     24  O10      -14.9600    2.9440  -19.0910 O.3   101  CGK101     -0.3112
     25  CA1      -15.3100    2.8250  -20.4640 C.3   101  CGK101      0.1813
     26  CA2      -14.0340    3.0290  -21.2610 C.3   101  CGK101      0.1821
     27  OA3      -14.3530    2.9070  -22.6450 O.3   101  CGK101     -0.3135
     28  CA5      -13.7160    3.9450  -23.3770 C.3   101  CGK101      0.3186
     29  CA4      -13.7120    5.1050  -22.4170 C.3   101  CGK101      0.2570
     30  OA2      -12.7020    6.0130  -22.8470 O.3   101  CGK101     -0.2130
     31  CA3      -13.4100    4.4100  -21.0940 C.3   101  CGK101      0.2184
     32  OA1      -11.9950    4.1990  -20.9090 O.3   101  CGK101     -0.2174
     33  N9A      -14.5610    4.0600  -24.5760 N.pl3 101  CGK101     -0.1439
     34  C4A      -14.2300    3.4470  -25.7050 C.2   101  CGK101      0.3518
     35  C5M      -15.3270    3.7400  -26.6350 C.2   101  CGK101      0.2526
     36  N7A      -16.2340    4.4910  -25.9790 N.2   101  CGK101     -0.2095
     37  C8A      -15.7650    4.6680  -24.7140 C.3   101  CGK101      0.3377
     38  N3A      -13.1530    2.7090  -26.0950 N.2   101  CGK101     -0.0055
     39  C2A      -13.1020    2.2340  -27.3560 C.3   101  CGK101      0.5254
     40  N1A      -14.0820    2.4610  -28.2590 N.2   101  CGK101      0.0021
     41  C6A      -15.1940    3.1840  -27.9910 C.2   101  CGK101      0.4393
     42  N6A      -16.1620    3.3980  -28.9130 N.pl3 101  CGK101      0.2180
@<TRIPOS>BOND
     1    42    41    1
     2    40    41    2
     3    40    39    1
     4    41    35    1
     5    39    38    1
     6    35    36    2
     7    35    34    1
     8    38    34    2
     9    36    37    1
    10    34    33    1
    11    37    33    1
    12    33    28    1
    13    28    27    1
    14    28    29    1
    15    30    29    1
    16    27    26    1
    17    29    31    1
    18    26    31    1
    19    26    25    1
    20    31    32    1
    21    25    24    1
    22    24    21    1
    23    22    21    2
    24    19    17    2
    25    20    21    1
    26    20    17    1
    27    21    23    1
    28    18    17    1
    29    17    16    1
    30    16    15    1
    31    12    11    1
    32    15    13    1
    33    11    13    1
    34    11     8    1
    35     6     4   ar
    36    13    14    1
    37     8     9    1
    38     8     7    1
    39    14     9    1
    40     4     5   ar
    41     4     3    1
    42     9    10    1
    43     7     1    1
    44     3     2    1
    45     2     1    1
    46     1    10    1
