@<TRIPOS>MOLECULE
4f5b_PTR_A_1.pdb
 17 17 0 0 0
SMALL
GASTEIGER

@<TRIPOS>ATOM
      1  N         -0.8930   21.1610   -8.3470 N.3   301  PTR301     -0.1205
      2  CA        -0.7990   22.5180   -7.7050 C.3   301  PTR301      0.1986
      3  C         -0.3320   23.5190   -8.7570 C.2   301  PTR301      0.3822
      4  O         -0.1790   23.2470   -9.9680 O.co2 301  PTR301     -0.2440
      5  OXT       -0.1390   24.6530   -8.3680 O.co2 301  PTR301     -0.2440
      6  CB         0.0920   22.4840   -6.4170 C.3   301  PTR301      0.0569
      7  CG        -0.3070   21.3260   -5.5340 C.ar  301  PTR301     -0.0200
      8  CD1       -1.5360   21.3150   -4.8920 C.ar  301  PTR301     -0.0011
      9  CD2        0.4920   20.1930   -5.4340 C.ar  301  PTR301     -0.0011
     10  CE1       -1.9480   20.2040   -4.1530 C.ar  301  PTR301      0.0371
     11  CE2        0.0940   19.0870   -4.6780 C.ar  301  PTR301      0.0371
     12  CZ        -1.1330   19.0930   -4.0390 C.ar  301  PTR301      0.1490
     13  OH        -1.5540   18.0770   -3.3780 O.3   301  PTR301     -0.3998
     14  P         -2.3000   16.8670   -4.1710 P.3   301  PTR301      0.5887
     15  O1P       -1.1540   16.1570   -4.8680 O.3   301  PTR301     -0.1039
     16  O2P       -3.3260   17.4400   -5.1560 O.2   301  PTR301     -0.2114
     17  O3P       -2.9700   15.9330   -3.1680 O.3   301  PTR301     -0.1039
@<TRIPOS>BOND
     1     4     3   ar
     2     3     5   ar
     3     3     2    1
     4     1     2    1
     5     2     6    1
     6     6     7    1
     7     7     9   ar
     8     7     8   ar
     9     9    11   ar
    10    16    14    2
    11     8    10   ar
    12    15    14    1
    13    11    12   ar
    14    14    13    1
    15    14    17    1
    16    10    12   ar
    17    12    13    1
