@<TRIPOS>MOLECULE
4f5d_C2E_A_1.pdb
 46 52 0 0 0
SMALL
GASTEIGER

@<TRIPOS>ATOM
      1  P1        33.3430  -20.8730    0.8950 P.3   401  C2E401      0.2141
      2  O2P       33.9650  -19.6610    0.4890 O.3   401  C2E401     -0.4373
      3  O1P       32.5020  -21.3140   -0.1740 O.2   401  C2E401     -0.5172
      4  O5'       34.5380  -21.7430    0.9940 O.3   401  C2E401     -0.3114
      5  C5'       34.3090  -22.9720    1.4420 C.3   401  C2E401      0.1812
      6  C4'       35.5890  -23.5730    1.8280 C.3   401  C2E401      0.1771
      7  O4'       36.4730  -23.0800    0.9500 O.3   401  C2E401     -0.3327
      8  C3'       36.0880  -22.9480    3.0350 C.3   401  C2E401      0.1857
      9  O3'       35.5490  -23.4910    4.1640 O.3   401  C2E401     -0.3112
     10  C2'       37.3490  -23.4590    2.9480 C.3   401  C2E401      0.2282
     11  O2'       37.2280  -24.7670    3.2110 O.3   401  C2E401     -0.2159
     12  C1'       37.6710  -23.3190    1.5470 C.3   401  C2E401      0.2292
     13  N9        38.3540  -22.1300    1.4740 N.pl3 401  C2E401     -0.2354
     14  C8        37.7950  -21.0710    1.1370 C.3   401  C2E401      0.2246
     15  N7        38.5270  -20.1250    1.1220 N.2   401  C2E401     -0.2322
     16  C5        39.7240  -20.3910    1.4470 C.2   401  C2E401      0.2182
     17  C6        40.8730  -19.7040    1.5770 C.1   401  C2E401      0.2372
     18  O6        40.9180  -18.4050    1.3570 O.2   401  C2E401     -0.2069
     19  N1        41.9670  -20.3230    1.9300 N.2   401  C2E401     -0.2485
     20  C2        41.9200  -21.6240    2.1700 C.1   401  C2E401      0.2531
     21  N2        43.1320  -22.1940    2.5580 N.pl3 401  C2E401     -0.0226
     22  N3        40.8160  -22.3610    2.0640 N.2   401  C2E401     -0.3074
     23  C4        39.6850  -21.7820    1.7120 C.2   401  C2E401      0.2300
     24  P11       35.1100  -22.5760    5.2680 P.3   401  C2E401      0.2141
     25  O21       36.2970  -21.8790    5.5790 O.2   401  C2E401     -0.5172
     26  O11       34.7550  -23.3910    6.3750 O.3   401  C2E401     -0.4373
     27  O5A       34.1800  -21.4340    5.1870 O.3   401  C2E401     -0.3114
     28  C5A       32.9560  -21.7060    4.7380 C.3   401  C2E401      0.1812
     29  C4A       32.3160  -20.4580    4.3490 C.3   401  C2E401      0.1771
     30  O4A       32.8510  -19.5540    5.2760 O.3   401  C2E401     -0.3327
     31  C3A       32.9340  -19.9510    3.1660 C.3   401  C2E401      0.1857
     32  O3A       32.4020  -20.4620    2.0140 O.3   401  C2E401     -0.3112
     33  C2A       32.5020  -18.5970    3.2850 C.3   401  C2E401      0.2282
     34  O2A       31.2090  -18.5880    2.9930 O.3   401  C2E401     -0.2159
     35  C1A       32.6410  -18.3260    4.7040 C.3   401  C2E401      0.2292
     36  N91       33.8180  -17.6120    4.7770 N.pl3 401  C2E401     -0.2354
     37  C81       34.8780  -18.1520    5.1210 C.3   401  C2E401      0.2246
     38  N71       35.8160  -17.4080    5.1420 N.2   401  C2E401     -0.2322
     39  C51       35.5420  -16.2180    4.8190 C.2   401  C2E401      0.2182
     40  C61       36.1830  -15.0480    4.6770 C.1   401  C2E401      0.2372
     41  O61       37.4960  -14.9730    4.9030 O.2   401  C2E401     -0.2069
     42  N11       35.5640  -13.9640    4.3250 N.2   401  C2E401     -0.2485
     43  C21       34.2680  -14.0160    4.0840 C.1   401  C2E401      0.2531
     44  N21       33.6710  -12.8100    3.6850 N.pl3 401  C2E401     -0.0226
     45  N31       33.5800  -15.1490    4.1930 N.2   401  C2E401     -0.3074
     46  C41       34.1640  -16.2730    4.5400 C.2   401  C2E401      0.2300
@<TRIPOS>BOND
     1     3     1    2
     2     2     1    1
     3     1     4    1
     4     1    32    1
     5     7    12    1
     6     7     6    1
     7     4     5    1
     8    15    14    1
     9    15    16    2
    10    14    13    1
    11    18    17    2
    12     5     6    1
    13    16    17    1
    14    16    23    1
    15    13    12    1
    16    13    23    1
    17    12    10    1
    18    17    19    2
    19    23    22    2
    20     6     8    1
    21    19    20    2
    22    32    31    1
    23    22    20    2
    24    20    21    1
    25    10     8    1
    26    10    11    1
    27    34    33    1
    28     8     9    1
    29    31    33    1
    30    31    29    1
    31    33    35    1
    32    44    43    1
    33    43    45    2
    34    43    42    2
    35     9    24    1
    36    45    46    2
    37    42    40    2
    38    29    28    1
    39    29    30    1
    40    46    36    1
    41    46    39    1
    42    40    39    1
    43    40    41    2
    44    35    36    1
    45    35    30    1
    46    28    27    1
    47    36    37    1
    48    39    38    2
    49    37    38    1
    50    27    24    1
    51    24    25    2
    52    24    26    1
