@<TRIPOS>MOLECULE
4f5n_6CF_A_1.pdb
 30 31 0 0 0
SMALL
GASTEIGER

@<TRIPOS>ATOM
      1  N1        11.0740    7.6760    7.8400 N.am  404  6CF404     -0.1802
      2  P1        10.8610    2.7190    8.9160 P.3   404  6CF404      0.4410
      3  C2        11.7190    8.9090    7.6390 C.1   404  6CF404      0.2756
      4  O2        11.2530    9.7920    6.6990 O.2   404  6CF404     -0.1925
      5  P2        11.1730    0.4010   10.8410 P.3   404  6CF404      0.4486
      6  N3        12.8680    9.2660    8.4270 N.2   404  6CF404     -0.3024
      7  P3        10.2280   -0.5610   13.2660 P.3   404  6CF404      0.5390
      8  C4        13.3510    8.3810    9.3730 C.2   404  6CF404      0.2346
      9  N4        14.4960    8.7150   10.1580 N.pl3 404  6CF404     -0.0921
     10  C5        12.6920    7.1350    9.5590 C.2   404  6CF404      0.0687
     11  C6        11.5780    6.7920    8.8020 C.2   404  6CF404      0.0835
     12  C1'        9.9310    7.3070    7.0350 C.3   404  6CF404      0.2090
     13  F1A       10.1840    2.7360   11.4160 F     404  6CF404     -0.1787
     14  O1A       12.3190    3.1800    9.1850 O.3   404  6CF404     -0.1352
     15  O1B       12.4750    0.8350   11.6070 O.3   404  6CF404     -0.1349
     16  O1G       11.4900   -0.2200   13.9940 O.3   404  6CF404     -0.1143
     17  C2'       10.4550    6.6780    5.7690 C.3   404  6CF404      0.0874
     18  F2A        8.9680    1.4640   10.1340 F     404  6CF404     -0.1787
     19  O2A       10.7870    1.8080    7.6610 O.2   404  6CF404     -0.2492
     20  O2B       11.5890   -0.3420    9.5410 O.2   404  6CF404     -0.2488
     21  O2G        9.8970   -1.9420   13.7360 O.2   404  6CF404     -0.2220
     22  C3'       10.3470    5.2710    6.2320 C.3   404  6CF404      0.1857
     23  O3'       10.3830    4.3890    5.1820 O.3   404  6CF404     -0.2203
     24  C3A       10.1950    1.8780   10.4000 C.3   404  6CF404      0.4484
     25  O3B       10.3050   -0.5500   11.7090 O.3   404  6CF404     -0.1990
     26  O3G        9.1540    0.2840   13.8950 O.3   404  6CF404     -0.1143
     27  C4'        9.0460    5.2470    6.9470 C.3   404  6CF404      0.1773
     28  O4'        9.0720    6.4170    7.6930 O.3   404  6CF404     -0.3339
     29  C5'        8.9030    4.0260    7.8170 C.3   404  6CF404      0.1836
     30  O5'        9.9890    4.0190    8.6860 O.3   404  6CF404     -0.2860
@<TRIPOS>BOND
     1    23    22    1
     2    17    22    1
     3    17    12    1
     4    22    27    1
     5     4     3    2
     6    27    28    1
     7    27    29    1
     8    12    28    1
     9    12     1    1
    10     3     1   am
    11     3     6    2
    12    19     2    2
    13    29    30    1
    14     1    11    1
    15     6     8    2
    16    30     2    1
    17    11    10    2
    18     2    14    1
    19     2    24    1
    20     8    10    1
    21     8     9    1
    22    20     5    2
    23    18    24    1
    24    24     5    1
    25    24    13    1
    26     5    15    1
    27     5    25    1
    28    25     7    1
    29     7    21    2
    30     7    26    1
    31     7    16    1
