@<TRIPOS>MOLECULE
4f5o_6CF_A_1.pdb
 44 45 0 0 0
SMALL
GASTEIGER

@<TRIPOS>ATOM
      1  N1        12.1870    8.2190    9.5730 N.am  401  6CF401     -0.1978
      2  P1        11.1810    3.5130   11.8700 P.3   401  6CF401      0.4112
      3  C2        12.8030    9.2780    9.0200 C.1   401  6CF401      0.2745
      4  O2        12.1130   10.1090    8.4400 O.2   401  6CF401     -0.1926
      5  P2         9.5800    1.2670   11.2460 P.3   401  6CF401      0.4195
      6  N3        14.1330    9.4240    9.0910 N.2   401  6CF401     -0.3067
      7  P3         7.8730    1.0940   13.6600 P.3   401  6CF401      0.5389
      8  C4        14.8690    8.5150    9.7250 C.2   401  6CF401      0.1840
      9  N4        16.2340    8.6620    9.7990 N.pl3 401  6CF401     -0.3326
     10  C5        14.2520    7.3950   10.3230 C.2   401  6CF401      0.0061
     11  C6        12.9040    7.2630   10.2400 C.2   401  6CF401      0.0157
     12  C1'       10.7300    8.1220    9.4750 C.3   401  6CF401      0.1424
     13  F1A       11.5930    2.0230    9.8930 F     401  6CF401     -0.1788
     14  O1A       10.3350    3.6050   13.2350 O.3   401  6CF401     -0.3196
     15  O1B        9.5660    0.0400   10.4160 O.2   401  6CF401     -0.2513
     16  O1G        7.8370   -0.0540   14.7770 O.3   401  6CF401     -0.1143
     17  C2'       10.3100    7.3890    8.1910 C.3   401  6CF401      0.0199
     18  F2A       12.0090    1.1210   11.9630 F     401  6CF401     -0.1788
     19  O2A       12.5860    3.8900   12.1550 O.2   401  6CF401     -0.2517
     20  O2B        8.5210    2.3100   10.6350 O.3   401  6CF401     -0.3193
     21  O2G        6.6580    1.0170   12.8120 O.2   401  6CF401     -0.2220
     22  C3'        9.5820    6.1190    8.7020 C.3   401  6CF401      0.0875
     23  O3'        8.3850    5.8800    7.9600 O.3   401  6CF401     -0.3890
     24  C3A       11.1480    1.9400   11.2200 C.3   401  6CF401      0.4440
     25  O3B        9.1770    0.8680   12.7480 O.3   401  6CF401     -0.2006
     26  O3G        7.9350    2.5530   14.3490 O.3   401  6CF401     -0.1143
     27  C4'        9.2330    6.4570   10.1760 C.3   401  6CF401      0.1106
     28  O4'       10.2490    7.3820   10.6070 O.3   401  6CF401     -0.3495
     29  C5'        9.3070    5.1960   11.0360 C.3   401  6CF401      0.0858
     30  O5'       10.5500    4.5350   10.8010 O.3   401  6CF401     -0.3010
     31  HN4       16.6630    9.4270    9.3850 H     401  6CF401      0.1447
     32 HN4A       16.7690    8.0000   10.2640 H     401  6CF401      0.1447
     33  H5        14.8440    6.6520   10.8380 H     401  6CF401      0.0676
     34  H6        12.4060    6.4170   10.6890 H     401  6CF401      0.0794
     35  H1'       10.3000    9.1240    9.4830 H     401  6CF401      0.0820
     36 HO1A       10.3880    4.4650   13.6750 H     401  6CF401      0.2199
     37  H2'       11.1870    7.1140    7.6040 H     401  6CF401      0.0333
     38 H2'A        9.6340    8.0090    7.6020 H     401  6CF401      0.0333
     39 HO2B        8.3400    2.1810    9.6930 H     401  6CF401      0.2199
     40  H3'       10.2420    5.2520    8.6540 H     401  6CF401      0.0621
     41 HO3'        8.3290    4.9940    7.5770 H     401  6CF401      0.2099
     42  H4'        8.2430    6.9100   10.2430 H     401  6CF401      0.0646
     43  H5'        9.2270    5.4610   12.0900 H     401  6CF401      0.0592
     44 H5'A        8.4860    4.5280   10.7760 H     401  6CF401      0.0592
@<TRIPOS>BOND
     1    41    23    1
     2    38    17    1
     3    37    17    1
     4    23    22    1
     5    17    22    1
     6    17    12    1
     7     4     3    2
     8    40    22    1
     9    22    27    1
    10     3     6    2
    11     3     1   am
    12     6     8    2
    13    31     9    1
    14    12    35    1
    15    12     1    1
    16    12    28    1
    17     1    11    1
    18    39    20    1
    19     8     9    1
    20     8    10    1
    21     9    32    1
    22    13    24    1
    23    27    42    1
    24    27    28    1
    25    27    29    1
    26    11    10    2
    27    11    34    1
    28    10    33    1
    29    15     5    2
    30    20     5    1
    31    44    29    1
    32    30    29    1
    33    30     2    1
    34    29    43    1
    35    24     5    1
    36    24     2    1
    37    24    18    1
    38     5    25    1
    39     2    19    2
    40     2    14    1
    41    25     7    1
    42    21     7    2
    43    14    36    1
    44     7    26    1
    45     7    16    1
