@<TRIPOS>MOLECULE
4f5p_F2A_A_1.pdb
 30 32 0 0 0
SMALL
GASTEIGER

@<TRIPOS>ATOM
      1  PA         9.9310    4.3230   12.0930 P.3   404  F2A404      0.3820
      2  O1A        8.6990    4.5650   12.9880 O.3   404  F2A404     -0.1392
      3  O2A       11.2320    4.9000   12.7800 O.2   404  F2A404     -0.2548
      4  C3A       10.2130    2.5040   11.6290 C.3   404  F2A404      0.2357
      5  O5'        9.8770    5.1240   10.7530 O.3   404  F2A404     -0.2896
      6  PB         8.8110    1.3420   11.2400 P.3   404  F2A404      0.3895
      7  O1B        9.2750    1.5680    9.7360 O.2   404  F2A404     -0.2544
      8  O2B        7.9140    2.3640   11.9550 O.3   404  F2A404     -0.1388
      9  O3B        9.6260    0.3210   12.1340 O.3   404  F2A404     -0.2026
     10  PG         9.4570    0.2380   13.6880 P.3   404  F2A404      0.5389
     11  O1G       10.7830   -0.0200   14.2980 O.3   404  F2A404     -0.1143
     12  O2G        8.4520   -0.9400   14.0830 O.2   404  F2A404     -0.2220
     13  O3G        8.8820    1.5190   14.2110 O.3   404  F2A404     -0.1143
     14  C5'        8.6450    5.5700   10.2210 C.3   404  F2A404      0.1835
     15  C4'        8.5590    5.6750    8.7710 C.3   404  F2A404      0.1795
     16  O4'        9.3670    6.7790    8.1560 O.3   404  F2A404     -0.3155
     17  C1'       10.2200    6.2290    7.1870 C.3   404  F2A404      0.2873
     18  N9        11.5860    6.1270    7.5360 N.pl3 404  F2A404     -0.1460
     19  C4        12.5760    6.4870    6.6850 C.2   404  F2A404      0.3518
     20  N3        12.6030    6.9880    5.4220 N.2   404  F2A404     -0.0055
     21  C2        13.7660    7.2610    4.8120 C.3   404  F2A404      0.5254
     22  N1        14.9440    7.0460    5.4300 N.2   404  F2A404      0.0021
     23  C6        14.9920    6.5460    6.6880 C.2   404  F2A404      0.4393
     24  N6        16.2810    6.3110    7.3530 N.pl3 404  F2A404      0.2180
     25  C5        13.7820    6.2580    7.3330 C.2   404  F2A404      0.2526
     26  N7        13.4880    5.7640    8.5570 N.2   404  F2A404     -0.2095
     27  C8        12.1450    5.6850    8.6740 C.3   404  F2A404      0.3377
     28  C2'        9.6550    4.8580    6.8610 C.3   404  F2A404      0.1151
     29  C3'        9.0150    4.4180    8.1150 C.3   404  F2A404      0.1883
     30  O3'        8.0220    3.4780    7.7390 O.3   404  F2A404     -0.2202
@<TRIPOS>BOND
     1    21    20    1
     2    21    22    1
     3    20    19    2
     4    22    23    2
     5    19    25    1
     6    19    18    1
     7    23    25    1
     8    23    24    1
     9    28    17    1
    10    28    29    1
    11    17    18    1
    12    17    16    1
    13    25    26    2
    14    18    27    1
    15    30    29    1
    16    29    15    1
    17    16    15    1
    18    26    27    1
    19    15    14    1
    20     7     6    2
    21    14     5    1
    22     5     1    1
    23     6     4    1
    24     6     8    1
    25     6     9    1
    26     4     1    1
    27     1     3    2
    28     1     2    1
    29     9    10    1
    30    10    12    2
    31    10    13    1
    32    10    11    1
