@<TRIPOS>MOLECULE
4f5q_6CF_A_1.pdb
 30 31 0 0 0
SMALL
GASTEIGER

@<TRIPOS>ATOM
      1  N1         8.3850    8.5850    4.8140 N.am  403  6CF403     -0.1802
      2  P1         6.8100    6.2080    9.0810 P.3   403  6CF403      0.4410
      3  C2         9.1840    9.1890    3.8730 C.1   403  6CF403      0.2756
      4  O2         8.6320    9.5220    2.6640 O.2   403  6CF403     -0.1925
      5  P2         6.4160    3.3350    8.0600 P.3   403  6CF403      0.4486
      6  N3        10.5600    9.4670    4.1650 N.2   403  6CF403     -0.3024
      7  P3         6.4200    1.8910   10.3130 P.3   403  6CF403      0.5390
      8  C4        11.1160    9.1130    5.3880 C.2   403  6CF403      0.2346
      9  N4        12.5020    9.3740    5.6860 N.pl3 403  6CF403     -0.0921
     10  C5        10.2600    8.4760    6.3410 C.2   403  6CF403      0.0687
     11  C6         8.9220    8.2220    6.0410 C.2   403  6CF403      0.0835
     12  C1'        6.9980    8.3160    4.4630 C.3   403  6CF403      0.2090
     13  F1A        8.5250    4.8150    7.8000 F     403  6CF403     -0.1787
     14  O1A        5.4860    6.0290    9.8730 O.3   403  6CF403     -0.1352
     15  O1B        6.7010    3.1020    6.5450 O.2   403  6CF403     -0.2488
     16  O1G        7.7010    1.8180   11.0920 O.3   403  6CF403     -0.1143
     17  C2'        6.9200    6.9340    3.9140 C.3   403  6CF403      0.0874
     18  F2A        8.1340    4.1170    9.8320 F     403  6CF403     -0.1787
     19  O2A        7.7660    7.1300    9.8720 O.2   403  6CF403     -0.2492
     20  O2B        4.9710    3.8890    8.2110 O.3   403  6CF403     -0.1349
     21  O2G        5.6290    0.7120   10.8000 O.2   403  6CF403     -0.2220
     22  C3'        6.1610    6.2010    4.9490 C.3   403  6CF403      0.1857
     23  O3'        5.3090    5.2790    4.3820 O.3   403  6CF403     -0.2203
     24  C3A        7.5920    4.5930    8.7170 C.3   403  6CF403      0.4484
     25  O3B        6.5590    1.9410    8.7560 O.3   403  6CF403     -0.1990
     26  O3G        5.7230    3.0840   10.8760 O.3   403  6CF403     -0.1143
     27  C4'        5.4160    7.2480    5.6820 C.3   403  6CF403      0.1773
     28  O4'        6.1210    8.4480    5.5390 O.3   403  6CF403     -0.3339
     29  C5'        5.2920    6.8370    7.1240 C.3   403  6CF403      0.1836
     30  O5'        6.5430    6.9110    7.7180 O.3   403  6CF403     -0.2860
@<TRIPOS>BOND
     1     4     3    2
     2     3     6    2
     3     3     1   am
     4    17    12    1
     5    17    22    1
     6     6     8    2
     7    23    22    1
     8    12     1    1
     9    12    28    1
    10     1    11    1
    11    22    27    1
    12     8     9    1
    13     8    10    1
    14    28    27    1
    15    27    29    1
    16    11    10    2
    17    15     5    2
    18    29    30    1
    19    30     2    1
    20    13    24    1
    21     5    20    1
    22     5    24    1
    23     5    25    1
    24    24     2    1
    25    24    18    1
    26    25     7    1
    27     2    19    2
    28     2    14    1
    29     7    21    2
    30     7    26    1
    31     7    16    1
