@<TRIPOS>MOLECULE
4f5r_6CF_A_1.pdb
 30 31 0 0 0
SMALL
GASTEIGER

@<TRIPOS>ATOM
      1  N1         9.8730    5.4250   37.3180 N.am  402  6CF402     -0.1802
      2  P1         8.8950    0.3740   37.2390 P.3   402  6CF402      0.4410
      3  C2        10.2310    6.6070   37.9540 C.1   402  6CF402      0.2756
      4  O2        11.0200    7.5260   37.3050 O.2   402  6CF402     -0.1925
      5  P2         7.0240   -1.8770   37.6860 P.3   402  6CF402      0.4486
      6  N3         9.7800    6.8650   39.2710 N.2   402  6CF402     -0.3024
      7  P3         4.3780   -2.4910   37.5820 P.3   402  6CF402      0.5390
      8  C4         8.9960    5.9500   39.9260 C.2   402  6CF402      0.2346
      9  N4         8.5540    6.2380   41.2740 N.pl3 402  6CF402     -0.0921
     10  C5         8.6140    4.7190   39.3020 C.2   402  6CF402      0.0687
     11  C6         9.0700    4.4860   37.9920 C.2   402  6CF402      0.0835
     12  C1'       10.3490    5.1510   35.9620 C.3   402  6CF402      0.2090
     13  F1A        6.3380    0.4820   36.7510 F     402  6CF402     -0.1787
     14  O1A        8.8750    0.4390   38.7920 O.3   402  6CF402     -0.1352
     15  O1B        6.6540   -1.3650   39.1060 O.3   402  6CF402     -0.1349
     16  O1G        4.1660   -2.5060   39.0680 O.3   402  6CF402     -0.1143
     17  C2'       11.6770    4.4550   36.0130 C.3   402  6CF402      0.0874
     18  F2A        7.4970   -0.7250   35.3650 F     402  6CF402     -0.1787
     19  O2A       10.1250   -0.4160   36.7040 O.2   402  6CF402     -0.2492
     20  O2B        8.2990   -2.7550   37.8140 O.2   402  6CF402     -0.2488
     21  O2G        3.4300   -3.5190   37.0280 O.2   402  6CF402     -0.2220
     22  C3'       11.2900    3.0250   35.7900 C.3   402  6CF402      0.1857
     23  O3'       12.2630    2.3160   35.1330 O.3   402  6CF402     -0.2203
     24  C3A        7.3460   -0.3910   36.6420 C.3   402  6CF402      0.4484
     25  O3B        5.8550   -2.7580   37.1370 O.3   402  6CF402     -0.1990
     26  O3G        3.8360   -1.1620   37.1270 O.3   402  6CF402     -0.1143
     27  C4'       10.0360    3.1140   34.9780 C.3   402  6CF402      0.1773
     28  O4'        9.4540    4.3480   35.2630 O.3   402  6CF402     -0.3339
     29  C5'        9.0650    1.9930   35.2820 C.3   402  6CF402      0.1836
     30  O5'        9.0050    1.8260   36.6680 O.3   402  6CF402     -0.2860
@<TRIPOS>BOND
     1    27    28    1
     2    27    29    1
     3    27    22    1
     4    23    22    1
     5    28    12    1
     6    29    30    1
     7    18    24    1
     8    22    17    1
     9    12    17    1
    10    12     1    1
    11    24    13    1
    12    24     2    1
    13    24     5    1
    14    30     2    1
    15    19     2    2
    16    21     7    2
    17    26     7    1
    18    25     7    1
    19    25     5    1
    20     2    14    1
    21     4     3    2
    22     1     3   am
    23     1    11    1
    24     7    16    1
    25     5    20    2
    26     5    15    1
    27     3     6    2
    28    11    10    2
    29     6     8    2
    30    10     8    1
    31     8     9    1
