@<TRIPOS>MOLECULE
4f5y_C2E_A_1.pdb
 46 52 0 0 0
SMALL
GASTEIGER

@<TRIPOS>ATOM
      1  P1        20.1830   20.0320   21.1420 P.3   402  C2E402      0.2141
      2  O2P       20.2840   19.4130   19.7030 O.2   402  C2E402     -0.5172
      3  O1P       21.3250   19.4100   21.9800 O.3   402  C2E402     -0.4373
      4  O5'       20.4060   21.5870   21.0390 O.3   402  C2E402     -0.3114
      5  C5'       20.5490   22.2860   22.2590 C.3   402  C2E402      0.1812
      6  C4'       20.3920   23.7920   22.0050 C.3   402  C2E402      0.1771
      7  O4'       21.6050   24.2980   21.4630 O.3   402  C2E402     -0.3327
      8  C3'       19.3170   24.2520   21.0480 C.3   402  C2E402      0.1857
      9  O3'       18.0990   24.3930   21.7120 O.3   402  C2E402     -0.3112
     10  C2'       19.8460   25.5400   20.5960 C.3   402  C2E402      0.2282
     11  O2'       19.6720   26.5330   21.5580 O.3   402  C2E402     -0.2159
     12  C1'       21.3170   25.2410   20.4370 C.3   402  C2E402      0.2292
     13  N9        21.6050   24.8230   19.0840 N.pl3 402  C2E402     -0.2354
     14  C8        21.5310   23.5570   18.5500 C.3   402  C2E402      0.2246
     15  N7        21.8790   23.5760   17.2250 N.2   402  C2E402     -0.2322
     16  C5        22.1960   24.9180   16.8820 C.2   402  C2E402      0.2182
     17  C6        22.6320   25.6180   15.7040 C.1   402  C2E402      0.2372
     18  O6        22.8260   24.9490   14.5190 O.2   402  C2E402     -0.2069
     19  N1        22.8650   27.0160   15.7370 N.2   402  C2E402     -0.2485
     20  C2        22.6790   27.7370   16.9340 C.1   402  C2E402      0.2531
     21  N2        22.9280   29.1620   16.9660 N.pl3 402  C2E402     -0.0226
     22  N3        22.2620   27.0850   18.0720 N.2   402  C2E402     -0.3074
     23  C4        22.0140   25.7030   18.0920 C.2   402  C2E402      0.2300
     24  P11       16.7080   24.0190   21.0660 P.3   402  C2E402      0.2141
     25  O21       15.5990   24.6210   21.9350 O.3   402  C2E402     -0.4373
     26  O11       16.6210   24.5590   19.6160 O.2   402  C2E402     -0.5172
     27  O5A       16.5660   22.4350   21.0540 O.3   402  C2E402     -0.3114
     28  C5A       16.3500   21.7180   22.2730 C.3   402  C2E402      0.1812
     29  C4A       16.4500   20.2290   21.9590 C.3   402  C2E402      0.1771
     30  O4A       15.3440   19.7830   21.2540 O.3   402  C2E402     -0.3327
     31  C3A       17.6210   19.9100   21.1090 C.3   402  C2E402      0.1857
     32  O3A       18.7660   19.7520   21.8130 O.3   402  C2E402     -0.3112
     33  C2A       17.1650   18.5930   20.5420 C.3   402  C2E402      0.2282
     34  O2A       17.4230   17.4990   21.3810 O.3   402  C2E402     -0.2159
     35  C1A       15.7210   18.8040   20.3260 C.3   402  C2E402      0.2292
     36  N91       15.5670   19.2820   18.9900 N.pl3 402  C2E402     -0.2354
     37  C81       15.6910   20.5520   18.5480 C.3   402  C2E402      0.2246
     38  N71       15.5040   20.6160   17.1850 N.2   402  C2E402     -0.2322
     39  C51       15.2560   19.3190   16.7540 C.2   402  C2E402      0.2182
     40  C61       14.9710   18.6710   15.4700 C.1   402  C2E402      0.2372
     41  O61       14.9220   19.4820   14.3090 O.2   402  C2E402     -0.2069
     42  N11       14.7600   17.3060   15.4280 N.2   402  C2E402     -0.2485
     43  C21       14.8160   16.5060   16.6470 C.1   402  C2E402      0.2531
     44  N21       14.5960   15.0790   16.6340 N.pl3 402  C2E402     -0.0226
     45  N31       15.0770   17.1000   17.8530 N.2   402  C2E402     -0.3074
     46  C41       15.2990   18.4740   17.9230 C.2   402  C2E402      0.2300
@<TRIPOS>BOND
     1    41    40    2
     2    18    17    2
     3    42    40    2
     4    42    43    2
     5    40    39    1
     6    17    19    2
     7    17    16    1
     8    19    20    2
     9    44    43    1
    10    43    45    2
    11    39    38    2
    12    39    46    1
    13    16    15    2
    14    16    23    1
    15    20    21    1
    16    20    22    2
    17    38    37    1
    18    15    14    1
    19    45    46    2
    20    46    36    1
    21    22    23    2
    22    23    13    1
    23    37    36    1
    24    14    13    1
    25    36    35    1
    26    13    12    1
    27    26    24    2
    28     2     1    2
    29    35    33    1
    30    35    30    1
    31    12    10    1
    32    12     7    1
    33    33    31    1
    34    33    34    1
    35    10     8    1
    36    10    11    1
    37     4     1    1
    38     4     5    1
    39     8     9    1
    40     8     6    1
    41    27    24    1
    42    27    28    1
    43    24     9    1
    44    24    25    1
    45    31    32    1
    46    31    29    1
    47     1    32    1
    48     1     3    1
    49    30    29    1
    50     7     6    1
    51    29    28    1
    52     6     5    1
