@<TRIPOS>MOLECULE
4f61_GTP_A_1.pdb
 32 34 0 0 0
SMALL
GASTEIGER

@<TRIPOS>ATOM
      1  PG      -119.7130  -13.6550   18.7890 P.3   600  GTP600      0.5373
      2  O1G     -120.0660  -12.2020   18.9120 O.3   600  GTP600     -0.1143
      3  O2G     -119.3620  -14.2970   20.0950 O.3   600  GTP600     -0.1143
      4  O3G     -118.5750  -13.8610   17.8340 O.2   600  GTP600     -0.2221
      5  O3B     -120.9950  -14.4240   18.2020 O.3   600  GTP600     -0.2258
      6  PB      -122.4120  -13.9660   17.9680 P.3   600  GTP600      0.2277
      7  O1B     -122.8830  -13.1440   19.1360 O.3   600  GTP600     -0.4368
      8  O2B     -123.2740  -15.1960   17.8110 O.2   600  GTP600     -0.5168
      9  O3A     -122.4650  -13.0660   16.6310 O.3   600  GTP600     -0.2700
     10  PA      -123.5410  -12.6450   15.6580 P.3   600  GTP600      0.2189
     11  O1A     -123.7270  -11.1590   15.7370 O.2   600  GTP600     -0.5170
     12  O2A     -124.8370  -13.3380   16.0110 O.3   600  GTP600     -0.4371
     13  O5'     -123.0850  -13.0460   14.1700 O.3   600  GTP600     -0.3112
     14  C5'     -123.0510  -12.1370   13.0530 C.3   600  GTP600      0.1813
     15  C4'     -123.9290  -12.6490   11.9250 C.3   600  GTP600      0.1799
     16  O4'     -125.3120  -12.7490   12.3560 O.3   600  GTP600     -0.3326
     17  C3'     -123.9690  -11.7600   10.6800 C.3   600  GTP600      0.2158
     18  O3'     -124.3350  -12.4610    9.4930 O.3   600  GTP600     -0.2175
     19  C2'     -125.0830  -10.7840   11.0330 C.3   600  GTP600      0.2310
     20  O2'     -125.6190  -10.2080    9.8450 O.3   600  GTP600     -0.2158
     21  C1'     -126.0780  -11.7170   11.7510 C.3   600  GTP600      0.2293
     22  N9      -126.9000  -11.0610   12.7930 N.pl3 600  GTP600     -0.2354
     23  C8      -126.4770  -10.4870   13.9700 C.3   600  GTP600      0.2246
     24  N7      -127.4550   -9.9590   14.6680 N.2   600  GTP600     -0.2322
     25  C5      -128.5930  -10.1960   13.9090 C.2   600  GTP600      0.2182
     26  C6      -130.0090   -9.8720   14.1280 C.1   600  GTP600      0.2372
     27  O6      -130.4960   -9.3050   15.0960 O.2   600  GTP600     -0.2069
     28  N1      -130.8210  -10.2990   13.0960 N.2   600  GTP600     -0.2485
     29  C2      -130.3850  -10.9620   11.9820 C.1   600  GTP600      0.2531
     30  N2      -131.3080  -11.2980   11.0810 N.pl3 600  GTP600     -0.0226
     31  N3      -129.1050  -11.2790   11.7620 N.2   600  GTP600     -0.3074
     32  C4      -128.2680  -10.8730   12.7530 C.2   600  GTP600      0.2300
@<TRIPOS>BOND
     1    18    17    1
     2    20    19    1
     3    17    19    1
     4    17    15    1
     5    19    21    1
     6    30    29    1
     7    21    16    1
     8    21    22    1
     9    31    29    2
    10    31    32    2
    11    15    16    1
    12    15    14    1
    13    29    28    2
    14    32    22    1
    15    32    25    1
    16    22    23    1
    17    14    13    1
    18    28    26    2
    19    25    26    1
    20    25    24    2
    21    23    24    1
    22    26    27    2
    23    13    10    1
    24    10    11    2
    25    10    12    1
    26    10     9    1
    27     9     6    1
    28     8     6    2
    29     4     1    2
    30     6     5    1
    31     6     7    1
    32     5     1    1
    33     1     2    1
    34     1     3    1
