@<TRIPOS>MOLECULE
4f61_GDP_B_1.pdb
 28 30 0 0 0
SMALL
GASTEIGER

@<TRIPOS>ATOM
      1  PB       -86.9390    7.8230   22.8830 P.3   600  GDP600      0.5373
      2  O1B      -88.0900    6.7990   22.6150 O.2   600  GDP600     -0.2221
      3  O2B      -87.2690    8.8820   23.9700 O.3   600  GDP600     -0.1143
      4  O3B      -85.6320    7.1600   23.3310 O.3   600  GDP600     -0.1143
      5  O3A      -86.7180    8.6080   21.5140 O.3   600  GDP600     -0.2261
      6  PA       -87.7100    9.3260   20.5020 P.3   600  GDP600      0.2231
      7  O1A      -87.4310   10.7840   20.5770 O.2   600  GDP600     -0.5169
      8  O2A      -89.1670    8.8690   20.8350 O.3   600  GDP600     -0.4370
      9  O5'      -87.2820    8.7310   19.0960 O.3   600  GDP600     -0.3111
     10  C5'      -86.8600    9.4780   17.9390 C.3   600  GDP600      0.1813
     11  C4'      -87.7970    9.1310   16.8030 C.3   600  GDP600      0.1799
     12  O4'      -89.1370    9.5500   17.1520 O.3   600  GDP600     -0.3326
     13  C3'      -87.4930    9.8450   15.4890 C.3   600  GDP600      0.2158
     14  O3'      -87.9970    9.1170   14.3730 O.3   600  GDP600     -0.2175
     15  C2'      -88.2260   11.1690   15.6790 C.3   600  GDP600      0.2310
     16  O2'      -88.4810   11.7880   14.4200 O.3   600  GDP600     -0.2158
     17  C1'      -89.5040   10.6750   16.3730 C.3   600  GDP600      0.2293
     18  N9       -90.2140   11.6480   17.2370 N.pl3 600  GDP600     -0.2354
     19  C8       -89.7890   12.2370   18.4060 C.3   600  GDP600      0.2246
     20  N7       -90.7050   12.9830   18.9750 N.2   600  GDP600     -0.2322
     21  C5       -91.8020   12.8860   18.1340 C.2   600  GDP600      0.2182
     22  C6       -93.1220   13.4620   18.2090 C.1   600  GDP600      0.2372
     23  O6       -93.5500   14.1790   19.1120 O.2   600  GDP600     -0.2069
     24  N1       -93.9300   13.1030   17.1320 N.2   600  GDP600     -0.2485
     25  C2       -93.5480   12.2820   16.0970 C.1   600  GDP600      0.2531
     26  N2       -94.4490   12.0470   15.1380 N.pl3 600  GDP600     -0.0226
     27  N3       -92.3360   11.7300   16.0110 N.2   600  GDP600     -0.3074
     28  C4       -91.5140   12.0700   17.0530 C.2   600  GDP600      0.2300
@<TRIPOS>BOND
     1    14    13    1
     2    16    15    1
     3    26    25    1
     4    13    15    1
     5    13    11    1
     6    15    17    1
     7    27    25    2
     8    27    28    2
     9    25    24    2
    10    17    12    1
    11    17    18    1
    12    11    12    1
    13    11    10    1
    14    28    18    1
    15    28    21    1
    16    24    22    2
    17    18    19    1
    18    10     9    1
    19    21    22    1
    20    21    20    2
    21    22    23    2
    22    19    20    1
    23     9     6    1
    24     6     7    2
    25     6     8    1
    26     6     5    1
    27     5     1    1
    28     2     1    2
    29     1     4    1
    30     1     3    1
