@<TRIPOS>MOLECULE
4f63_0S7_A_1.pdb
 23 25 0 0 0
SMALL
GASTEIGER

@<TRIPOS>ATOM
      1  C1        88.9070    0.9140   12.3780 C.3   801  0S7801      0.0520
      2  C2        88.3890    0.2960   11.0920 C.2   801  0S7801      0.0959
      3  C3        87.4920    0.8560   10.1760 C.3   801  0S7801      0.1690
      4  C4        87.2970   -0.0450    9.1720 C.2   801  0S7801      0.3771
      5  N5        86.4940    0.0330    8.0460 N.pl3 801  0S7801      0.0269
      6  C6        85.7380    1.1550    7.7280 C.2   801  0S7801      0.3331
      7  N7        85.7150    2.2140    8.5140 N.2   801  0S7801     -0.2926
      8  C8        84.9990    3.2790    8.1910 C.1   801  0S7801      0.1686
      9  N9        85.0020    4.3480    9.0690 N.pl3 801  0S7801     -0.1616
     10  C10       84.5840    4.0610   10.4420 C.3   801  0S7801      0.1300
     11  C11       84.9600    5.2100   11.3780 C.3   801  0S7801      0.0522
     12  C12       85.4230    4.6210   12.6710 C.ar  801  0S7801     -0.0012
     13  C13       86.2310    5.3370   13.5580 C.ar  801  0S7801     -0.0011
     14  C14       86.6390    4.7000   14.7300 C.ar  801  0S7801      0.0204
     15  C15       86.2030    3.3870   14.9790 C.ar  801  0S7801      0.0989
     16  N16       85.4230    2.7510   14.1050 N.ar  801  0S7801     -0.2426
     17  C17       85.0230    3.3160   12.9800 C.ar  801  0S7801      0.0946
     18  N18       84.2760    3.3340    7.0780 N.2   801  0S7801     -0.1679
     19  C19       84.2490    2.3180    6.2310 C.2   801  0S7801      0.1248
     20  C20       84.9880    1.1920    6.5400 C.2   801  0S7801      0.1277
     21 BR1        85.0300   -0.3140    5.3790 Br    801  0S7801     -0.0407
     22  N22       88.0400   -1.1110    9.4540 N.2   801  0S7801      0.0793
     23  N24       88.7130   -0.8780   10.6430 N.2   801  0S7801     -0.0426
@<TRIPOS>BOND
     1    21    20    1
     2    19    20    2
     3    19    18    1
     4    20     6    1
     5    18     8    2
     6     6     5    1
     7     6     7    2
     8     5     4    1
     9     8     7    2
    10     8     9    1
    11     9    10    1
    12     4    22    2
    13     4     3    1
    14    22    23    1
    15     3     2    1
    16    10    11    1
    17    23     2    2
    18     2     1    1
    19    11    12    1
    20    12    17   ar
    21    12    13   ar
    22    17    16   ar
    23    13    14   ar
    24    16    15   ar
    25    14    15   ar
