@<TRIPOS>MOLECULE
4f64_0S8_A_1.pdb
 26 28 0 0 0
SMALL
GASTEIGER

@<TRIPOS>ATOM
      1  C1        90.5280    2.7210   15.8220 C.3   801  0S8801      0.1741
      2  O2        89.4190    1.9150   15.3640 O.3   801  0S8801     -0.3511
      3  C3        88.8240    2.5830   14.2340 C.3   801  0S8801      0.1427
      4  C4        88.0610    1.5670   13.3700 C.3   801  0S8801      0.0382
      5  C5        89.0930    1.0000   12.3960 C.3   801  0S8801      0.0485
      6  C6        88.4990    0.4590   11.1240 C.2   801  0S8801      0.0956
      7  C7        87.5450    1.0550   10.2820 C.3   801  0S8801      0.1690
      8  C8        87.3430    0.2080    9.2400 C.2   801  0S8801      0.3771
      9  N9        86.5070    0.2720    8.1460 N.pl3 801  0S8801      0.0269
     10  C10       85.6680    1.3410    7.9020 C.2   801  0S8801      0.3331
     11  N11       85.6120    2.4020    8.6950 N.2   801  0S8801     -0.2926
     12  C12       84.7930    3.4240    8.4150 C.1   801  0S8801      0.1690
     13  N13       84.7100    4.5440    9.2420 N.pl3 801  0S8801     -0.1536
     14  C14       85.6690    4.8140   10.3160 C.3   801  0S8801      0.1920
     15  C15       85.1610    4.1830   11.5820 C.ar  801  0S8801      0.1767
     16  C16       84.0730    3.3770   11.7630 C.ar  801  0S8801      0.0554
     17  C17       84.0880    3.0500   13.1570 C.ar  801  0S8801      0.1008
     18  C18       83.1130    2.1980   13.9280 C.3   801  0S8801      0.0557
     19  N19       85.1310    3.6480   13.6470 N.ar  801  0S8801     -0.0817
     20  O20       85.7300    4.2850   12.7840 O.2   801  0S8801     -0.3563
     21  N21       84.0250    3.4130    7.3420 N.2   801  0S8801     -0.1679
     22  C22       84.0380    2.3890    6.4950 C.2   801  0S8801      0.1248
     23  C23       84.8750    1.3070    6.7560 C.2   801  0S8801      0.1277
     24 BR1        84.9670   -0.1760    5.5540 Br    801  0S8801     -0.0407
     25  N25       88.1260   -0.8340    9.4390 N.2   801  0S8801      0.0793
     26  N27       88.8480   -0.6760   10.6030 N.2   801  0S8801     -0.0426
@<TRIPOS>BOND
     1    24    23    1
     2    22    23    2
     3    22    21    1
     4    23    10    1
     5    21    12    2
     6    10     9    1
     7    10    11    2
     8     9     8    1
     9    12    11    2
    10    12    13    1
    11     8    25    2
    12     8     7    1
    13    13    14    1
    14    25    26    1
    15     7     6    1
    16    14    15    1
    17    26     6    2
    18     6     5    1
    19    15    16   ar
    20    15    20   ar
    21    16    17   ar
    22     5     4    1
    23    20    19   ar
    24    17    19   ar
    25    17    18    1
    26     4     3    1
    27     3     2    1
    28     2     1    1
