@<TRIPOS>MOLECULE
4f65_0S9_A_1.pdb
 29 32 0 0 0
SMALL
GASTEIGER

@<TRIPOS>ATOM
      1  C26       11.2720   -3.6250   -9.9110 C.ar  808  0S9808     -0.0000
      2  C25       12.2920   -3.0990   -9.1420 C.ar  808  0S9808     -0.0003
      3  C27       11.4960   -3.9650  -11.2320 C.ar  808  0S9808     -0.0003
      4  C24       13.5430   -2.9170   -9.7000 C.ar  808  0S9808     -0.0043
      5  C28       12.7520   -3.7800  -11.7820 C.ar  808  0S9808     -0.0043
      6  C3        19.5660   -4.3290   -9.9030 C.ar  808  0S9808      0.0554
      7  C17       17.6610   -1.9580  -13.1690 C.3   808  0S9808      0.1690
      8  C11       22.6390   -3.3840  -14.4490 C.2   808  0S9808      0.1248
      9  C23       13.7760   -3.2460  -11.0210 C.ar  808  0S9808     -0.0218
     10  C12       21.8120   -2.3270  -14.7390 C.2   808  0S9808      0.1277
     11  C2        18.6630   -4.0630   -8.8470 C.ar  808  0S9808      0.1008
     12  C18       16.4100   -1.3960  -13.0620 C.2   808  0S9808      0.0958
     13  C4        18.8230   -5.0240  -10.8300 C.ar  808  0S9808      0.1767
     14  C16       18.3730   -1.1110  -14.0550 C.2   808  0S9808      0.3771
     15  C13       20.5310   -2.3500  -14.1890 C.2   808  0S9808      0.3331
     16  C9        20.9550   -4.4070  -13.2540 C.1   808  0S9808      0.1690
     17  C1        18.9410   -3.3420   -7.5910 C.3   808  0S9808      0.0557
     18  C22       15.1350   -3.0420  -11.6110 C.3   808  0S9808      0.0324
     19  C21       15.1780   -1.7050  -12.3060 C.3   808  0S9808      0.0506
     20  C7        19.1480   -5.6040  -12.1550 C.3   808  0S9808      0.1920
     21  N10       22.2220   -4.4230  -13.7080 N.2   808  0S9808     -0.1679
     22  N6        17.4430   -4.5540   -9.1080 N.ar  808  0S9808     -0.0817
     23  N14       20.0970   -3.3930  -13.4640 N.2   808  0S9808     -0.2926
     24  N20       17.6080   -0.0820  -14.4460 N.2   808  0S9808      0.0793
     25  N19       16.4280   -0.3020  -13.8640 N.2   808  0S9808     -0.0426
     26  N15       19.6790   -1.2610  -14.4190 N.pl3 808  0S9808      0.0269
     27  N8        20.5690   -5.5360  -12.5060 N.pl3 808  0S9808     -0.1536
     28  O5        17.5560   -5.1680  -10.3520 O.2   808  0S9808     -0.3563
     29 BR1        22.4870   -0.9310  -15.8330 Br    808  0S9808     -0.0407
@<TRIPOS>BOND
     1    29    10    1
     2    10     8    2
     3    10    15    1
     4     8    21    1
     5    24    14    2
     6    24    25    1
     7    26    15    1
     8    26    14    1
     9    15    23    2
    10    14     7    1
    11    25    12    2
    12    21    16    2
    13    23    16    2
    14    16    27    1
    15     7    12    1
    16    12    19    1
    17    27    20    1
    18    19    18    1
    19    20    13    1
    20     5     3   ar
    21     5     9   ar
    22    18     9    1
    23     3     1   ar
    24     9     4   ar
    25    13    28   ar
    26    13     6   ar
    27    28    22   ar
    28     1     2   ar
    29     6    11   ar
    30     4     2   ar
    31    22    11   ar
    32    11    17    1
