@<TRIPOS>MOLECULE
4f66_BG6_A_1.pdb
 16 16 0 0 0
SMALL
GASTEIGER

@<TRIPOS>ATOM
      1  C1         0.7450    4.8080   28.3610 C.3   501  BG6501      0.3024
      2  C2        -0.4220    4.0410   27.7840 C.3   501  BG6501      0.2434
      3  O1         0.2510    5.9440   28.9770 O.3   501  BG6501     -0.1869
      4  O5         1.7880    5.1990   27.5330 O.3   501  BG6501     -0.3237
      5  C3        -0.3540    3.8030   26.3030 C.3   501  BG6501      0.2199
      6  O2        -0.5670    2.8340   28.4640 O.3   501  BG6501     -0.2148
      7  C4         0.2390    5.0300   25.6730 C.3   501  BG6501      0.2143
      8  O3        -1.6450    3.5800   25.8530 O.3   501  BG6501     -0.2174
      9  C5         1.6490    5.0960   26.1510 C.3   501  BG6501      0.1808
     10  O4         0.2120    4.9670   24.2800 O.3   501  BG6501     -0.2176
     11  C6         2.3980    6.2500   25.5430 C.3   501  BG6501      0.1859
     12  O6         1.7510    7.4620   25.7070 O.3   501  BG6501     -0.2675
     13  P          1.4900    8.3300   24.4280 P.3   501  BG6501      0.5327
     14  O1P        0.4970    9.4140   24.7390 O.3   501  BG6501     -0.1145
     15  O2P        2.7360    9.0020   23.9190 O.3   501  BG6501     -0.1145
     16  O3P        0.9070    7.4630   23.3430 O.2   501  BG6501     -0.2224
@<TRIPOS>BOND
     1    16    13    2
     2    15    13    1
     3    10     7    1
     4    13    14    1
     5    13    12    1
     6    11    12    1
     7    11     9    1
     8     7     9    1
     9     7     5    1
    10     8     5    1
    11     9     4    1
    12     5     2    1
    13     4     1    1
    14     2     1    1
    15     2     6    1
    16     1     3    1
