@<TRIPOS>MOLECULE
4f68_HEM_A_1.pdb
 43 50 0 0 0
SMALL
GASTEIGER

@<TRIPOS>ATOM
      1  CHA       24.9480   31.3250    8.5160 C.2   201  HEM201      0.0000
      2  CHB       26.8400   33.7920   12.2490 C.2   201  HEM201      0.0000
      3  CHC       31.1310   31.5370   11.5690 C.2   201  HEM201      0.0000
      4  CHD       29.2000   28.9120    7.9860 C.2   201  HEM201      0.0000
      5  C1A       25.1000   32.1960    9.5740 C.2   201  HEM201      0.0000
      6  C2A       24.0730   33.0760   10.0910 C.2   201  HEM201      0.0000
      7  C3A       24.5930   33.7660   11.1110 C.2   201  HEM201      0.0000
      8  C4A       25.9620   33.3370   11.2940 C.2   201  HEM201      0.0000
      9  CMA       23.8670   34.8270   11.9680 C.3   201  HEM201      0.0000
     10  CAA       22.6360   33.2170    9.5380 C.3   201  HEM201      0.0000
     11  CBA       21.7940   31.9530    9.6850 C.3   201  HEM201      0.0000
     12  CGA       21.7470   31.5500   11.1250 C.2   201  HEM201      0.0000
     13  O1A       22.0290   30.3510   11.3950 O.co2 201  HEM201      0.0000
     14  O2A       21.4480   32.4220   11.9920 O.co2 201  HEM201      0.0000
     15  C1B       28.1600   33.4140   12.3680 C.ar  201  HEM201      0.0000
     16  C2B       29.1150   33.9780   13.3080 C.ar  201  HEM201      0.0000
     17  C3B       30.2880   33.3400   13.1280 C.ar  201  HEM201      0.0000
     18  C4B       30.1320   32.3740   12.0470 C.ar  201  HEM201      0.0000
     19  CMB       28.7580   35.0840   14.3350 C.3   201  HEM201      0.0000
     20  CAB       31.6450   33.5610   13.8390 C.2   201  HEM201      0.0000
     21  CBB       32.0560   34.7670   14.2370 C.2   201  HEM201      0.0000
     22  C1C       31.0170   30.6360   10.5280 C.2   201  HEM201      0.0000
     23  C2C       32.0650   29.7990    9.9650 C.2   201  HEM201      0.0000
     24  C3C       31.5470   29.0850    8.9630 C.2   201  HEM201      0.0000
     25  C4C       30.1330   29.4200    8.8650 C.2   201  HEM201      0.0000
     26  CMC       33.5520   29.7520   10.4030 C.3   201  HEM201      0.0000
     27  CAC       32.3680   28.0690    8.1220 C.2   201  HEM201      0.0000
     28  CBC       31.9760   27.6580    6.9120 C.2   201  HEM201      0.0000
     29  C1D       27.8970   29.3290    7.8120 C.ar  201  HEM201      0.0000
     30  C2D       27.0140   28.7900    6.8030 C.ar  201  HEM201      0.0000
     31  C3D       25.6900   29.5260    6.9600 C.ar  201  HEM201      0.0000
     32  C4D       25.9010   30.4570    8.0470 C.ar  201  HEM201      0.0000
     33  CMD       27.3310   27.6720    5.7950 C.3   201  HEM201      0.0000
     34  CAD       24.4080   29.3220    6.1350 C.3   201  HEM201      0.0000
     35  CBD       24.5860   29.9770    4.7660 C.3   201  HEM201      0.0000
     36  CGD       23.3420   29.7650    3.9390 C.2   201  HEM201      0.0000
     37  O1D       23.3870   30.0090    2.7070 O.co2 201  HEM201      0.0000
     38  O2D       22.3000   29.3440    4.5070 O.co2 201  HEM201      0.0000
     39  NA        26.2440   32.3650   10.3430 N.2   201  HEM201      0.0000
     40  NB        28.8100   32.4440   11.6060 N.ar  201  HEM201      0.0000
     41  NC        29.8490   30.3740    9.8340 N.2   201  HEM201      0.0000
     42  ND        27.2040   30.3150    8.5270 N.ar  201  HEM201      0.0000
     43 FE         27.9860   31.3140   10.0940 Fe    201  HEM201      0.0000
@<TRIPOS>BOND
     1    37    36   ar
     2    36    38   ar
     3    36    35    1
     4    35    34    1
     5    33    30    1
     6    34    31    1
     7    30    31   ar
     8    30    29   ar
     9    28    27    2
    10    31    32   ar
    11    29     4    2
    12    29    42   ar
    13     4    25    1
    14    32     1    2
    15    32    42   ar
    16    27    24    1
    17     1     5    1
    18    42    43    1
    19    25    24    1
    20    25    41    2
    21    24    23    2
    22    10    11    1
    23    10     6    1
    24     5     6    1
    25     5    39    2
    26    11    12    1
    27    41    43    1
    28    41    22    1
    29    23    26    1
    30    23    22    1
    31     6     7    2
    32    43    39    1
    33    43    40    1
    34    39     8    1
    35    22     3    2
    36     7     8    1
    37     7     9    1
    38    12    13   ar
    39    12    14   ar
    40     8     2    2
    41     3    18    1
    42    40    18   ar
    43    40    15   ar
    44    18    17   ar
    45     2    15    1
    46    15    16   ar
    47    17    16   ar
    48    17    20    1
    49    16    19    1
    50    20    21    2
