@<TRIPOS>MOLECULE
4f69_HEM_A_1.pdb
 43 50 0 0 0
SMALL
GASTEIGER

@<TRIPOS>ATOM
      1  CHA       24.9920   31.1330    8.5290 C.2   203  HEM203      0.0000
      2  CHB       26.8920   33.6210   12.3010 C.2   203  HEM203      0.0000
      3  CHC       31.2760   31.3890   11.6520 C.2   203  HEM203      0.0000
      4  CHD       29.2880   28.6850    8.0850 C.2   203  HEM203      0.0000
      5  C1A       25.1530   32.0190    9.5750 C.2   203  HEM203      0.0000
      6  C2A       24.1440   32.9260   10.0720 C.2   203  HEM203      0.0000
      7  C3A       24.6640   33.6120   11.0990 C.2   203  HEM203      0.0000
      8  C4A       26.0280   33.1610   11.3140 C.2   203  HEM203      0.0000
      9  CMA       23.9620   34.7020   11.9450 C.3   203  HEM203      0.0000
     10  CAA       22.7260   33.0920    9.4770 C.3   203  HEM203      0.0000
     11  CBA       21.8620   31.8540    9.6570 C.3   203  HEM203      0.0000
     12  CGA       21.8340   31.5030   11.1070 C.2   203  HEM203      0.0000
     13  O1A       22.1250   30.3180   11.4290 O.co2 203  HEM203      0.0000
     14  O2A       21.5240   32.4100   11.9320 O.co2 203  HEM203      0.0000
     15  C1B       28.2400   33.2680   12.3930 C.ar  203  HEM203      0.0000
     16  C2B       29.2170   33.8630   13.2810 C.ar  203  HEM203      0.0000
     17  C3B       30.3950   33.2300   13.1100 C.ar  203  HEM203      0.0000
     18  C4B       30.2450   32.2310   12.0900 C.ar  203  HEM203      0.0000
     19  CMB       28.8850   34.9920   14.2790 C.3   203  HEM203      0.0000
     20  CAB       31.7610   33.4780   13.7930 C.2   203  HEM203      0.0000
     21  CBB       32.2020   34.7020   14.0820 C.2   203  HEM203      0.0000
     22  C1C       31.1330   30.4820   10.6080 C.2   203  HEM203      0.0000
     23  C2C       32.1730   29.6520   10.0300 C.2   203  HEM203      0.0000
     24  C3C       31.6420   28.9250    9.0320 C.2   203  HEM203      0.0000
     25  C4C       30.2210   29.2450    8.9410 C.2   203  HEM203      0.0000
     26  CMC       33.6590   29.6410   10.4660 C.3   203  HEM203      0.0000
     27  CAC       32.4400   27.9040    8.1830 C.2   203  HEM203      0.0000
     28  CBC       32.0480   27.4910    6.9660 C.2   203  HEM203      0.0000
     29  C1D       27.9790   29.1130    7.9000 C.ar  203  HEM203      0.0000
     30  C2D       27.1090   28.6030    6.8710 C.ar  203  HEM203      0.0000
     31  C3D       25.7910   29.3550    7.0130 C.ar  203  HEM203      0.0000
     32  C4D       25.9830   30.2690    8.1050 C.ar  203  HEM203      0.0000
     33  CMD       27.4540   27.5010    5.8550 C.3   203  HEM203      0.0000
     34  CAD       24.5030   29.2130    6.1890 C.3   203  HEM203      0.0000
     35  CBD       24.7140   29.8880    4.8460 C.3   203  HEM203      0.0000
     36  CGD       23.4660   29.6840    4.0280 C.2   203  HEM203      0.0000
     37  O1D       23.5440   29.8030    2.7850 O.co2 203  HEM203      0.0000
     38  O2D       22.3860   29.4080    4.6120 O.co2 203  HEM203      0.0000
     39  NA        26.2900   32.1760   10.3560 N.2   203  HEM203      0.0000
     40  NB        28.9080   32.2610   11.6760 N.ar  203  HEM203      0.0000
     41  NC        29.9530   30.2040    9.9210 N.2   203  HEM203      0.0000
     42  ND        27.2830   30.1050    8.6040 N.ar  203  HEM203      0.0000
     43 FE         28.1200   31.2340   10.0930 Fe    203  HEM203      0.0000
@<TRIPOS>BOND
     1    37    36   ar
     2    36    38   ar
     3    36    35    1
     4    35    34    1
     5    33    30    1
     6    34    31    1
     7    30    31   ar
     8    30    29   ar
     9    28    27    2
    10    31    32   ar
    11    29     4    2
    12    29    42   ar
    13     4    25    1
    14    32     1    2
    15    32    42   ar
    16    27    24    1
    17     1     5    1
    18    42    43    1
    19    25    24    1
    20    25    41    2
    21    24    23    2
    22    10    11    1
    23    10     6    1
    24     5     6    1
    25     5    39    2
    26    11    12    1
    27    41    43    1
    28    41    22    1
    29    23    26    1
    30    23    22    1
    31     6     7    2
    32    43    39    1
    33    43    40    1
    34    39     8    1
    35    22     3    2
    36     7     8    1
    37     7     9    1
    38    12    13   ar
    39    12    14   ar
    40     8     2    2
    41     3    18    1
    42    40    18   ar
    43    40    15   ar
    44    18    17   ar
    45     2    15    1
    46    15    16   ar
    47    17    16   ar
    48    17    20    1
    49    16    19    1
    50    20    21    2
