@<TRIPOS>MOLECULE
4f6b_HEM_A_1.pdb
 43 50 0 0 0
SMALL
GASTEIGER

@<TRIPOS>ATOM
      1  CHA       24.9110   31.3970    8.6940 C.2   201  HEM201      0.0000
      2  CHB       26.8860   34.4770   11.8640 C.2   201  HEM201      0.0000
      3  CHC       31.1590   32.2170   11.4520 C.2   201  HEM201      0.0000
      4  CHD       29.3030   29.2850    8.0980 C.2   201  HEM201      0.0000
      5  C1A       25.0830   32.4070    9.6040 C.2   201  HEM201      0.0000
      6  C2A       24.0350   33.2880   10.0750 C.2   201  HEM201      0.0000
      7  C3A       24.5830   34.1380   10.9490 C.2   201  HEM201      0.0000
      8  C4A       25.9850   33.8240   11.0570 C.2   201  HEM201      0.0000
      9  CMA       23.8740   35.2710   11.7210 C.3   201  HEM201      0.0000
     10  CAA       22.5650   33.2100    9.6260 C.3   201  HEM201      0.0000
     11  CBA       21.8600   32.2780   10.6140 C.3   201  HEM201      0.0000
     12  CGA       20.3800   32.1840   10.3460 C.2   201  HEM201      0.0000
     13  O1A       19.9220   32.5480    9.2280 O.co2 201  HEM201      0.0000
     14  O2A       19.6550   31.7230   11.2670 O.co2 201  HEM201      0.0000
     15  C1B       28.2030   34.1270   12.0440 C.ar  201  HEM201      0.0000
     16  C2B       29.1340   34.7730   12.9350 C.ar  201  HEM201      0.0000
     17  C3B       30.3120   34.1360   12.8310 C.ar  201  HEM201      0.0000
     18  C4B       30.1640   33.0870   11.8500 C.ar  201  HEM201      0.0000
     19  CMB       28.7720   35.9670   13.8400 C.3   201  HEM201      0.0000
     20  CAB       31.6540   34.4290   13.5360 C.2   201  HEM201      0.0000
     21  CBB       32.1030   35.6710   13.7310 C.2   201  HEM201      0.0000
     22  C1C       31.0430   31.2380   10.4880 C.2   201  HEM201      0.0000
     23  C2C       32.1080   30.3960    9.9880 C.2   201  HEM201      0.0000
     24  C3C       31.6130   29.5920    9.0510 C.2   201  HEM201      0.0000
     25  C4C       30.1980   29.8910    8.9330 C.2   201  HEM201      0.0000
     26  CMC       33.5830   30.4200   10.4410 C.3   201  HEM201      0.0000
     27  CAC       32.4420   28.5410    8.2870 C.2   201  HEM201      0.0000
     28  CBC       32.0140   27.9220    7.1860 C.2   201  HEM201      0.0000
     29  C1D       27.9760   29.6000    7.9450 C.ar  201  HEM201      0.0000
     30  C2D       27.1100   28.9950    6.9660 C.ar  201  HEM201      0.0000
     31  C3D       25.7500   29.6410    7.1450 C.ar  201  HEM201      0.0000
     32  C4D       25.9140   30.5850    8.2140 C.ar  201  HEM201      0.0000
     33  CMD       27.4990   27.9210    5.9480 C.3   201  HEM201      0.0000
     34  CAD       24.4680   29.3630    6.3470 C.3   201  HEM201      0.0000
     35  CBD       24.5330   30.1460    5.0460 C.3   201  HEM201      0.0000
     36  CGD       23.2950   29.8990    4.2170 C.2   201  HEM201      0.0000
     37  O1D       23.4180   29.9300    2.9660 O.co2 201  HEM201      0.0000
     38  O2D       22.1870   29.6700    4.7840 O.co2 201  HEM201      0.0000
     39  NA        26.2600   32.7560   10.2180 N.2   201  HEM201      0.0000
     40  NB        28.8640   33.1060   11.3920 N.ar  201  HEM201      0.0000
     41  NC        29.8830   30.9170    9.8150 N.2   201  HEM201      0.0000
     42  ND        27.2350   30.5440    8.6550 N.ar  201  HEM201      0.0000
     43 FE         28.0290   31.7840   10.0580 Fe    201  HEM201      0.0000
@<TRIPOS>BOND
     1    37    36   ar
     2    36    38   ar
     3    36    35    1
     4    35    34    1
     5    33    30    1
     6    34    31    1
     7    30    31   ar
     8    30    29   ar
     9    31    32   ar
    10    28    27    2
    11    29     4    2
    12    29    42   ar
    13     4    25    1
    14    32    42   ar
    15    32     1    2
    16    27    24    1
    17    42    43    1
    18     1     5    1
    19    25    24    1
    20    25    41    2
    21    24    23    2
    22    13    12   ar
    23     5     6    1
    24     5    39    2
    25    10     6    1
    26    10    11    1
    27    41    43    1
    28    41    22    1
    29    23    26    1
    30    23    22    1
    31    43    39    1
    32    43    40    1
    33     6     7    2
    34    39     8    1
    35    12    11    1
    36    12    14   ar
    37    22     3    2
    38     7     8    1
    39     7     9    1
    40     8     2    2
    41    40    18   ar
    42    40    15   ar
    43     3    18    1
    44    18    17   ar
    45     2    15    1
    46    15    16   ar
    47    17    16   ar
    48    17    20    1
    49    16    19    1
    50    20    21    2
