@<TRIPOS>MOLECULE
4f6d_HEM_A_1.pdb
 43 50 0 0 0
SMALL
GASTEIGER

@<TRIPOS>ATOM
      1  CHA       24.7980   31.4600    8.7740 C.2   201  HEM201      0.0000
      2  CHB       26.7640   34.4990   12.0090 C.2   201  HEM201      0.0000
      3  CHC       31.0520   32.2110   11.5610 C.2   201  HEM201      0.0000
      4  CHD       29.2010   29.3470    8.1380 C.2   201  HEM201      0.0000
      5  C1A       24.9470   32.4670    9.7050 C.2   201  HEM201      0.0000
      6  C2A       23.9020   33.3630   10.1670 C.2   201  HEM201      0.0000
      7  C3A       24.4430   34.2010   11.0550 C.2   201  HEM201      0.0000
      8  C4A       25.8480   33.8660   11.1920 C.2   201  HEM201      0.0000
      9  CMA       23.7240   35.3340   11.8240 C.3   201  HEM201      0.0000
     10  CAA       22.4280   33.3180    9.7120 C.3   201  HEM201      0.0000
     11  CBA       21.7220   32.3050   10.6130 C.3   201  HEM201      0.0000
     12  CGA       20.2300   32.2350   10.3700 C.2   201  HEM201      0.0000
     13  O1A       19.7560   32.6610    9.2870 O.co2 201  HEM201      0.0000
     14  O2A       19.5010   31.7370   11.2670 O.co2 201  HEM201      0.0000
     15  C1B       28.0910   34.1380   12.1600 C.ar  201  HEM201      0.0000
     16  C2B       29.0340   34.7930   13.0380 C.ar  201  HEM201      0.0000
     17  C3B       30.2130   34.1480   12.9250 C.ar  201  HEM201      0.0000
     18  C4B       30.0600   33.0910   11.9490 C.ar  201  HEM201      0.0000
     19  CMB       28.6500   36.0030   13.9340 C.3   201  HEM201      0.0000
     20  CAB       31.5760   34.4270   13.6060 C.2   201  HEM201      0.0000
     21  CBB       31.9390   35.6520   13.9880 C.2   201  HEM201      0.0000
     22  C1C       30.9480   31.2590   10.5740 C.2   201  HEM201      0.0000
     23  C2C       32.0310   30.4430   10.0540 C.2   201  HEM201      0.0000
     24  C3C       31.5300   29.6520    9.1060 C.2   201  HEM201      0.0000
     25  C4C       30.1060   29.9370    8.9890 C.2   201  HEM201      0.0000
     26  CMC       33.5110   30.4910   10.5120 C.3   201  HEM201      0.0000
     27  CAC       32.3690   28.6320    8.2940 C.2   201  HEM201      0.0000
     28  CBC       31.8800   27.9540    7.2470 C.2   201  HEM201      0.0000
     29  C1D       27.8700   29.6720    7.9870 C.ar  201  HEM201      0.0000
     30  C2D       27.0080   29.0640    7.0090 C.ar  201  HEM201      0.0000
     31  C3D       25.6430   29.7060    7.1990 C.ar  201  HEM201      0.0000
     32  C4D       25.8050   30.6600    8.2760 C.ar  201  HEM201      0.0000
     33  CMD       27.3790   27.9790    5.9810 C.3   201  HEM201      0.0000
     34  CAD       24.3710   29.4090    6.3840 C.3   201  HEM201      0.0000
     35  CBD       24.4090   30.2920    5.1480 C.3   201  HEM201      0.0000
     36  CGD       23.2180   30.0550    4.2610 C.2   201  HEM201      0.0000
     37  O1D       23.3860   30.0600    3.0130 O.co2 201  HEM201      0.0000
     38  O2D       22.0950   29.8590    4.7890 O.co2 201  HEM201      0.0000
     39  NA        26.1190   32.8030   10.3500 N.2   201  HEM201      0.0000
     40  NB        28.7510   33.1100   11.5030 N.ar  201  HEM201      0.0000
     41  NC        29.7900   30.9180    9.9070 N.2   201  HEM201      0.0000
     42  ND        27.1310   30.6090    8.7150 N.ar  201  HEM201      0.0000
     43 FE         27.9530   31.8770   10.0650 Fe    201  HEM201      0.0000
@<TRIPOS>BOND
     1    37    36   ar
     2    36    38   ar
     3    36    35    1
     4    35    34    1
     5    33    30    1
     6    34    31    1
     7    30    31   ar
     8    30    29   ar
     9    31    32   ar
    10    28    27    2
    11    29     4    2
    12    29    42   ar
    13     4    25    1
    14    32    42   ar
    15    32     1    2
    16    27    24    1
    17    42    43    1
    18     1     5    1
    19    25    24    1
    20    25    41    2
    21    24    23    2
    22    13    12   ar
    23     5     6    1
    24     5    39    2
    25    10     6    1
    26    10    11    1
    27    41    43    1
    28    41    22    1
    29    23    26    1
    30    23    22    1
    31    43    39    1
    32    43    40    1
    33     6     7    2
    34    39     8    1
    35    12    11    1
    36    12    14   ar
    37    22     3    2
    38     7     8    1
    39     7     9    1
    40     8     2    2
    41    40    18   ar
    42    40    15   ar
    43     3    18    1
    44    18    17   ar
    45     2    15    1
    46    15    16   ar
    47    17    16   ar
    48    17    20    1
    49    16    19    1
    50    20    21    2
