@<TRIPOS>MOLECULE
4f6f_HEM_A_1.pdb
 43 50 0 0 0
SMALL
GASTEIGER

@<TRIPOS>ATOM
      1  CHA       24.9480   31.4630    8.7860 C.2   201  HEM201      0.0000
      2  CHB       26.9090   34.4880   12.0000 C.2   201  HEM201      0.0000
      3  CHC       31.0610   31.9900   11.7150 C.2   201  HEM201      0.0000
      4  CHD       29.2990   29.2450    8.1720 C.2   201  HEM201      0.0000
      5  C1A       25.0830   32.4810    9.6880 C.2   201  HEM201      0.0000
      6  C2A       24.0330   33.3670   10.1650 C.2   201  HEM201      0.0000
      7  C3A       24.5890   34.2040   11.0500 C.2   201  HEM201      0.0000
      8  C4A       25.9900   33.8600   11.1780 C.2   201  HEM201      0.0000
      9  CMA       23.8980   35.3390   11.8300 C.3   201  HEM201      0.0000
     10  CAA       22.5540   33.3420    9.7170 C.3   201  HEM201      0.0000
     11  CBA       21.8590   32.2250   10.5090 C.3   201  HEM201      0.0000
     12  CGA       20.3570   32.2700   10.3210 C.2   201  HEM201      0.0000
     13  O1A       19.9120   32.7380    9.2450 O.co2 201  HEM201      0.0000
     14  O2A       19.5930   31.8260   11.2330 O.co2 201  HEM201      0.0000
     15  C1B       28.2040   34.0810   12.2030 C.ar  201  HEM201      0.0000
     16  C2B       29.1680   34.7200   13.0670 C.ar  201  HEM201      0.0000
     17  C3B       30.3120   34.0160   12.9930 C.ar  201  HEM201      0.0000
     18  C4B       30.1120   32.9320   12.0600 C.ar  201  HEM201      0.0000
     19  CMB       28.8550   35.9730   13.9150 C.3   201  HEM201      0.0000
     20  CAB       31.6740   34.2610   13.6860 C.2   201  HEM201      0.0000
     21  CBB       32.1230   35.4630   14.0500 C.2   201  HEM201      0.0000
     22  C1C       30.9860   31.0630   10.7080 C.2   201  HEM201      0.0000
     23  C2C       32.0700   30.2330   10.2190 C.2   201  HEM201      0.0000
     24  C3C       31.5930   29.4730    9.2290 C.2   201  HEM201      0.0000
     25  C4C       30.1850   29.7960    9.0680 C.2   201  HEM201      0.0000
     26  CMC       33.5260   30.2500   10.7460 C.3   201  HEM201      0.0000
     27  CAC       32.4280   28.4440    8.4330 C.2   201  HEM201      0.0000
     28  CBC       32.0310   27.9320    7.2630 C.2   201  HEM201      0.0000
     29  C1D       27.9740   29.5870    8.0080 C.ar  201  HEM201      0.0000
     30  C2D       27.0860   29.0090    7.0280 C.ar  201  HEM201      0.0000
     31  C3D       25.7440   29.6980    7.2160 C.ar  201  HEM201      0.0000
     32  C4D       25.9370   30.6320    8.3020 C.ar  201  HEM201      0.0000
     33  CMD       27.4130   27.9280    5.9940 C.3   201  HEM201      0.0000
     34  CAD       24.4610   29.4280    6.4060 C.3   201  HEM201      0.0000
     35  CBD       24.5490   30.2410    5.1140 C.3   201  HEM201      0.0000
     36  CGD       23.2960   30.1010    4.2820 C.2   201  HEM201      0.0000
     37  O1D       23.4070   30.1790    3.0250 O.co2 201  HEM201      0.0000
     38  O2D       22.1740   29.9230    4.8410 O.co2 201  HEM201      0.0000
     39  NA        26.2600   32.7980   10.3330 N.2   201  HEM201      0.0000
     40  NB        28.8090   32.9970   11.6040 N.ar  201  HEM201      0.0000
     41  NC        29.8500   30.7660    9.9940 N.2   201  HEM201      0.0000
     42  ND        27.2640   30.5480    8.7340 N.ar  201  HEM201      0.0000
     43 FE         28.0440   31.7970   10.1810 Fe    201  HEM201      0.0000
@<TRIPOS>BOND
     1    37    36   ar
     2    36    38   ar
     3    36    35    1
     4    35    34    1
     5    33    30    1
     6    34    31    1
     7    30    31   ar
     8    30    29   ar
     9    31    32   ar
    10    28    27    2
    11    29     4    2
    12    29    42   ar
    13     4    25    1
    14    32    42   ar
    15    32     1    2
    16    27    24    1
    17    42    43    1
    18     1     5    1
    19    25    24    1
    20    25    41    2
    21    24    23    2
    22    13    12   ar
    23     5     6    1
    24     5    39    2
    25    10     6    1
    26    10    11    1
    27    41    43    1
    28    41    22    1
    29     6     7    2
    30    43    39    1
    31    43    40    1
    32    23    22    1
    33    23    26    1
    34    12    11    1
    35    12    14   ar
    36    39     8    1
    37    22     3    2
    38     7     8    1
    39     7     9    1
    40     8     2    2
    41    40    18   ar
    42    40    15   ar
    43     3    18    1
    44     2    15    1
    45    18    17   ar
    46    15    16   ar
    47    17    16   ar
    48    17    20    1
    49    16    19    1
    50    20    21    2
