@<TRIPOS>MOLECULE
4f6g_HEM_A_1.pdb
 43 50 0 0 0
SMALL
GASTEIGER

@<TRIPOS>ATOM
      1  CHA       24.9070   31.4010    8.6930 C.2   201  HEM201      0.0000
      2  CHB       26.8870   34.4670   11.8650 C.2   201  HEM201      0.0000
      3  CHC       31.1550   32.2170   11.4370 C.2   201  HEM201      0.0000
      4  CHD       29.2910   29.2750    8.0930 C.2   201  HEM201      0.0000
      5  C1A       25.0790   32.4110    9.6010 C.2   201  HEM201      0.0000
      6  C2A       24.0360   33.2970   10.0760 C.2   201  HEM201      0.0000
      7  C3A       24.5860   34.1420   10.9540 C.2   201  HEM201      0.0000
      8  C4A       25.9860   33.8180   11.0570 C.2   201  HEM201      0.0000
      9  CMA       23.8890   35.2780   11.7290 C.3   201  HEM201      0.0000
     10  CAA       22.5620   33.2350    9.6360 C.3   201  HEM201      0.0000
     11  CBA       21.8640   32.2920   10.6230 C.3   201  HEM201      0.0000
     12  CGA       20.3860   32.1850   10.3470 C.2   201  HEM201      0.0000
     13  O1A       19.9310   32.5540    9.2290 O.co2 201  HEM201      0.0000
     14  O2A       19.6580   31.7060   11.2570 O.co2 201  HEM201      0.0000
     15  C1B       28.2030   34.1250   12.0430 C.ar  201  HEM201      0.0000
     16  C2B       29.1290   34.7810   12.9280 C.ar  201  HEM201      0.0000
     17  C3B       30.3120   34.1500   12.8230 C.ar  201  HEM201      0.0000
     18  C4B       30.1680   33.0930   11.8440 C.ar  201  HEM201      0.0000
     19  CMB       28.7680   35.9780   13.8300 C.3   201  HEM201      0.0000
     20  CAB       31.6500   34.4670   13.5300 C.2   201  HEM201      0.0000
     21  CBB       32.0920   35.7130   13.7270 C.2   201  HEM201      0.0000
     22  C1C       31.0340   31.2350   10.4750 C.2   201  HEM201      0.0000
     23  C2C       32.1010   30.3960    9.9710 C.2   201  HEM201      0.0000
     24  C3C       31.6060   29.5860    9.0350 C.2   201  HEM201      0.0000
     25  C4C       30.1890   29.8830    8.9240 C.2   201  HEM201      0.0000
     26  CMC       33.5760   30.4290   10.4220 C.3   201  HEM201      0.0000
     27  CAC       32.4340   28.5340    8.2690 C.2   201  HEM201      0.0000
     28  CBC       31.9900   27.8770    7.1970 C.2   201  HEM201      0.0000
     29  C1D       27.9670   29.5960    7.9440 C.ar  201  HEM201      0.0000
     30  C2D       27.0950   28.9930    6.9670 C.ar  201  HEM201      0.0000
     31  C3D       25.7400   29.6430    7.1470 C.ar  201  HEM201      0.0000
     32  C4D       25.9090   30.5870    8.2170 C.ar  201  HEM201      0.0000
     33  CMD       27.4730   27.9200    5.9460 C.3   201  HEM201      0.0000
     34  CAD       24.4650   29.3590    6.3460 C.3   201  HEM201      0.0000
     35  CBD       24.5340   30.1350    5.0380 C.3   201  HEM201      0.0000
     36  CGD       23.2960   29.8960    4.2090 C.2   201  HEM201      0.0000
     37  O1D       23.4120   29.9390    2.9550 O.co2 201  HEM201      0.0000
     38  O2D       22.1930   29.6630    4.7800 O.co2 201  HEM201      0.0000
     39  NA        26.2580   32.7480   10.2150 N.2   201  HEM201      0.0000
     40  NB        28.8620   33.1020   11.3900 N.ar  201  HEM201      0.0000
     41  NC        29.8710   30.9120    9.8070 N.2   201  HEM201      0.0000
     42  ND        27.2320   30.5460    8.6560 N.ar  201  HEM201      0.0000
     43 FE         28.0330   31.7850   10.0650 Fe    201  HEM201      0.0000
@<TRIPOS>BOND
     1    37    36   ar
     2    36    38   ar
     3    36    35    1
     4    35    34    1
     5    33    30    1
     6    34    31    1
     7    30    31   ar
     8    30    29   ar
     9    31    32   ar
    10    28    27    2
    11    29     4    2
    12    29    42   ar
    13     4    25    1
    14    32    42   ar
    15    32     1    2
    16    27    24    1
    17    42    43    1
    18     1     5    1
    19    25    24    1
    20    25    41    2
    21    24    23    2
    22    13    12   ar
    23     5     6    1
    24     5    39    2
    25    10     6    1
    26    10    11    1
    27    41    43    1
    28    41    22    1
    29    23    26    1
    30    23    22    1
    31    43    39    1
    32    43    40    1
    33     6     7    2
    34    39     8    1
    35    12    11    1
    36    12    14   ar
    37    22     3    2
    38     7     8    1
    39     7     9    1
    40     8     2    2
    41    40    18   ar
    42    40    15   ar
    43     3    18    1
    44    18    17   ar
    45     2    15    1
    46    15    16   ar
    47    17    16   ar
    48    17    20    1
    49    16    19    1
    50    20    21    2
