@<TRIPOS>MOLECULE
4f6i_HEM_A_1.pdb
 43 50 0 0 0
SMALL
GASTEIGER

@<TRIPOS>ATOM
      1  CHA       24.7550   31.2600    8.7630 C.2   201  HEM201      0.0000
      2  CHB       26.6530   34.1440   12.1360 C.2   201  HEM201      0.0000
      3  CHC       30.9440   31.8880   11.6420 C.2   201  HEM201      0.0000
      4  CHD       29.1030   29.0650    8.1730 C.2   201  HEM201      0.0000
      5  C1A       24.8830   32.2200    9.7340 C.2   201  HEM201      0.0000
      6  C2A       23.8210   33.0880   10.2130 C.2   201  HEM201      0.0000
      7  C3A       24.3430   33.8830   11.1450 C.2   201  HEM201      0.0000
      8  C4A       25.7460   33.5540   11.2790 C.2   201  HEM201      0.0000
      9  CMA       23.5860   34.9780   11.9250 C.3   201  HEM201      0.0000
     10  CAA       22.3550   33.0670    9.7410 C.3   201  HEM201      0.0000
     11  CBA       21.6350   32.0460   10.6390 C.3   201  HEM201      0.0000
     12  CGA       20.1470   32.0090   10.3970 C.2   201  HEM201      0.0000
     13  O1A       19.6930   32.4220    9.2990 O.co2 201  HEM201      0.0000
     14  O2A       19.4060   31.5560   11.3180 O.co2 201  HEM201      0.0000
     15  C1B       27.9730   33.7770   12.2880 C.ar  201  HEM201      0.0000
     16  C2B       28.9240   34.4220   13.1700 C.ar  201  HEM201      0.0000
     17  C3B       30.0970   33.7870   13.0480 C.ar  201  HEM201      0.0000
     18  C4B       29.9450   32.7440   12.0620 C.ar  201  HEM201      0.0000
     19  CMB       28.5340   35.6030   14.0830 C.3   201  HEM201      0.0000
     20  CAB       31.4440   34.0760   13.7440 C.2   201  HEM201      0.0000
     21  CBB       31.8060   35.3310   14.0110 C.2   201  HEM201      0.0000
     22  C1C       30.8550   30.9420   10.6450 C.2   201  HEM201      0.0000
     23  C2C       31.9290   30.1030   10.1410 C.2   201  HEM201      0.0000
     24  C3C       31.4300   29.3300    9.1740 C.2   201  HEM201      0.0000
     25  C4C       30.0110   29.6380    9.0370 C.2   201  HEM201      0.0000
     26  CMC       33.3960   30.1090   10.6250 C.3   201  HEM201      0.0000
     27  CAC       32.2470   28.2880    8.3800 C.2   201  HEM201      0.0000
     28  CBC       31.8530   27.8460    7.1830 C.2   201  HEM201      0.0000
     29  C1D       27.7820   29.4060    8.0140 C.ar  201  HEM201      0.0000
     30  C2D       26.9000   28.8120    7.0390 C.ar  201  HEM201      0.0000
     31  C3D       25.5600   29.4910    7.2270 C.ar  201  HEM201      0.0000
     32  C4D       25.7540   30.4500    8.2860 C.ar  201  HEM201      0.0000
     33  CMD       27.2290   27.7080    6.0200 C.3   201  HEM201      0.0000
     34  CAD       24.2720   29.2280    6.4370 C.3   201  HEM201      0.0000
     35  CBD       24.3830   29.9740    5.1140 C.3   201  HEM201      0.0000
     36  CGD       23.1250   29.8260    4.2960 C.2   201  HEM201      0.0000
     37  O1D       23.2310   29.8540    3.0410 O.co2 201  HEM201      0.0000
     38  O2D       22.0200   29.6840    4.8820 O.co2 201  HEM201      0.0000
     39  NA        26.0490   32.5160   10.4030 N.2   201  HEM201      0.0000
     40  NB        28.6410   32.7660   11.6160 N.ar  201  HEM201      0.0000
     41  NC        29.7020   30.6350    9.9440 N.2   201  HEM201      0.0000
     42  ND        27.0720   30.3770    8.7340 N.ar  201  HEM201      0.0000
     43 FE         27.8530   31.5750   10.1500 Fe    201  HEM201      0.0000
@<TRIPOS>BOND
     1    37    36   ar
     2    36    38   ar
     3    36    35    1
     4    35    34    1
     5    33    30    1
     6    34    31    1
     7    30    31   ar
     8    30    29   ar
     9    28    27    2
    10    31    32   ar
    11    29     4    2
    12    29    42   ar
    13     4    25    1
    14    32    42   ar
    15    32     1    2
    16    27    24    1
    17    42    43    1
    18     1     5    1
    19    25    24    1
    20    25    41    2
    21    24    23    2
    22    13    12   ar
    23     5     6    1
    24     5    39    2
    25    10     6    1
    26    10    11    1
    27    41    43    1
    28    41    22    1
    29    23    26    1
    30    23    22    1
    31    43    39    1
    32    43    40    1
    33     6     7    2
    34    12    11    1
    35    12    14   ar
    36    39     8    1
    37    22     3    2
    38     7     8    1
    39     7     9    1
    40     8     2    2
    41    40    18   ar
    42    40    15   ar
    43     3    18    1
    44    18    17   ar
    45     2    15    1
    46    15    16   ar
    47    17    16   ar
    48    17    20    1
    49    16    19    1
    50    20    21    2
