@<TRIPOS>MOLECULE
4f6j_HEM_A_1.pdb
 43 50 0 0 0
SMALL
GASTEIGER

@<TRIPOS>ATOM
      1  CHA       24.8430   31.2970    8.7820 C.2   201  HEM201      0.0000
      2  CHB       26.8120   34.2390   12.0640 C.2   201  HEM201      0.0000
      3  CHC       30.9960   31.7890   11.7450 C.2   201  HEM201      0.0000
      4  CHD       29.1340   29.0030    8.2600 C.2   201  HEM201      0.0000
      5  C1A       24.9960   32.2780    9.7260 C.2   201  HEM201      0.0000
      6  C2A       23.9550   33.1800   10.1950 C.2   201  HEM201      0.0000
      7  C3A       24.5010   33.9880   11.1000 C.2   201  HEM201      0.0000
      8  C4A       25.9040   33.6330   11.2290 C.2   201  HEM201      0.0000
      9  CMA       23.7930   35.1160   11.8780 C.3   201  HEM201      0.0000
     10  CAA       22.4780   33.1590    9.7430 C.3   201  HEM201      0.0000
     11  CBA       21.7610   32.1450   10.6450 C.3   201  HEM201      0.0000
     12  CGA       20.2730   32.1120   10.4030 C.2   201  HEM201      0.0000
     13  O1A       19.8260   32.6410    9.3480 O.co2 201  HEM201      0.0000
     14  O2A       19.5370   31.5520   11.2720 O.co2 201  HEM201      0.0000
     15  C1B       28.1100   33.8220   12.2760 C.ar  201  HEM201      0.0000
     16  C2B       29.0570   34.4250   13.1960 C.ar  201  HEM201      0.0000
     17  C3B       30.2050   33.7290   13.1160 C.ar  201  HEM201      0.0000
     18  C4B       30.0250   32.6930   12.1230 C.ar  201  HEM201      0.0000
     19  CMB       28.7230   35.6230   14.1040 C.3   201  HEM201      0.0000
     20  CAB       31.5520   33.9390   13.8440 C.2   201  HEM201      0.0000
     21  CBB       31.9600   35.1340   14.2680 C.2   201  HEM201      0.0000
     22  C1C       30.8860   30.8630   10.7320 C.2   201  HEM201      0.0000
     23  C2C       31.9550   30.0430   10.1990 C.2   201  HEM201      0.0000
     24  C3C       31.4520   29.2720    9.2310 C.2   201  HEM201      0.0000
     25  C4C       30.0330   29.5770    9.1190 C.2   201  HEM201      0.0000
     26  CMC       33.4260   30.0680   10.6690 C.3   201  HEM201      0.0000
     27  CAC       32.2810   28.2510    8.4130 C.2   201  HEM201      0.0000
     28  CBC       31.8160   27.5830    7.3470 C.2   201  HEM201      0.0000
     29  C1D       27.8260   29.3700    8.0730 C.ar  201  HEM201      0.0000
     30  C2D       26.9580   28.8040    7.0580 C.ar  201  HEM201      0.0000
     31  C3D       25.6320   29.5250    7.2280 C.ar  201  HEM201      0.0000
     32  C4D       25.8210   30.4490    8.3190 C.ar  201  HEM201      0.0000
     33  CMD       27.2630   27.7180    6.0100 C.3   201  HEM201      0.0000
     34  CAD       24.3630   29.2950    6.3900 C.3   201  HEM201      0.0000
     35  CBD       24.5600   30.0470    5.0820 C.3   201  HEM201      0.0000
     36  CGD       23.3120   29.9020    4.2510 C.2   201  HEM201      0.0000
     37  O1D       23.4140   29.9850    3.0100 O.co2 201  HEM201      0.0000
     38  O2D       22.2160   29.6880    4.8300 O.co2 201  HEM201      0.0000
     39  NA        26.1800   32.5920   10.3630 N.2   201  HEM201      0.0000
     40  NB        28.7350   32.7720   11.6330 N.ar  201  HEM201      0.0000
     41  NC        29.7210   30.5450   10.0550 N.2   201  HEM201      0.0000
     42  ND        27.1290   30.3420    8.7850 N.ar  201  HEM201      0.0000
     43 FE         27.9500   31.5950   10.1870 Fe    201  HEM201      0.0000
@<TRIPOS>BOND
     1    37    36   ar
     2    36    38   ar
     3    36    35    1
     4    35    34    1
     5    33    30    1
     6    34    31    1
     7    30    31   ar
     8    30    29   ar
     9    31    32   ar
    10    28    27    2
    11    29     4    2
    12    29    42   ar
    13     4    25    1
    14    32     1    2
    15    32    42   ar
    16    27    24    1
    17     1     5    1
    18    42    43    1
    19    25    24    1
    20    25    41    2
    21    24    23    2
    22    13    12   ar
    23     5     6    1
    24     5    39    2
    25    10     6    1
    26    10    11    1
    27    41    43    1
    28    41    22    1
    29    43    39    1
    30    43    40    1
    31     6     7    2
    32    23    26    1
    33    23    22    1
    34    39     8    1
    35    12    11    1
    36    12    14   ar
    37    22     3    2
    38     7     8    1
    39     7     9    1
    40     8     2    2
    41    40    18   ar
    42    40    15   ar
    43     3    18    1
    44     2    15    1
    45    18    17   ar
    46    15    16   ar
    47    17    16   ar
    48    17    20    1
    49    16    19    1
    50    20    21    2
