@<TRIPOS>MOLECULE
4f6o_DFH_A_1.pdb
 15 16 0 0 0
SMALL
GASTEIGER

@<TRIPOS>ATOM
      1  C1        31.9820   32.4330   30.8530 C.ar  501  DFH501     -0.0016
      2  C2        33.1310   31.6340   30.9250 C.ar  501  DFH501     -0.0002
      3  C3        33.7710   31.3970   32.1420 C.ar  501  DFH501     -0.0000
      4  C4        33.2440   32.0020   33.2890 C.ar  501  DFH501     -0.0002
      5  C5        32.1000   32.7980   33.1880 C.ar  501  DFH501     -0.0016
      6  C6        31.4240   33.0630   31.9790 C.ar  501  DFH501      0.0089
      7  C7        30.1520   33.9500   31.8950 C.3   501  DFH501      0.1641
      8  C8        29.8630   34.6190   33.2650 C.ar  501  DFH501      0.0089
      9  C9        30.7220   35.5940   33.7940 C.ar  501  DFH501     -0.0016
     10  C10       30.5070   36.1840   35.0470 C.ar  501  DFH501     -0.0002
     11  C11       29.4030   35.8220   35.8270 C.ar  501  DFH501     -0.0000
     12  O15       30.3690   34.9700   30.8990 O.3   501  DFH501     -0.2167
     13  C14       28.9630   33.1410   31.3980 C.3   501  DFH501      0.0422
     14  C13       28.7660   34.2720   34.0720 C.ar  501  DFH501     -0.0016
     15  C12       28.5250   34.8560   35.3300 C.ar  501  DFH501     -0.0002
@<TRIPOS>BOND
     1     1     2   ar
     2     1     6   ar
     3    12     7    1
     4     2     3   ar
     5    13     7    1
     6     7     6    1
     7     7     8    1
     8     6     5   ar
     9     3     4   ar
    10     5     4   ar
    11     8     9   ar
    12     8    14   ar
    13     9    10   ar
    14    14    15   ar
    15    10    11   ar
    16    15    11   ar
