@<TRIPOS>MOLECULE
4f6r_GTP_A_1.pdb
 32 34 0 0 0
SMALL
GASTEIGER

@<TRIPOS>ATOM
      1  PG        31.6060   -5.8520   48.4200 P.3   501  GTP501      0.5373
      2  O1G       31.2550   -6.6840   47.2280 O.2   501  GTP501     -0.2221
      3  O2G       30.3590   -5.3380   49.0770 O.3   501  GTP501     -0.1143
      4  O3G       32.5230   -4.7290   48.0320 O.3   501  GTP501     -0.1143
      5  O3B       32.3540   -6.8020   49.4800 O.3   501  GTP501     -0.2258
      6  PB        32.5880   -8.2910   49.5370 P.3   501  GTP501      0.2277
      7  O1B       31.3620   -9.0440   49.1180 O.2   501  GTP501     -0.5168
      8  O2B       32.9570   -8.7060   50.9310 O.3   501  GTP501     -0.4368
      9  O3A       33.7860   -8.6030   48.5200 O.3   501  GTP501     -0.2700
     10  PA        34.6810   -9.7830   48.2920 P.3   501  GTP501      0.2189
     11  O1A       34.3550  -10.4200   46.9710 O.2   501  GTP501     -0.5170
     12  O2A       34.4840  -10.7900   49.3940 O.3   501  GTP501     -0.4371
     13  O5'       36.1710   -9.1930   48.2980 O.3   501  GTP501     -0.3112
     14  C5'       37.0230   -9.2970   47.1630 C.3   501  GTP501      0.1813
     15  C4'       38.2700   -9.9790   47.6490 C.3   501  GTP501      0.1799
     16  O4'       37.9440  -11.2950   48.1580 O.3   501  GTP501     -0.3326
     17  C3'       39.2760  -10.2240   46.5350 C.3   501  GTP501      0.2158
     18  O3'       40.5670  -10.3470   47.1200 O.3   501  GTP501     -0.2175
     19  C2'       38.7910  -11.5530   45.9710 C.3   501  GTP501      0.2310
     20  O2'       39.8250  -12.2610   45.3100 O.3   501  GTP501     -0.2158
     21  C1'       38.4210  -12.2810   47.2540 C.3   501  GTP501      0.2293
     22  N9        37.3910  -13.3000   47.0610 N.pl3 501  GTP501     -0.2354
     23  C8        36.1010  -13.1310   46.6300 C.3   501  GTP501      0.2246
     24  N7        35.4220  -14.2490   46.5770 N.2   501  GTP501     -0.2322
     25  C5        36.3190  -15.2180   47.0000 C.2   501  GTP501      0.2182
     26  C6        36.1800  -16.6610   47.1910 C.1   501  GTP501      0.2372
     27  O6        35.1800  -17.3410   46.9860 O.2   501  GTP501     -0.2069
     28  N1        37.3470  -17.2580   47.6370 N.2   501  GTP501     -0.2485
     29  C2        38.5270  -16.5990   47.8680 C.1   501  GTP501      0.2531
     30  N2        39.5700  -17.3410   48.2470 N.pl3 501  GTP501     -0.0226
     31  N3        38.6760  -15.2790   47.7090 N.2   501  GTP501     -0.3074
     32  C4        37.5390  -14.6520   47.2880 C.2   501  GTP501      0.2300
@<TRIPOS>BOND
     1    20    19    1
     2    19    17    1
     3    19    21    1
     4    17    18    1
     5    17    15    1
     6    24    23    1
     7    24    25    2
     8    23    22    1
     9    11    10    2
    10    27    26    2
    11    25    26    1
    12    25    32    1
    13    22    21    1
    14    22    32    1
    15    14    15    1
    16    14    13    1
    17    26    28    2
    18     2     1    2
    19    21    16    1
    20    32    31    2
    21    28    29    2
    22    15    16    1
    23    31    29    2
    24    29    30    1
    25     4     1    1
    26    10    13    1
    27    10     9    1
    28    10    12    1
    29     1     3    1
    30     1     5    1
    31     9     6    1
    32     7     6    2
    33     5     6    1
    34     6     8    1
