@<TRIPOS>MOLECULE
4f6r_GDP_B_1.pdb
 28 30 0 0 0
SMALL
GASTEIGER

@<TRIPOS>ATOM
      1  PB        22.0240   18.2400   18.6980 P.3   501  GDP501      0.5373
      2  O1B       22.4130   17.5590   19.9830 O.3   501  GDP501     -0.1143
      3  O2B       20.7960   17.5110   18.0420 O.2   501  GDP501     -0.2221
      4  O3B       21.7540   19.7110   18.9370 O.3   501  GDP501     -0.1143
      5  O3A       23.2140   18.1820   17.6560 O.3   501  GDP501     -0.2261
      6  PA        24.1080   16.9460   17.2390 P.3   501  GDP501      0.2231
      7  O1A       23.7550   16.5870   15.8470 O.2   501  GDP501     -0.5169
      8  O2A       23.8800   15.8320   18.2870 O.3   501  GDP501     -0.4370
      9  O5'       25.5700   17.5770   17.3710 O.3   501  GDP501     -0.3111
     10  C5'       26.5150   17.7280   16.3110 C.3   501  GDP501      0.1813
     11  C4'       27.7250   16.9240   16.7100 C.3   501  GDP501      0.1799
     12  O4'       27.3720   15.5170   16.7960 O.3   501  GDP501     -0.3326
     13  C3'       28.8560   16.9880   15.6880 C.3   501  GDP501      0.2158
     14  O3'       30.1330   16.7820   16.2900 O.3   501  GDP501     -0.2175
     15  C2'       28.4750   15.8540   14.7450 C.3   501  GDP501      0.2310
     16  O2'       29.6020   15.4220   14.0030 O.3   501  GDP501     -0.2158
     17  C1'       28.0250   14.8030   15.7620 C.3   501  GDP501      0.2293
     18  N9        27.1050   13.7720   15.2480 N.pl3 501  GDP501     -0.2354
     19  C8        25.8200   13.9390   14.7990 C.3   501  GDP501      0.2246
     20  N7        25.2210   12.8090   14.5200 N.2   501  GDP501     -0.2322
     21  C5        26.1660   11.8350   14.7960 C.2   501  GDP501      0.2182
     22  C6        26.1150   10.3770   14.6970 C.1   501  GDP501      0.2372
     23  O6        25.1710    9.6800   14.3280 O.2   501  GDP501     -0.2069
     24  N1        27.3040    9.7840   15.0720 N.2   501  GDP501     -0.2485
     25  C2        28.4210   10.4550   15.4960 C.1   501  GDP501      0.2531
     26  N2        29.4730    9.7160   15.8490 N.pl3 501  GDP501     -0.0226
     27  N3        28.4920   11.7840   15.5880 N.2   501  GDP501     -0.3074
     28  C4        27.3350   12.4090   15.2330 C.2   501  GDP501      0.2300
@<TRIPOS>BOND
     1    16    15    1
     2    23    22    2
     3    20    21    2
     4    20    19    1
     5    22    21    1
     6    22    24    2
     7    15    13    1
     8    15    17    1
     9    21    28    1
    10    19    18    1
    11    24    25    2
    12    28    18    1
    13    28    27    2
    14    18    17    1
    15    25    27    2
    16    25    26    1
    17    13    14    1
    18    13    11    1
    19    17    12    1
    20     7     6    2
    21    10    11    1
    22    10     9    1
    23    11    12    1
    24     6     9    1
    25     6     5    1
    26     6     8    1
    27     5     1    1
    28     3     1    2
    29     1     4    1
    30     1     2    1
