@<TRIPOS>MOLECULE
4f6t_ATP_A_1.pdb
 31 33 0 0 0
SMALL
GASTEIGER

@<TRIPOS>ATOM
      1  PG        31.3640   29.5770   35.8710 P.3   301  ATP301      0.5373
      2  O1G       32.1880   29.7880   37.1400 O.3   301  ATP301     -0.1143
      3  O2G       31.7450   30.4010   34.6900 O.2   301  ATP301     -0.2221
      4  O3G       31.0610   28.1910   35.5150 O.3   301  ATP301     -0.1143
      5  PB        29.0500   30.0140   37.5700 P.3   301  ATP301      0.2277
      6  O1B       29.1100   31.2060   38.4570 O.3   301  ATP301     -0.4368
      7  O2B       29.3270   28.6830   38.1780 O.2   301  ATP301     -0.5168
      8  O3B       29.9320   30.2530   36.2690 O.3   301  ATP301     -0.2258
      9  PA        26.6650   28.9310   36.3530 P.3   301  ATP301      0.2189
     10  O1A       26.8370   29.0420   34.8860 O.2   301  ATP301     -0.5170
     11  O2A       26.9000   27.5840   37.0420 O.3   301  ATP301     -0.4371
     12  O3A       27.5580   30.0750   37.0330 O.3   301  ATP301     -0.2700
     13  O5'       25.2570   29.4710   36.7410 O.3   301  ATP301     -0.3112
     14  C5'       24.6320   29.2430   38.0560 C.3   301  ATP301      0.1813
     15  C4'       23.1700   29.1410   37.6720 C.3   301  ATP301      0.1821
     16  O4'       22.9380   27.8030   37.2190 O.3   301  ATP301     -0.3135
     17  C3'       22.1630   29.2660   38.8310 C.3   301  ATP301      0.2184
     18  O3'       22.0220   30.6400   39.1880 O.3   301  ATP301     -0.2174
     19  C2'       20.9070   28.6000   38.2560 C.3   301  ATP301      0.2570
     20  O2'       20.1340   29.6440   37.6330 O.3   301  ATP301     -0.2130
     21  C1'       21.5170   27.6730   37.1860 C.3   301  ATP301      0.3186
     22  N9        21.0250   26.3090   37.3180 N.pl3 301  ATP301     -0.1439
     23  C8        20.7080   25.5270   36.2380 C.3   301  ATP301      0.3377
     24  N7        20.2450   24.3270   36.6410 N.2   301  ATP301     -0.2095
     25  C5        20.3970   24.3100   38.0160 C.2   301  ATP301      0.2526
     26  C6        20.0670   23.3540   39.0820 C.2   301  ATP301      0.4393
     27  N6        19.5650   22.1130   38.7640 N.pl3 301  ATP301      0.2180
     28  N1        20.3170   23.7350   40.3750 N.2   301  ATP301      0.0021
     29  C2        20.8530   24.9420   40.7270 C.3   301  ATP301      0.5254
     30  N3        21.1380   25.8920   39.7770 N.2   301  ATP301     -0.0055
     31  C4        20.9070   25.6100   38.4520 C.2   301  ATP301      0.3518
@<TRIPOS>BOND
     1     3     1    2
     2    10     9    2
     3     4     1    1
     4     1     8    1
     5     1     2    1
     6    23    24    1
     7    23    22    1
     8     8     5    1
     9     9    13    1
    10     9    12    1
    11     9    11    1
    12    24    25    2
    13    13    14    1
    14    12     5    1
    15    21    16    1
    16    21    22    1
    17    21    19    1
    18    16    15    1
    19    22    31    1
    20     5     7    2
    21     5     6    1
    22    20    19    1
    23    15    14    1
    24    15    17    1
    25    25    31    1
    26    25    26    1
    27    19    17    1
    28    31    30    2
    29    27    26    1
    30    17    18    1
    31    26    28    2
    32    30    29    1
    33    28    29    1
