@<TRIPOS>MOLECULE
4f6t_6M0_B_1.pdb
 31 33 0 0 0
SMALL
GASTEIGER

@<TRIPOS>ATOM
      1  O1        55.5680   25.3590   28.9940 O.3   305  6M0305      0.0000
      2 MO1        54.9680   25.2290   26.1810 Mo    305  6M0305      0.0000
      3  O2        55.6530   27.5000   25.7180 O.3   305  6M0305      0.0000
      4 MO2        54.5430   26.7060   29.3900 Mo    305  6M0305      0.0000
      5  O3        57.4070   24.5230   27.4190 O.3   305  6M0305      0.0000
      6 MO3        56.5490   23.8920   28.8020 Mo    305  6M0305      0.0000
      7  O4        57.2640   25.8090   25.5470 O.3   305  6M0305      0.0000
      8 MO4        58.0640   24.3620   25.8750 Mo    305  6M0305      0.0000
      9  O5        54.4640   27.5780   27.9620 O.3   305  6M0305      0.0000
     10 MO5        56.8280   27.1750   24.4890 Mo    305  6M0305      0.0000
     11  O6        52.8270   27.4560   29.2670 O.3   305  6M0305      0.0000
     12 MO6        54.5850   28.5310   26.5750 Mo    305  6M0305      0.0000
     13  O7        53.4810   24.8260   30.1450 O.3   305  6M0305      0.0000
     14  O8        54.0010   25.8830   28.4320 O.3   305  6M0305      0.0000
     15  O9        55.0590   27.5850   30.4360 O.3   305  6M0305      0.0000
     16  O10       56.9760   22.0610   28.5090 O.3   305  6M0305      0.0000
     17  O11       55.6520   23.3340   30.3240 O.3   305  6M0305      0.0000
     18  O12       57.6070   24.2960   29.5040 O.3   305  6M0305      0.0000
     19  O13       55.4970   23.4950   28.0750 O.3   305  6M0305      0.0000
     20  O14       58.2550   23.9920   24.1560 O.3   305  6M0305      0.0000
     21  O15       59.1620   24.8940   26.2370 O.3   305  6M0305      0.0000
     22  O16       58.3500   22.6560   26.4320 O.3   305  6M0305      0.0000
     23  O17       56.9100   23.9140   25.4740 O.3   305  6M0305      0.0000
     24  O18       57.7030   26.4560   23.2980 O.3   305  6M0305      0.0000
     25  O19       55.8540   28.4470   23.2110 O.3   305  6M0305      0.0000
     26  O20       57.7770   27.9190   24.9150 O.3   305  6M0305      0.0000
     27  O21       55.8410   26.4170   24.0490 O.3   305  6M0305      0.0000
     28  O22       54.5480   28.7120   24.9370 O.3   305  6M0305      0.0000
     29  O23       53.2200   28.9990   27.2840 O.3   305  6M0305      0.0000
     30  O24       55.4960   29.4870   27.0900 O.3   305  6M0305      0.0000
     31  O25       53.6570   27.5550   25.9960 O.3   305  6M0305      0.0000
@<TRIPOS>BOND
     1    25    10    1
     2    24    10    1
     3    27    10    1
     4    27     2    1
     5    20     8    1
     6    10    26    1
     7    10     7    1
     8    10     3    1
     9    28    12    1
    10    23     8    1
    11    23     2    1
    12     7     8    1
    13     3    12    1
    14     8    21    1
    15     8    22    1
    16     8     5    1
    17    31    12    1
    18     2    19    1
    19    12    30    1
    20    12    29    1
    21    12     9    1
    22     5     6    1
    23     9     4    1
    24    19     6    1
    25    14     1    1
    26    14     4    1
    27    16     6    1
    28     6    18    1
    29     6    17    1
    30     1     4    1
    31    11     4    1
    32     4    13    1
    33     4    15    1
