@<TRIPOS>MOLECULE
4f6t_8M0_A_1.pdb
 34 38 0 0 0
SMALL
GASTEIGER

@<TRIPOS>ATOM
      1  O1        44.3360   35.7960   33.0060 O.3   303  8M0303      0.0000
      2 MO1        44.7320   34.6490   31.7650 Mo    303  8M0303      0.0000
      3  O2        43.8650   35.2270   30.2960 O.3   303  8M0303      0.0000
      4 MO2        43.4740   31.7040   31.2560 Mo    303  8M0303      0.0000
      5  O3        46.4700   35.3030   31.2570 O.3   303  8M0303      0.0000
      6 MO3        47.8460   34.9320   32.5720 Mo    303  8M0303      0.0000
      7  O4        46.1830   33.5630   33.1140 O.3   303  8M0303      0.0000
      8 MO4        46.5980   31.8260   32.5680 Mo    303  8M0303      0.0000
      9  O5        45.3780   32.7360   30.8720 O.3   303  8M0303      0.0000
     10 MO5        44.5780   28.8050   29.1810 Mo    303  8M0303      0.0000
     11  O6        42.5450   32.2450   29.8610 O.3   303  8M0303      0.0000
     12 MO6        49.2050   31.8700   30.6420 Mo    303  8M0303      0.0000
     13  O7        44.8490   30.9910   32.7340 O.3   303  8M0303      0.0000
     14 MO7        47.9360   28.9470   29.7960 Mo    303  8M0303      0.0000
     15  O8        42.4880   30.5380   32.1050 O.3   303  8M0303      0.0000
     16 MO8        46.0670   31.7790   29.2290 Mo    303  8M0303      0.0000
     17  O9        49.2190   35.6290   31.6650 O.3   303  8M0303      0.0000
     18  O10       47.4050   36.2120   33.7420 O.3   303  8M0303      0.0000
     19  O11       47.2520   30.7440   30.9680 O.3   303  8M0303      0.0000
     20  O12       47.5120   31.1160   33.9400 O.3   303  8M0303      0.0000
     21  O13       43.3380   27.8910   30.1350 O.3   303  8M0303      0.0000
     22  O14       46.1700   28.2380   30.2610 O.3   303  8M0303      0.0000
     23  O15       43.7300   29.5460   27.7740 O.3   303  8M0303      0.0000
     24  O16       46.4350   30.0150   28.6010 O.3   303  8M0303      0.0000
     25  O17       49.1580   30.4330   29.3280 O.3   303  8M0303      0.0000
     26  O18       50.2850   33.0550   29.7960 O.3   303  8M0303      0.0000
     27  O19       50.2920   31.1460   31.8540 O.3   303  8M0303      0.0000
     28  O20       47.7670   32.7490   29.1050 O.3   303  8M0303      0.0000
     29  O21       48.8520   28.2310   31.1930 O.3   303  8M0303      0.0000
     30  O22       44.9720   32.4530   27.9310 O.3   303  8M0303      0.0000
     31  O23       48.5160   27.9090   28.4310 O.3   303  8M0303      0.0000
     32  O24       43.4870   33.2830   32.2820 O.3   303  8M0303      0.0000
     33  O25       44.7270   30.4770   30.2370 O.3   303  8M0303      0.0000
     34  O26       47.9720   33.0980   31.5770 O.3   303  8M0303      0.0000
@<TRIPOS>BOND
     1    23    10    1
     2    30    16    1
     3    31    14    1
     4    24    16    1
     5    24    14    1
     6    28    16    1
     7    28    12    1
     8    10    21    1
     9    10    33    1
    10    10    22    1
    11    16     9    1
    12    25    14    1
    13    25    12    1
    14    14    22    1
    15    14    19    1
    16    14    29    1
    17    26    12    1
    18    11     4    1
    19    33     4    1
    20     3     2    1
    21    12    34    1
    22    12    27    1
    23     9     4    1
    24    19     8    1
    25     4    15    1
    26     4    32    1
    27     4    13    1
    28     5     2    1
    29     5     6    1
    30    34     6    1
    31    17     6    1
    32     2    32    1
    33     2     1    1
    34     8    13    1
    35     8     7    1
    36     8    20    1
    37     6     7    1
    38     6    18    1
