@<TRIPOS>MOLECULE
4f6v_FJP_A_1.pdb
 20 19 0 0 0
SMALL
GASTEIGER

@<TRIPOS>ATOM
      1  CAA       23.5240  -21.3690    7.5600 C.3   303  FJP303      0.0260
      2  CAB       21.9820  -20.6710    9.4070 C.3   303  FJP303      0.0260
      3  CAC       22.9480  -16.7740    8.3650 C.3   303  FJP303      0.0260
      4  CAD       25.4240  -11.4600    6.6330 C.3   303  FJP303      0.0261
      5  OAE       22.5140   -8.8150   10.1570 O.2   303  FJP303     -0.2224
      6  OAF       24.1310  -10.6160   10.7440 O.3   303  FJP303     -0.1145
      7  OAG       24.9610   -8.2960   10.6550 O.3   303  FJP303     -0.1145
      8  CAH       22.8920  -19.0070    7.8800 C.2   303  FJP303     -0.0342
      9  CAI       23.9490  -15.1390    7.0610 C.2   303  FJP303     -0.0342
     10  CAJ       23.0500  -11.0410    7.0310 C.2   303  FJP303     -0.0022
     11  CAK       23.7350  -18.6810    6.6870 C.3   303  FJP303      0.0297
     12  CAL       24.7050  -14.2570    6.1620 C.3   303  FJP303      0.0297
     13  CAM       23.2980   -9.6610    7.6150 C.3   303  FJP303      0.1793
     14  CAN       24.7300  -17.5270    6.8140 C.3   303  FJP303      0.0263
     15  CAO       23.6430  -13.1950    6.0130 C.3   303  FJP303      0.0264
     16  OAP       24.2700   -9.5820    8.6380 O.3   303  FJP303     -0.2654
     17  CAQ       22.8100  -20.2760    8.2560 C.2   303  FJP303     -0.0478
     18  CAR       23.9280  -16.4180    7.3470 C.2   303  FJP303     -0.0478
     19  CAS       23.9950  -11.8650    6.5900 C.2   303  FJP303     -0.0454
     20  PAT       23.9420   -9.2710   10.1810 P.3   303  FJP303      0.5329
@<TRIPOS>BOND
     1    15    12    1
     2    15    19    1
     3    12     9    1
     4    19     4    1
     5    19    10    2
     6    11    14    1
     7    11     8    1
     8    14    18    1
     9    10    13    1
    10     9    18    2
    11    18     3    1
    12     1    17    1
    13    13    16    1
    14     8    17    2
    15    17     2    1
    16    16    20    1
    17     5    20    2
    18    20     7    1
    19    20     6    1
