@<TRIPOS>MOLECULE
4f6v_ZYM_A_1.pdb
 25 26 0 0 0
SMALL
GASTEIGER

@<TRIPOS>ATOM
      1  OAA       23.1220   -4.9850    8.0820 O.co2 301  ZYM301     -0.2369
      2  OAB       26.1080   -7.1770    4.8260 O.2   301  ZYM301     -0.2683
      3  OAC       23.3830   -3.8290    6.2680 O.co2 301  ZYM301     -0.2369
      4  OAD       24.8290   -5.2890    5.1000 O.2   301  ZYM301     -0.2793
      5  CAE       25.0240   -6.9120    6.7480 C.2   301  ZYM301      0.1084
      6  CAF       25.2010  -15.9270   12.2540 C.ar  301  ZYM301      0.0002
      7  CAG       26.5640  -15.9240   12.0510 C.ar  301  ZYM301      0.0031
      8  CAH       24.4010  -15.1820   11.4420 C.ar  301  ZYM301      0.0031
      9  CAI       28.4540  -10.6370   10.1600 C.ar  301  ZYM301      0.0028
     10  CAJ       28.9560  -10.2450    8.9470 C.ar  301  ZYM301     -0.0041
     11  CAK       27.1230  -15.1670   11.0490 C.ar  301  ZYM301      0.0375
     12  CAL       24.9680  -14.4500   10.4270 C.ar  301  ZYM301      0.0375
     13  CAM       27.7230  -11.7920   10.2680 C.ar  301  ZYM301      0.0375
     14  CAN       28.0260  -12.1640    7.9190 C.ar  301  ZYM301      0.0332
     15  CAO       28.6020   -9.2970    6.0410 C.3   301  ZYM301      0.0281
     16  CAP       27.2360   -9.5820    5.4410 C.3   301  ZYM301      0.1158
     17  CAQ       29.3290  -10.5420    6.5320 C.3   301  ZYM301      0.0283
     18  NAR       26.3430   -8.7730    6.2580 N.am  301  ZYM301     -0.2016
     19  OAS       26.8050  -13.7150    9.1670 O.3   301  ZYM301     -0.4535
     20  CAT       23.6380   -4.8070    6.9630 C.2   301  ZYM301      0.4262
     21  CAU       25.8320   -7.6000    5.9180 C.2   301  ZYM301      0.2684
     22  CAV       24.5320   -5.7340    6.3050 C.2   301  ZYM301      0.2793
     23  CAW       28.7550  -11.0090    7.8330 C.ar  301  ZYM301     -0.0191
     24  CAX       26.3220  -14.4220   10.2230 C.ar  301  ZYM301      0.1453
     25  CAY       27.5150  -12.5660    9.1400 C.ar  301  ZYM301      0.1450
@<TRIPOS>BOND
     1     2    21    2
     2     4    22    1
     3    16    15    1
     4    16    18    1
     5    21    18   am
     6    21     5    1
     7    15    17    1
     8     3    20   ar
     9    22     5    2
    10    22    20    1
    11    17    23    1
    12    20     1   ar
    13    23    14   ar
    14    23    10   ar
    15    14    25   ar
    16    10     9   ar
    17    25    19    1
    18    25    13   ar
    19    19    24    1
    20     9    13   ar
    21    24    12   ar
    22    24    11   ar
    23    12     8   ar
    24    11     7   ar
    25     8     6   ar
    26     7     6   ar
