@<TRIPOS>MOLECULE
4f6x_ZYL_A_1.pdb
 25 26 0 0 0
SMALL
GASTEIGER

@<TRIPOS>ATOM
      1  CAA      -23.3210   22.7610    7.7520 C.3   301  ZYL301      0.0000
      2  OAB      -25.0520    6.0660    7.1780 O.co2 301  ZYL301     -0.2446
      3  OAC      -24.3330    9.3130    5.0440 O.2   301  ZYL301     -0.2738
      4  OAD      -25.0550    6.9200    5.1390 O.co2 301  ZYL301     -0.2446
      5  OAE      -23.0040    6.6910    8.6430 O.2   301  ZYL301     -0.2905
      6  CAF      -26.0150   13.1780    6.0640 C.ar  301  ZYL301      0.0028
      7  CAG      -25.0530   12.2530    5.6860 C.ar  301  ZYL301     -0.0024
      8  CAH      -25.6540   14.3030    6.7910 C.ar  301  ZYL301      0.0369
      9  CAI      -22.0500    8.8460    8.3030 C.2   301  ZYL301      0.0339
     10  CAJ      -21.9630   10.0220    7.5640 C.3   301  ZYL301      0.1232
     11  CAK      -23.3650   13.5740    6.7660 C.ar  301  ZYL301      0.0343
     12  CAL      -23.7200   21.3360    8.1380 C.3   301  ZYL301      0.0000
     13  CAM      -22.6650   20.3320    7.6770 C.3   301  ZYL301      0.0001
     14  CAN      -23.3000   19.1700    6.9160 C.3   301  ZYL301      0.0038
     15  CAO      -23.3100   17.9010    7.7620 C.3   301  ZYL301      0.0473
     16  CAP      -23.9580   16.7470    7.0030 C.3   301  ZYL301      0.2054
     17  CAQ      -22.6650   11.4360    5.6260 C.3   301  ZYL301      0.1206
     18  OAR      -23.9710   15.6010    7.8560 O.3   301  ZYL301     -0.4755
     19  CAS      -24.6860    6.9090    6.3340 C.2   301  ZYL301      0.3804
     20  CAT      -23.7280   12.4490    6.0410 C.ar  301  ZYL301      0.0007
     21  CAU      -24.3280   14.5020    7.1420 C.ar  301  ZYL301      0.1383
     22  CAV      -22.9270    7.8370    7.9140 C.2   301  ZYL301      0.1898
     23  CAW      -23.7190    8.0040    6.7830 C.3   301  ZYL301      0.2402
     24  CAX      -23.6310    9.1750    6.0410 C.2   301  ZYL301      0.2442
     25  NAY      -22.7590   10.1940    6.4280 N.am  301  ZYL301     -0.2704
@<TRIPOS>BOND
     1     3    24    2
     2     4    19   ar
     3    17    20    1
     4    17    25    1
     5     7    20   ar
     6     7     6   ar
     7    24    25   am
     8    24    23    1
     9    20    11   ar
    10     6     8   ar
    11    19    23    1
    12    19     2   ar
    13    25    10    1
    14    11    21   ar
    15    23    22    1
    16     8    21   ar
    17    14    13    1
    18    14    15    1
    19    16    15    1
    20    16    18    1
    21    21    18    1
    22    10     9    1
    23    13    12    1
    24     1    12    1
    25    22     9    2
    26    22     5    1
