@<TRIPOS>MOLECULE
4f79_P53_A_1.pdb
 24 25 0 0 0
SMALL
GASTEIGER

@<TRIPOS>ATOM
      1  P         37.4650    2.9290   10.9810 P.3   501  P53501      0.5327
      2  C1        34.7770    4.9150    6.8430 C.ar  501  P53501      0.0013
      3  C2        35.9130    4.1270    6.7460 C.ar  501  P53501     -0.0000
      4  C4        35.9130    2.8230    7.2330 C.ar  501  P53501      0.0031
      5  C6        34.7560    2.3080    7.8330 C.ar  501  P53501      0.0367
      6  O6        35.9510    3.0130   10.5900 O.3   501  P53501     -0.2675
      7  C8        33.6170    3.0980    7.9510 C.ar  501  P53501      0.1398
      8  C10       33.6210    4.4080    7.4350 C.ar  501  P53501      0.0447
      9  C13       32.4020    5.2720    7.5390 C.3   501  P53501      0.2116
     10  O15       31.6260    5.5170    6.4420 O.3   501  P53501     -0.2151
     11  O17       32.4050    2.5920    8.5200 O.3   501  P53501     -0.4507
     12  C19       32.4020    1.9000    9.6850 C.3   501  P53501      0.3218
     13  O1P       37.7290    4.1280   11.8800 O.3   501  P53501     -0.1145
     14  C21       32.7680    0.4210    9.4630 C.3   501  P53501      0.2542
     15  C23       33.3120   -0.1880   10.6390 C.3   501  P53501      0.2211
     16  C25       34.4440    0.5800   11.0290 C.3   501  P53501      0.2144
     17  C27       33.9820    1.9300   11.5500 C.3   501  P53501      0.1818
     18  O29       33.0490    2.6290   10.6930 O.3   501  P53501     -0.3158
     19  O2P       37.6240    1.6470   11.7640 O.3   501  P53501     -0.1145
     20  O32       31.6110   -0.2880    9.0890 O.3   501  P53501     -0.2135
     21  O34       33.5950   -1.6190   10.3620 O.3   501  P53501     -0.2173
     22  O36       35.2580   -0.1040   12.0230 O.3   501  P53501     -0.2176
     23  C38       35.1050    2.8540   11.6980 C.3   501  P53501      0.1859
     24  O3P       38.3930    2.9280    9.7580 O.2   501  P53501     -0.2224
@<TRIPOS>BOND
     1    10     9    1
     2     3     2   ar
     3     3     4   ar
     4     2     8   ar
     5     4     5   ar
     6     8     9    1
     7     8     7   ar
     8     5     7   ar
     9     7    11    1
    10    11    12    1
    11    20    14    1
    12    14    12    1
    13    14    15    1
    14    12    18    1
    15    24     1    2
    16    21    15    1
    17     6     1    1
    18     6    23    1
    19    15    16    1
    20    18    17    1
    21     1    19    1
    22     1    13    1
    23    16    17    1
    24    16    22    1
    25    17    23    1
