@<TRIPOS>MOLECULE
4f7e_0SH_A_1.pdb
 50 50 0 0 0
SMALL
GASTEIGER

@<TRIPOS>ATOM
      1  C18      -28.4420  -14.8310   -0.3820 C.3   301  0SH301      0.0000
      2  C17      -27.4890  -14.6550    0.8120 C.3   301  0SH301      0.0000
      3  C16      -26.0480  -14.4870    0.2860 C.3   301  0SH301      0.0000
      4  C15      -25.0290  -14.4910    1.4340 C.3   301  0SH301      0.0000
      5  C14      -24.8940  -13.0900    2.0210 C.3   301  0SH301      0.0000
      6  C13      -23.4340  -12.6380    1.9940 C.3   301  0SH301      0.0000
      7  C12      -23.3640  -11.1400    2.3140 C.3   301  0SH301      0.0000
      8  C11      -21.9300  -10.6670    2.0970 C.3   301  0SH301      0.0000
      9  C10      -21.9060   -9.1650    1.8180 C.3   301  0SH301      0.0000
     10  C9       -21.2790   -8.8750    0.4410 C.3   301  0SH301      0.0000
     11  C8       -22.3510   -8.2830   -0.4910 C.3   301  0SH301      0.0000
     12  C7       -21.8570   -6.9860   -1.1340 C.3   301  0SH301      0.0001
     13  C6       -22.8820   -6.5030   -2.1690 C.3   301  0SH301      0.0027
     14  C5       -22.1720   -5.6200   -3.2050 C.3   301  0SH301      0.0356
     15  C4       -23.1800   -4.9610   -4.1680 C.3   301  0SH301      0.1839
     16  O4       -24.3040   -4.4100   -3.4450 O.3   301  0SH301     -0.2204
     17  C3       -22.4810   -3.8860   -5.0520 C.3   301  0SH301      0.2043
     18  O3       -23.1360   -3.8470   -6.3300 O.3   301  0SH301     -0.2185
     19  C2       -22.4450   -2.4830   -4.3640 C.3   301  0SH301      0.1576
     20  C1       -22.7490   -1.2700   -5.2920 C.3   301  0SH301      0.1691
     21  O1A      -22.4610   -1.5380   -6.6670 O.3   301  0SH301     -0.3266
     22  C1A      -23.2260   -0.7140   -7.5950 C.3   301  0SH301      0.2695
     23  O6A      -22.5190    0.5060   -7.9420 O.3   301  0SH301     -0.3256
     24  C5M      -21.1360    0.2610   -8.4070 C.3   301  0SH301      0.1835
     25  C6A      -20.4040    1.5750   -8.7380 C.3   301  0SH301      0.2142
     26  O5A      -21.2300    2.6980   -8.4040 O.3   301  0SH301     -0.2176
     27  C4A      -21.0880   -0.7280   -9.6200 C.3   301  0SH301      0.2144
     28  O4A      -21.3420   -0.0420  -10.8660 O.3   301  0SH301     -0.2176
     29  C3A      -22.0660   -1.9430   -9.4190 C.3   301  0SH301      0.2198
     30  O3A      -22.2320   -2.6960  -10.6360 O.3   301  0SH301     -0.2174
     31  C2A      -23.4460   -1.5080   -8.8670 C.3   301  0SH301      0.2406
     32  O2A      -24.2480   -2.6620   -8.5760 O.3   301  0SH301     -0.2149
     33  N2       -21.1610   -2.3540   -3.6240 N.am  301  0SH301     -0.2019
     34  CAA      -20.5350   -1.2050   -3.2820 C.2   301  0SH301      0.2415
     35  OAA      -20.8990   -0.0750   -3.6020 O.2   301  0SH301     -0.2733
     36  CAB      -19.2480   -1.4050   -2.4710 C.3   301  0SH301      0.0868
     37  CAC      -19.3820   -0.7570   -1.0930 C.3   301  0SH301      0.0096
     38  CAD      -19.0040   -1.7690   -0.0010 C.3   301  0SH301      0.0005
     39  CAE      -19.1270   -1.1080    1.3710 C.3   301  0SH301      0.0000
     40  CAF      -19.6840   -2.0950    2.4000 C.3   301  0SH301      0.0000
     41  CAG      -19.9540   -1.3410    3.7100 C.3   301  0SH301      0.0000
     42  CAH      -19.8600   -2.2830    4.9130 C.3   301  0SH301      0.0000
     43  CAI      -21.0690   -2.0590    5.8330 C.3   301  0SH301      0.0000
     44  CAJ      -20.7570   -1.0200    6.9190 C.3   301  0SH301      0.0000
     45  CAK      -21.9540   -0.7870    7.8680 C.3   301  0SH301      0.0000
     46  CAL      -22.3170    0.7080    7.8580 C.3   301  0SH301      0.0000
     47  CAM      -22.2980    1.2990    9.2770 C.3   301  0SH301      0.0000
     48  CAN      -22.6320    2.8010    9.2150 C.3   301  0SH301      0.0000
     49  CAO      -21.7440    3.5900   10.2100 C.3   301  0SH301      0.0000
     50  CAP      -20.9450    4.7160    9.5000 C.3   301  0SH301      0.0000
@<TRIPOS>BOND
     1    28    27    1
     2    30    29    1
     3    27    29    1
     4    27    24    1
     5    29    31    1
     6    31    32    1
     7    31    22    1
     8    25    24    1
     9    25    26    1
    10    24    23    1
    11    23    22    1
    12    22    21    1
    13    21    20    1
    14    18    17    1
    15    20    19    1
    16    17    19    1
    17    17    15    1
    18    19    33    1
    19    15    16    1
    20    15    14    1
    21    33    34   am
    22    35    34    2
    23    34    36    1
    24    14    13    1
    25    36    37    1
    26    13    12    1
    27    12    11    1
    28    37    38    1
    29    11    10    1
    30     1     2    1
    31    38    39    1
    32     3     2    1
    33     3     4    1
    34    10     9    1
    35    39    40    1
    36     4     5    1
    37     9     8    1
    38     6     5    1
    39     6     7    1
    40     8     7    1
    41    40    41    1
    42    41    42    1
    43    42    43    1
    44    43    44    1
    45    44    45    1
    46    46    45    1
    47    46    47    1
    48    48    47    1
    49    48    49    1
    50    50    49    1
