@<TRIPOS>MOLECULE
4f7i_NAD_A_1.pdb
 44 48 0 0 0
SMALL
GASTEIGER

@<TRIPOS>ATOM
      1  PA        19.0740   -8.8240   29.8600 P.3   900  NAD900      0.2189
      2  O1A       18.6670   -7.4430   29.2820 O.2   900  NAD900     -0.5170
      3  O2A       17.9690   -9.8360   29.8670 O.3   900  NAD900     -0.4371
      4  O5B       19.7580   -8.6580   31.2800 O.3   900  NAD900     -0.3112
      5  C5B       20.8920   -7.7440   31.3160 C.3   900  NAD900      0.1813
      6  C4B       21.1960   -7.5140   32.8490 C.3   900  NAD900      0.1821
      7  O4B       20.2090   -6.6380   33.3920 O.3   900  NAD900     -0.3135
      8  C3B       21.0990   -8.8570   33.6670 C.3   900  NAD900      0.2184
      9  O3B       21.8780   -8.7170   34.8570 O.3   900  NAD900     -0.2174
     10  C2B       19.6010   -8.8180   34.0610 C.3   900  NAD900      0.2570
     11  O2B       19.3990   -9.5700   35.2730 O.3   900  NAD900     -0.2130
     12  C1B       19.4160   -7.3020   34.3860 C.3   900  NAD900      0.3186
     13  N9A       18.0060   -6.9590   34.0230 N.pl3 900  NAD900     -0.1439
     14  C8A       17.4270   -6.8960   32.7890 C.3   900  NAD900      0.3377
     15  N7A       16.1360   -6.5470   32.8970 N.2   900  NAD900     -0.2095
     16  C5A       15.8970   -6.2760   34.1840 C.2   900  NAD900      0.2526
     17  C6A       14.7700   -5.8650   34.9560 C.2   900  NAD900      0.4393
     18  N6A       13.5120   -5.5380   34.4180 N.pl3 900  NAD900      0.2180
     19  N1A       14.9570   -5.8220   36.2630 N.2   900  NAD900      0.0021
     20  C2A       16.0790   -6.0620   36.9330 C.3   900  NAD900      0.5254
     21  N3A       17.1710   -6.4090   36.2560 N.2   900  NAD900     -0.0055
     22  C4A       17.1030   -6.5260   34.9050 C.2   900  NAD900      0.3518
     23  O3        20.1230   -9.2280   28.6760 O.3   900  NAD900     -0.2703
     24  PN        21.1160  -10.5310   28.6390 P.3   900  NAD900      0.2189
     25  O1N       22.3050  -10.0800   27.7700 O.2   900  NAD900     -0.5170
     26  O2N       21.6700  -10.9180   30.0190 O.3   900  NAD900     -0.4371
     27  O5D       20.4070  -11.7010   27.8730 O.3   900  NAD900     -0.3112
     28  C5D       19.3410  -12.2960   28.6810 C.3   900  NAD900      0.1813
     29  C4D       18.3630  -12.9500   27.6150 C.3   900  NAD900      0.1799
     30  O4D       17.5040  -11.9950   26.9530 O.3   900  NAD900     -0.3327
     31  C3D       19.0920  -13.6290   26.3910 C.3   900  NAD900      0.2158
     32  O3D       18.3840  -14.8350   25.9830 O.3   900  NAD900     -0.2175
     33  C2D       18.9590  -12.5660   25.2760 C.3   900  NAD900      0.2309
     34  O2D       19.0110  -13.1140   23.9680 O.3   900  NAD900     -0.2158
     35  C1D       17.4940  -12.1420   25.5210 C.3   900  NAD900      0.2263
     36  N1N       17.2160  -10.7450   25.1230 N.pl3 900  NAD900     -0.2787
     37  C2N       15.9760  -10.5010   24.6730 C.3   900  NAD900      0.1244
     38  C3N       15.5640   -9.1850   24.4010 C.2   900  NAD900      0.0544
     39  C7N       14.1840   -9.0650   23.8810 C.2   900  NAD900      0.2818
     40  O7N       13.4880  -10.0980   23.7640 O.2   900  NAD900     -0.2670
     41  N7N       13.6760   -7.8620   23.4940 N.am  900  NAD900     -0.0839
     42  C4N       16.5340   -8.1050   24.5360 C.2   900  NAD900      0.0033
     43  C5N       17.8290   -8.4170   25.0520 C.2   900  NAD900      0.0157
     44  C6N       18.1280   -9.7710   25.3630 C.2   900  NAD900      0.0633
@<TRIPOS>BOND
     1    41    39   am
     2    40    39    2
     3    39    38    1
     4    34    33    1
     5    38    42    2
     6    38    37    1
     7    42    43    1
     8    37    36    1
     9    43    44    2
    10    36    44    1
    11    36    35    1
    12    33    35    1
    13    33    31    1
    14    35    30    1
    15    32    31    1
    16    31    29    1
    17    30    29    1
    18    29    28    1
    19    25    24    2
    20    27    24    1
    21    27    28    1
    22    24    23    1
    23    24    26    1
    24    23     1    1
    25     2     1    2
    26     1     3    1
    27     1     4    1
    28     4     5    1
    29     5     6    1
    30    14    15    1
    31    14    13    1
    32     6     7    1
    33     6     8    1
    34    15    16    2
    35     7    12    1
    36     8    10    1
    37     8     9    1
    38    13    12    1
    39    13    22    1
    40    10    12    1
    41    10    11    1
    42    16    22    1
    43    16    17    1
    44    18    17    1
    45    22    21    2
    46    17    19    2
    47    21    20    1
    48    19    20    1
