@<TRIPOS>MOLECULE
4f7i_IPM_A_1.pdb
 12 11 0 0 0
SMALL
GASTEIGER

@<TRIPOS>ATOM
      1  C1        16.9330   -6.0930   21.7530 C.2   800  IPM800      0.3952
      2  C2        17.6910   -7.2530   21.8930 C.3   800  IPM800      0.2645
      3  C3        17.3270   -7.6550   20.4150 C.3   800  IPM800      0.1448
      4  C4        18.0940   -6.7610   19.4380 C.2   800  IPM800      0.3674
      5  C5        17.1960   -9.1240   19.9740 C.3   800  IPM800      0.0138
      6  C6        17.0250   -9.2520   18.4500 C.3   800  IPM800      0.0007
      7  C7        16.0920   -9.9700   20.7320 C.3   800  IPM800      0.0007
      8  O1        19.0330   -6.6330   22.4140 O.3   800  IPM800     -0.2103
      9  O2        17.6860   -5.0100   22.2240 O.co2 800  IPM800     -0.2428
     10  O3        15.7690   -6.2840   21.1960 O.co2 800  IPM800     -0.2428
     11  O4        17.4400   -5.9920   18.7150 O.co2 800  IPM800     -0.2456
     12  O5        19.3950   -6.9150   19.4730 O.co2 800  IPM800     -0.2456
@<TRIPOS>BOND
     1     6     5    1
     2    11     4   ar
     3     4    12   ar
     4     4     3    1
     5     5     3    1
     6     5     7    1
     7     3     2    1
     8    10     1   ar
     9     1     2    1
    10     1     9   ar
    11     2     8    1
