@<TRIPOS>MOLECULE
4f7p_III_C_1.pdb
 46 48 0 0 0
SMALL
GASTEIGER

@<TRIPOS>ATOM
      1  N          5.2750  -28.7080   -9.8540 N.3     1  PHE1       -0.1227
      2  CA         4.3580  -27.5740   -9.9060 C.3     1  PHE1        0.1736
      3  C          5.0800  -26.2850   -9.5560 C.2     1  PHE1        0.2595
      4  O          5.7090  -26.1860   -8.5050 O.2     1  PHE1       -0.2718
      5  CB         3.1910  -27.7720   -8.9340 C.3     1  PHE1        0.0547
      6  CG         2.3380  -28.9660   -9.2370 C.ar    1  PHE1       -0.0202
      7  CD1        1.6340  -29.0500  -10.4270 C.ar    1  PHE1       -0.0042
      8  CD2        2.2180  -29.9930   -8.3220 C.ar    1  PHE1       -0.0042
      9  CE1        0.8410  -30.1520  -10.7060 C.ar    1  PHE1       -0.0003
     10  CE2        1.4220  -31.0950   -8.5920 C.ar    1  PHE1       -0.0003
     11  CZ         0.7360  -31.1750   -9.7860 C.ar    1  PHE1       -0.0000
     12  N          4.9830  -25.2930  -10.4330 N.am    2  TYR2       -0.1962
     13  CA         5.5760  -23.9920  -10.1610 C.3     2  TYR2        0.1771
     14  C          4.8540  -23.3430   -8.9920 C.2     2  TYR2        0.2619
     15  O          3.7420  -23.7400   -8.6390 O.2     2  TYR2       -0.2715
     16  CB         5.4690  -23.0940  -11.3840 C.3     2  TYR2        0.0574
     17  CG         6.6320  -22.1470  -11.5910 C.ar    2  TYR2       -0.0198
     18  CD1        7.7640  -22.5540  -12.2840 C.ar    2  TYR2       -0.0009
     19  CD2        6.5880  -20.8400  -11.1160 C.ar    2  TYR2       -0.0009
     20  CE1        8.8200  -21.6950  -12.4950 C.ar    2  TYR2        0.0417
     21  CE2        7.6410  -19.9730  -11.3220 C.ar    2  TYR2        0.0417
     22  CZ         8.7570  -20.4110  -12.0070 C.ar    2  TYR2        0.1957
     23  OH         9.8030  -19.5550  -12.2260 O.3     2  TYR2       -0.2866
     24  N          5.4870  -22.3420   -8.3930 N.am    3  ARG3       -0.1963
     25  CA         4.8660  -21.6250   -7.2930 C.3     3  ARG3        0.1729
     26  C          3.8340  -20.6290   -7.8150 C.2     3  ARG3        0.2616
     27  O          3.9910  -20.0670   -8.9000 O.2     3  ARG3       -0.2715
     28  CB         5.9170  -20.8990   -6.4510 C.3     3  ARG3        0.0348
     29  CG         6.6580  -19.7710   -7.1680 C.3     3  ARG3        0.0492
     30  CD         7.6230  -19.0970   -6.1950 C.3     3  ARG3        0.2205
     31  NE         8.5650  -18.1830   -6.8350 N.pl3   3  ARG3       -0.0865
     32  CZ         8.3200  -16.8960   -7.0610 C.cat   3  ARG3        0.5346
     33  NH1        7.1500  -16.3670   -6.7210 N.pl3   3  ARG3        0.1354
     34  NH2        9.2430  -16.1390   -7.6330 N.pl3   3  ARG3        0.1354
     35  N          2.7820  -20.4120   -7.0360 N.am    4  TYR4       -0.1974
     36  CA         1.7760  -19.4220   -7.3890 C.3     4  TYR4        0.1639
     37  C          2.3480  -18.0120   -7.2530 C.2     4  TYR4        0.2290
     38  O          3.5290  -17.8390   -6.9590 O.2     4  TYR4       -0.2864
     39  CB         0.5590  -19.5750   -6.4850 C.3     4  TYR4        0.0560
     40  CG         0.9170  -19.6850   -5.0260 C.ar    4  TYR4       -0.0198
     41  CD1        1.1530  -18.5480   -4.2570 C.ar    4  TYR4       -0.0009
     42  CD2        1.0240  -20.9280   -4.4130 C.ar    4  TYR4       -0.0009
     43  CE1        1.4860  -18.6480   -2.9040 C.ar    4  TYR4        0.0417
     44  CE2        1.3530  -21.0370   -3.0700 C.ar    4  TYR4        0.0417
     45  CZ         1.5830  -19.8980   -2.3210 C.ar    4  TYR4        0.1957
     46  OH         1.9110  -20.0230   -0.9890 O.3     4  TYR4       -0.2866
@<TRIPOS>BOND
     1    20    18   ar
     2    20    22   ar
     3    18    17   ar
     4    23    22    1
     5    22    21   ar
     6    17    16    1
     7    17    19   ar
     8    16    13    1
     9    21    19   ar
    10     9     7   ar
    11     9    11   ar
    12    12    13    1
    13    12     3   am
    14     7     6   ar
    15    13    14    1
    16     2     1    1
    17     2     3    1
    18     2     5    1
    19    11    10   ar
    20     3     4    2
    21     6     5    1
    22     6     8   ar
    23    14    15    2
    24    14    24   am
    25    27    26    2
    26    10     8   ar
    27    24    25    1
    28    26    25    1
    29    26    35   am
    30    34    32    1
    31    36    37    1
    32    36    35    1
    33    36    39    1
    34    25    28    1
    35    37    38    2
    36    29    28    1
    37    29    30    1
    38    32    31    2
    39    32    33    1
    40    31    30    1
    41    39    40    1
    42    40    42   ar
    43    40    41   ar
    44    42    44   ar
    45    41    43   ar
    46    44    45   ar
    47    43    45   ar
    48    45    46    1
