@<TRIPOS>MOLECULE
4f7v_J1D_A_1.pdb
 44 48 0 0 0
SMALL
GASTEIGER

@<TRIPOS>ATOM
      1  C1         4.8650   18.0140   14.1490 C.3   201  J1D201      0.1758
      2  O1         4.3070   16.6700   14.3720 O.3   201  J1D201     -0.3143
      3  C2         6.3880   17.7970   14.0330 C.3   201  J1D201      0.2177
      4  O2         7.0400   18.9450   14.4410 O.3   201  J1D201     -0.2175
      5  C3         6.6070   16.5900   15.0380 C.3   201  J1D201      0.2569
      6  O3         6.6230   16.8970   16.3840 O.3   201  J1D201     -0.2130
      7  C4         5.3350   15.7290   14.7260 C.3   201  J1D201      0.3186
      8  N1         5.5290   14.8920   13.5340 N.pl3 201  J1D201     -0.1439
      9  C5         6.6840   14.6430   12.7270 C.3   201  J1D201      0.3377
     10  N2         6.4130   13.8340   11.7010 N.2   201  J1D201     -0.2095
     11  C6         5.0490   13.5690   11.8130 C.2   201  J1D201      0.2526
     12  C7         4.1980   12.8200   11.0380 C.2   201  J1D201      0.4393
     13  N3         4.6900   12.1930    9.9070 N.pl3 201  J1D201      0.2180
     14  N4         2.8720   12.7040   11.4030 N.2   201  J1D201      0.0021
     15  C8         2.4390   13.3860   12.5120 C.3   201  J1D201      0.5254
     16  N5         3.1610   14.1300   13.3290 N.2   201  J1D201     -0.0055
     17  C9         4.4800   14.2100   12.9380 C.2   201  J1D201      0.3518
     18  C10        4.2910   18.7470   12.9340 C.3   201  J1D201      0.1831
     19  S1         2.5290   18.9000   13.0100 S.O2  201  J1D201     -0.0057
     20  C11        2.1330   19.8880   11.7090 C.3   201  J1D201      0.1742
     21  N6         3.6600   21.7340   11.9890 N.am  201  J1D201     -0.2021
     22  C12        2.2440   21.3750   12.0300 C.3   201  J1D201      0.1405
     23  C13        4.2180   22.0940   10.7810 C.2   201  J1D201      0.2635
     24  C14        5.6770   22.4600   10.8410 C.3   201  J1D201      0.2017
     25  N7         5.9470   23.5050    9.8720 N.am  201  J1D201     -0.1897
     26  C15        5.3090   24.7380    9.8610 C.2   201  J1D201      0.2927
     27  O4         4.4360   25.0620   10.6610 O.2   201  J1D201     -0.2658
     28  N8         7.2010   27.8920    5.5980 N.2   201  J1D201     -0.2672
     29  C16        8.3690   27.4930    5.1340 C.1   201  J1D201      0.2609
     30  N9         8.9900   28.1250    4.0570 N.pl3 201  J1D201     -0.0220
     31  N10        9.0800   26.4530    5.5860 N.2   201  J1D201     -0.2466
     32  C17        8.6870   25.6620    6.6780 C.1   201  J1D201      0.2569
     33  O5         9.4280   24.7580    6.9980 O.2   201  J1D201     -0.2052
     34  N11        6.9550   25.3240    8.2750 N.2   201  J1D201     -0.3767
     35  C18        5.7890   25.6290    8.7570 C.2   201  J1D201      0.1860
     36  C19        4.9290   26.8010    8.3590 C.3   201  J1D201      0.1455
     37  C20        4.8260   27.8030    9.5200 C.3   201  J1D201      0.0326
     38  C21        3.5970   26.2740    7.8390 C.3   201  J1D201      0.0326
     39  N12        5.5440   27.5280    7.2160 N.2   201  J1D201     -0.2036
     40  C22        6.7180   27.1380    6.6820 C.1   201  J1D201      0.1400
     41  C23        7.4170   26.0640    7.2250 C.2   201  J1D201      0.2992
     42  O6         3.5550   22.1320    9.7510 O.2   201  J1D201     -0.2714
     43  O7         2.0120   17.6140   12.7370 O.2   201  J1D201     -0.1728
     44  O8         2.3170   19.6050   14.2370 O.2   201  J1D201     -0.1728
@<TRIPOS>BOND
     1    30    29    1
     2    29    31    2
     3    29    28    2
     4    31    32    2
     5    28    40    2
     6    32    33    2
     7    32    41    1
     8    40    39    2
     9    40    41    1
    10    39    36    1
    11    41    34    2
    12    38    36    1
    13    34    35    2
    14    36    35    1
    15    36    37    1
    16    35    26    1
    17    42    23    2
    18    26    25   am
    19    26    27    2
    20    25    24    1
    21    13    12    1
    22    23    24    1
    23    23    21   am
    24    12    14    2
    25    12    11    1
    26    14    15    1
    27    10    11    2
    28    10     9    1
    29    20    22    1
    30    20    19    1
    31    11    17    1
    32    21    22    1
    33    15    16    1
    34     9     8    1
    35    43    19    2
    36    18    19    1
    37    18     1    1
    38    17    16    2
    39    17     8    1
    40    19    44    2
    41     8     7    1
    42     3     1    1
    43     3     4    1
    44     3     5    1
    45     1     2    1
    46     2     7    1
    47     7     5    1
    48     5     6    1
