@<TRIPOS>MOLECULE
4f7x_THP_A_1.pdb
 25 26 0 0 0
SMALL
GASTEIGER

@<TRIPOS>ATOM
      1  P2        17.7750   10.8500    5.2580 P.3   202  THP202      0.5327
      2  O4P       17.7790    9.3820    5.4910 O.2   202  THP202     -0.2224
      3  O5P       16.5390   11.5440    5.8200 O.3   202  THP202     -0.1145
      4  O6P       19.0450   11.6110    5.7920 O.3   202  THP202     -0.1145
      5  P1        20.9920   14.6270    1.5010 P.3   202  THP202      0.5326
      6  O1P       22.0540   15.1530    0.5990 O.2   202  THP202     -0.2224
      7  O2P       21.5790   13.4260    2.3130 O.3   202  THP202     -0.1145
      8  O3P       20.3770   15.4800    2.5680 O.3   202  THP202     -0.1145
      9  O5'       17.8160   11.0140    3.7250 O.3   202  THP202     -0.2675
     10  C5'       17.7610   12.2980    3.0370 C.3   202  THP202      0.1857
     11  C4'       18.7640   12.2450    1.9070 C.3   202  THP202      0.1748
     12  O4'       18.3130   11.1790    1.0420 O.3   202  THP202     -0.3340
     13  C3'       18.6920   13.5200    1.0270 C.3   202  THP202      0.1600
     14  O3'       20.0220   13.8230    0.4690 O.3   202  THP202     -0.2700
     15  C2'       17.8080   13.1600   -0.1820 C.3   202  THP202      0.0847
     16  C1'       17.9450   11.6120   -0.2280 C.3   202  THP202      0.2089
     17  N1        16.6690   10.9980   -0.6700 N.am  202  THP202     -0.1794
     18  C2        16.4090   10.8870   -2.0340 C.1   202  THP202      0.2844
     19  O2        17.2820   11.2200   -2.8910 O.2   202  THP202     -0.1918
     20  N3        15.2100   10.4310   -2.5100 N.2   202  THP202     -0.2455
     21  C4        14.2550   10.0830   -1.6200 C.1   202  THP202      0.2134
     22  O4        13.1620    9.7330   -2.1150 O.2   202  THP202     -0.2088
     23  C5        14.4940   10.2670   -0.1890 C.2   202  THP202      0.0891
     24  C5M       13.4420    9.8360    0.8560 C.3   202  THP202      0.0462
     25  C6        15.7400   10.6540    0.2860 C.2   202  THP202      0.0877
@<TRIPOS>BOND
     1    19    18    2
     2    20    18    2
     3    20    21    2
     4    22    21    2
     5    18    17   am
     6    21    23    1
     7    17    16    1
     8    17    25    1
     9    16    15    1
    10    16    12    1
    11    23    25    2
    12    23    24    1
    13    15    13    1
    14    14    13    1
    15    14     5    1
    16     6     5    2
    17    13    11    1
    18    12    11    1
    19     5     7    1
    20     5     8    1
    21    11    10    1
    22    10     9    1
    23     9     1    1
    24     1     2    2
    25     1     4    1
    26     1     3    1
