@<TRIPOS>MOLECULE
4f83_PG4_A_1.pdb
 13 12 0 0 0
SMALL
GASTEIGER

@<TRIPOS>ATOM
      1  O1         1.9260   -1.2180   -9.0590 O.3   1301  PG41301    -0.2176
      2  C1         1.3210   -2.0750  -10.0260 C.3   1301  PG41301     0.2140
      3  C2         1.5370   -1.4620  -11.4000 C.3   1301  PG41301     0.1777
      4  O2         2.7270   -1.9790  -11.9570 O.3   1301  PG41301    -0.3483
      5  C3         2.8040   -1.8220  -13.3750 C.3   1301  PG41301     0.1742
      6  C4         4.0430   -2.5650  -13.8720 C.3   1301  PG41301     0.1742
      7  O3         3.7550   -3.9510  -13.9850 O.3   1301  PG41301    -0.3484
      8  C5         4.8000   -4.7170  -14.5740 C.3   1301  PG41301     0.1742
      9  C6         4.4020   -6.1930  -14.5720 C.3   1301  PG41301     0.1742
     10  O4         4.5550   -6.7210  -13.2520 O.3   1301  PG41301    -0.3483
     11  C7         3.9840   -8.0240  -13.0850 C.3   1301  PG41301     0.1777
     12  C8         4.3180   -8.5390  -11.6870 C.3   1301  PG41301     0.2140
     13  O5         3.1510   -9.0070  -10.9960 O.3   1301  PG41301    -0.2176
@<TRIPOS>BOND
     1     8     9    1
     2     8     7    1
     3     9    10    1
     4     7     6    1
     5     6     5    1
     6     5     4    1
     7    10    11    1
     8    11    12    1
     9     4     3    1
    10    12    13    1
    11     3     2    1
    12     2     1    1
