@<TRIPOS>MOLECULE
4f84_SAM_A_1.pdb
 20 22 0 0 0
SMALL
GASTEIGER

@<TRIPOS>ATOM
      1  SD        45.9150   48.0610   30.1590 S.3   501  SAM501     -0.1367
      2  CE        45.9730   49.8160   30.6400 C.3   501  SAM501      0.0693
      3  C5'       45.9150   47.3490   31.8240 C.3   501  SAM501      0.0899
      4  C4'       46.9650   47.8640   32.8170 C.3   501  SAM501      0.1630
      5  O4'       48.2360   48.1790   32.3040 O.3   501  SAM501     -0.3153
      6  C3'       46.5500   48.9560   33.8000 C.3   501  SAM501      0.2168
      7  O3'       46.3840   48.3110   35.0610 O.3   501  SAM501     -0.2175
      8  C2'       47.7710   49.8740   33.8130 C.3   501  SAM501      0.2569
      9  O2'       48.0240   50.3580   35.1070 O.3   501  SAM501     -0.2130
     10  C1'       48.8630   48.9410   33.3100 C.3   501  SAM501      0.3185
     11  N9        50.1470   49.5270   32.8670 N.pl3 501  SAM501     -0.1439
     12  C8        50.4000   50.3010   31.7650 C.3   501  SAM501      0.3377
     13  N7        51.7170   50.6140   31.7510 N.2   501  SAM501     -0.2095
     14  C5        52.3080   50.0510   32.8230 C.2   501  SAM501      0.2526
     15  C6        53.6200   50.0540   33.2920 C.2   501  SAM501      0.4393
     16  N6        54.5720   50.7030   32.6290 N.pl3 501  SAM501      0.2180
     17  N1        53.9360   49.3710   34.4490 N.2   501  SAM501      0.0021
     18  C2        52.9570   48.6940   35.1430 C.3   501  SAM501      0.5254
     19  N3        51.6550   48.7010   34.6720 N.2   501  SAM501     -0.0055
     20  C4        51.3360   49.3690   33.5320 C.2   501  SAM501      0.3518
@<TRIPOS>BOND
     1     1     2    1
     2     1     3    1
     3    13    12    1
     4    13    14    2
     5    12    11    1
     6     3     4    1
     7     5     4    1
     8     5    10    1
     9    16    15    1
    10     4     6    1
    11    14    15    1
    12    14    20    1
    13    11    10    1
    14    11    20    1
    15    15    17    2
    16    10     8    1
    17    20    19    2
    18     6     8    1
    19     6     7    1
    20     8     9    1
    21    17    18    1
    22    19    18    1
