@<TRIPOS>MOLECULE
4f86_SFG_A_1.pdb
 27 29 0 0 0
SMALL
GASTEIGER

@<TRIPOS>ATOM
      1  N         48.3010   13.9360   35.6040 N.3   501  SFG501     -0.1208
      2  CA        48.4420   15.0730   36.5250 C.3   501  SFG501      0.1944
      3  C         49.4620   14.7280   37.6140 C.2   501  SFG501      0.3819
      4  O         49.8840   15.6690   38.3190 O.co2 501  SFG501     -0.2441
      5  OXT       49.7990   13.5290   37.7150 O.co2 501  SFG501     -0.2441
      6  CB        47.0870   15.3810   37.1660 C.3   501  SFG501      0.0321
      7  CG        47.1440   16.6690   37.9910 C.3   501  SFG501      0.0212
      8  CD        45.8450   16.8890   38.7690 C.3   501  SFG501      0.0944
      9  NE        45.6110   15.7270   39.6380 N.3   501  SFG501     -0.1328
     10  C5'       44.6550   17.0340   37.8180 C.3   501  SFG501      0.0514
     11  C4'       44.8600   18.1970   36.8440 C.3   501  SFG501      0.1537
     12  O4'       43.6620   18.4190   36.0830 O.3   501  SFG501     -0.3161
     13  C3'       45.1500   19.5280   37.5460 C.3   501  SFG501      0.2159
     14  O3'       46.4890   19.9370   37.2570 O.3   501  SFG501     -0.2175
     15  C2'       44.1640   20.5000   36.8940 C.3   501  SFG501      0.2569
     16  O2'       44.8400   21.7150   36.5600 O.3   501  SFG501     -0.2130
     17  C1'       43.8190   19.7600   35.6030 C.3   501  SFG501      0.3185
     18  N9        42.5440   20.2660   35.0490 N.pl3 501  SFG501     -0.1439
     19  C8        41.3850   20.3200   35.7020 C.3   501  SFG501      0.3377
     20  N7        40.4350   20.7780   34.8890 N.2   501  SFG501     -0.2095
     21  C5        40.9930   21.0200   33.7080 C.2   501  SFG501      0.2526
     22  C6        40.5130   21.4820   32.4890 C.2   501  SFG501      0.4393
     23  N6        39.2260   21.7820   32.3410 N.pl3 501  SFG501      0.2180
     24  N1        41.3660   21.6070   31.4620 N.2   501  SFG501      0.0021
     25  C2        42.6440   21.2960   31.5960 C.3   501  SFG501      0.5254
     26  N3        43.1340   20.8510   32.7400 N.2   501  SFG501     -0.0055
     27  C4        42.3400   20.7000   33.8090 C.2   501  SFG501      0.3518
@<TRIPOS>BOND
     1    24    25    1
     2    24    22    2
     3    25    26    1
     4    23    22    1
     5    22    21    1
     6    26    27    2
     7    21    27    1
     8    21    20    2
     9    27    18    1
    10    20    19    1
    11    18    17    1
    12    18    19    1
    13    17    12    1
    14    17    15    1
    15     1     2    1
    16    12    11    1
    17     2     6    1
    18     2     3    1
    19    16    15    1
    20    11    13    1
    21    11    10    1
    22    15    13    1
    23     6     7    1
    24    14    13    1
    25     3     5   ar
    26     3     4   ar
    27    10     8    1
    28     7     8    1
    29     8     9    1
