@<TRIPOS>MOLECULE
4f86_GPP_A_1.pdb
 19 18 0 0 0
SMALL
GASTEIGER

@<TRIPOS>ATOM
      1  C1        45.1340   14.7810   43.2510 C.3   502  GPP502      0.1747
      2  O1        45.6670   16.0420   43.6680 O.3   502  GPP502     -0.3089
      3  C2        43.7640   14.7160   43.4760 C.2   502  GPP502     -0.0024
      4  C3        42.7650   15.1150   42.5950 C.2   502  GPP502     -0.0454
      5  C4        43.1300   15.6980   41.2290 C.3   502  GPP502      0.0261
      6  C5        41.2920   14.9820   42.9900 C.3   502  GPP502      0.0264
      7  C6        40.5950   13.8690   42.2040 C.3   502  GPP502      0.0297
      8  C7        41.1160   12.6180   42.5140 C.2   502  GPP502     -0.0342
      9  C8        40.3790   11.4610   42.7430 C.2   502  GPP502     -0.0478
     10  C9        41.0930   10.1510   43.0810 C.3   502  GPP502      0.0260
     11  C10       38.8510   11.4980   42.6610 C.3   502  GPP502      0.0260
     12  PA        46.5740   16.1640   44.9940 P.3   502  GPP502      0.2233
     13  O1A       47.2710   17.4690   44.9600 O.2   502  GPP502     -0.5169
     14  O2A       47.3900   14.9340   45.0930 O.3   502  GPP502     -0.4370
     15  O3A       45.4950   16.1820   46.1880 O.3   502  GPP502     -0.2261
     16  PB        45.9450   15.7750   47.6800 P.3   502  GPP502      0.5373
     17  O1B       46.6850   17.0750   48.2760 O.3   502  GPP502     -0.1143
     18  O2B       47.0690   14.6330   47.5320 O.2   502  GPP502     -0.2221
     19  O3B       44.8040   15.3380   48.5160 O.3   502  GPP502     -0.1143
@<TRIPOS>BOND
     1     5     4    1
     2     7     8    1
     3     7     6    1
     4     8     9    2
     5     4     6    1
     6     4     3    2
     7    11     9    1
     8     9    10    1
     9     1     3    1
    10     1     2    1
    11     2    12    1
    12    13    12    2
    13    12    14    1
    14    12    15    1
    15    15    16    1
    16    18    16    2
    17    16    17    1
    18    16    19    1
