@<TRIPOS>MOLECULE
4f88_III_K_1.pdb
 27 26 0 0 0
SMALL
GASTEIGER

@<TRIPOS>ATOM
      1  N         -7.0370   -1.3400  -21.9040 N.3     3  ILE3       -0.1231
      2  CA        -7.1860   -0.3400  -22.9550 C.3     3  ILE3        0.1694
      3  C         -6.6500    1.0270  -22.5140 C.2     3  ILE3        0.2592
      4  O         -7.2200    1.6560  -21.6180 O.2     3  ILE3       -0.2718
      5  CB        -8.6480   -0.2700  -23.4580 C.3     3  ILE3        0.0304
      6  N         -5.5420    1.4740  -23.1390 N.am    4  ASN4       -0.1966
      7  CA        -4.8920    2.7550  -22.8460 C.3     4  ASN4        0.1728
      8  C         -5.4180    3.8660  -23.7560 C.2     4  ASN4        0.2616
      9  O         -5.4880    3.6840  -24.9750 O.2     4  ASN4       -0.2715
     10  CB        -3.3710    2.6310  -22.9590 C.3     4  ASN4        0.0334
     11  N         -5.7950    5.0120  -23.1560 N.am    5  VAL5       -0.1963
     12  CA        -6.3360    6.1760  -23.8690 C.3     5  VAL5        0.1727
     13  C         -5.6490    7.4970  -23.4500 C.2     5  VAL5        0.2616
     14  O         -5.4180    7.7260  -22.2590 O.2     5  VAL5       -0.2715
     15  CB        -7.8970    6.2180  -23.8350 C.3     5  VAL5        0.0290
     16  CG1       -8.4440    6.4930  -22.4340 C.3     5  VAL5        0.0023
     17  CG2       -8.4670    7.2010  -24.8560 C.3     5  VAL5        0.0023
     18  N         -5.3010    8.3400  -24.4410 N.am    6  ASN6       -0.1963
     19  CA        -4.6450    9.6300  -24.2260 C.3     6  ASN6        0.1728
     20  C         -5.4200   10.7840  -24.8800 C.2     6  ASN6        0.2616
     21  O         -5.7520   11.7540  -24.1920 O.2     6  ASN6       -0.2715
     22  CB        -3.1940    9.5900  -24.7090 C.3     6  ASN6        0.0334
     23  N         -5.7070   10.6720  -26.2050 N.am    7  VAL7       -0.1977
     24  CA        -6.4470   11.6580  -27.0070 C.3     7  VAL7        0.1597
     25  C         -6.9940   11.0270  -28.2920 C.2     7  VAL7        0.2287
     26  O         -6.2310   10.5590  -29.1370 O.2     7  VAL7       -0.2864
     27  CB        -5.6180   12.9300  -27.3120 C.3     7  VAL7        0.0319
@<TRIPOS>BOND
     1    26    25    2
     2    25    24    1
     3    27    24    1
     4    24    23    1
     5    23    20   am
     6     9     8    2
     7    20    19    1
     8    20    21    2
     9    17    15    1
    10    22    19    1
    11    18    19    1
    12    18    13   am
    13    12    15    1
    14    12    13    1
    15    12    11    1
    16    15    16    1
    17     8    11   am
    18     8     7    1
    19     5     2    1
    20    13    14    2
    21     6     7    1
    22     6     3   am
    23    10     7    1
    24     2     3    1
    25     2     1    1
    26     3     4    2
