@<TRIPOS>MOLECULE
4f8b_GD1_B_1.pdb
 13 14 0 0 0
SMALL
GASTEIGER

@<TRIPOS>ATOM
      1  O6         1.8300   49.8300   20.7170 O.2   201  GD1201     -0.2120
      2  C6         2.0990   51.0850   21.1210 C.1   201  GD1201      0.2104
      3  C5         1.4120   52.2480   20.6760 C.3   201  GD1201      0.2412
      4  C7         0.3400   52.7100   19.8190 C.2   201  GD1201      0.0499
      5  C77       -0.6110   51.9850   18.9400 C.2   201  GD1201      0.1216
      6  N77       -0.4940   50.7650   18.7970 N.2   201  GD1201     -0.1466
      7  N1         3.1030   51.1680   22.0230 N.2   201  GD1201     -0.2525
      8  C2         3.5220   52.3360   22.5320 C.1   201  GD1201      0.2602
      9  N2         4.5630   52.3460   23.4030 N.pl3 201  GD1201     -0.0221
     10  N3         2.8970   53.4670   22.1640 N.2   201  GD1201     -0.2733
     11  C4         1.8760   53.4330   21.2600 C.1   201  GD1201      0.0977
     12  N9         1.1800   54.5210   20.7870 N.2   201  GD1201     -0.1843
     13  C8         0.2170   54.1000   19.9070 C.2   201  GD1201      0.1097
@<TRIPOS>BOND
     1     6     5    2
     2     5     4    1
     3     4    13    2
     4     4     3    1
     5    13    12    1
     6     3     2    1
     7     3    11    1
     8     1     2    2
     9    12    11    2
    10     2     7    2
    11    11    10    2
    12     7     8    2
    13    10     8    2
    14     8     9    1
