@<TRIPOS>MOLECULE
4f8h_LMD_A_1.pdb
 37 38 0 0 0
SMALL
GASTEIGER

@<TRIPOS>ATOM
      1  CBK       60.9860  -23.9590   48.0610 C.3   402  LMD402      0.0000
      2  CBJ       60.2350  -24.4890   46.8250 C.3   402  LMD402      0.0000
      3  CBI       59.0740  -23.5310   46.5100 C.3   402  LMD402      0.0000
      4  CBH       57.8410  -24.3730   46.1430 C.3   402  LMD402      0.0000
      5  CBG       56.6700  -23.4660   45.7080 C.3   402  LMD402      0.0000
      6  CBF       56.2720  -23.6890   44.2350 C.3   402  LMD402      0.0000
      7  CBE       54.7300  -23.7900   44.0740 C.3   402  LMD402      0.0000
      8  CBD       54.2950  -23.8490   42.5840 C.3   402  LMD402      0.0000
      9  CBC       52.8420  -24.3560   42.3780 C.3   402  LMD402      0.0000
     10  CBB       52.2150  -23.7200   41.1100 C.3   402  LMD402      0.0000
     11  CBA       50.8180  -24.2810   40.7460 C.3   402  LMD402      0.0001
     12  CAZ       50.7630  -24.6930   39.2520 C.3   402  LMD402      0.0026
     13  CAY       49.3260  -24.8520   38.6970 C.3   402  LMD402      0.0322
     14  CAX       48.6100  -23.4990   38.4830 C.3   402  LMD402      0.1449
     15  OAS       47.1810  -23.7150   38.3820 O.3   402  LMD402     -0.3286
     16  CAM       46.6430  -23.6030   37.0510 C.3   402  LMD402      0.2695
     17  CAN       47.3570  -22.6070   36.1130 C.3   402  LMD402      0.2404
     18  OAT       47.5900  -21.3440   36.7180 O.3   402  LMD402     -0.2149
     19  CAO       46.5100  -22.3420   34.8560 C.3   402  LMD402      0.2167
     20  OAU       47.3130  -21.5350   33.9990 O.3   402  LMD402     -0.2175
     21  OAV       46.4110  -24.8380   36.3300 O.3   402  LMD402     -0.3257
     22  CAQ       45.5810  -24.7580   35.1370 C.3   402  LMD402      0.1803
     23  CAR       45.5400  -26.1620   34.4590 C.3   402  LMD402      0.2141
     24  OAW       44.9150  -27.1490   35.2780 O.3   402  LMD402     -0.2176
     25  CAP       46.0910  -23.6620   34.1440 C.3   402  LMD402      0.1804
     26  O1        45.0500  -23.4320   33.1680 O.3   402  LMD402     -0.3257
     27  C1        45.2250  -22.2810   32.3220 C.3   402  LMD402      0.2695
     28  O5        45.9810  -22.6120   31.1260 O.3   402  LMD402     -0.3256
     29  C5        46.3940  -21.4660   30.3240 C.3   402  LMD402      0.1835
     30  C6        47.9180  -21.2190   30.4960 C.3   402  LMD402      0.2142
     31  O6        48.6770  -22.1980   29.7900 O.3   402  LMD402     -0.2176
     32  C4        45.5190  -20.2340   30.7040 C.3   402  LMD402      0.2144
     33  O4        45.6170  -19.1520   29.7880 O.3   402  LMD402     -0.2176
     34  C3        44.0390  -20.6990   30.7730 C.3   402  LMD402      0.2198
     35  O3        43.1630  -19.5840   30.7900 O.3   402  LMD402     -0.2174
     36  C2        43.8810  -21.5470   32.0550 C.3   402  LMD402      0.2406
     37  O2        42.7500  -22.4200   31.9940 O.3   402  LMD402     -0.2149
@<TRIPOS>BOND
     1    33    32    1
     2    31    30    1
     3    29    30    1
     4    29    32    1
     5    29    28    1
     6    32    34    1
     7    34    35    1
     8    34    36    1
     9    28    27    1
    10    37    36    1
    11    36    27    1
    12    27    26    1
    13    26    25    1
    14    20    19    1
    15    25    19    1
    16    25    22    1
    17    23    22    1
    18    23    24    1
    19    19    17    1
    20    22    21    1
    21    17    18    1
    22    17    16    1
    23    21    16    1
    24    16    15    1
    25    15    14    1
    26    14    13    1
    27    13    12    1
    28    12    11    1
    29    11    10    1
    30    10     9    1
    31     9     8    1
    32     8     7    1
    33     7     6    1
    34     6     5    1
    35     5     4    1
    36     4     3    1
    37     3     2    1
    38     2     1    1
