@<TRIPOS>MOLECULE
4f8h_RKE_A_1.pdb
 16 17 0 0 0
SMALL
GASTEIGER

@<TRIPOS>ATOM
      1  CAA       18.9420  -14.7160   22.4970 C.ar  401  RKE401     -0.0002
      2  CAB       19.2480  -16.0430   22.2610 C.ar  401  RKE401      0.0008
      3  CAC       18.3510  -14.3100   23.6900 C.ar  401  RKE401     -0.0017
      4  CAD       18.9590  -16.9600   23.2510 C.ar  401  RKE401      0.0111
      5  CAE       18.0410  -15.2350   24.6960 C.ar  401  RKE401      0.0091
      6  CAF       18.3710  -16.5810   24.4510 C.ar  401  RKE401      0.0553
      7  CAG       16.6390  -13.3660   25.7790 C.2   401  RKE401      0.1684
      8  CAH       15.2190  -13.5020   25.2770 C.3   401  RKE401      0.0663
      9  CAI       14.3820  -14.3170   26.3040 C.3   401  RKE401      0.0079
     10  CAJ       14.9370  -15.7550   26.3370 C.3   401  RKE401      0.0026
     11  CAK       16.4330  -15.7540   26.7590 C.3   401  RKE401      0.0274
     12  CAL       17.3780  -14.7130   26.0180 C.3   401  RKE401      0.1298
     13  CAM       18.1340  -14.1240   28.3500 C.3   401  RKE401      0.1082
     14  NAN       18.4440  -14.4290   26.9600 N.3   401  RKE401     -0.2081
     15  OAO       17.1450  -12.2810   25.9970 O.2   401  RKE401     -0.2943
     16 CLAP       18.0480  -17.9030   25.6710 Cl    401  RKE401     -0.0825
@<TRIPOS>BOND
     1     2     1   ar
     2     2     4   ar
     3     1     3   ar
     4     4     6   ar
     5     3     5   ar
     6     6     5   ar
     7     6    16    1
     8     5    12    1
     9     8     7    1
    10     8     9    1
    11     7    15    2
    12     7    12    1
    13    12    11    1
    14    12    14    1
    15     9    10    1
    16    10    11    1
    17    14    13    1
