@<TRIPOS>MOLECULE
4f8m_THP_A_1.pdb
 25 26 0 0 0
SMALL
GASTEIGER

@<TRIPOS>ATOM
      1  P2        18.0570   11.1200    4.7240 P.3   202  THP202      0.5327
      2  O4P       18.0250    9.6250    4.9830 O.2   202  THP202     -0.2224
      3  O5P       16.8310   11.8690    5.1930 O.3   202  THP202     -0.1145
      4  O6P       19.3150   11.8550    5.1590 O.3   202  THP202     -0.1145
      5  P1        21.2940   14.5510    0.8790 P.3   202  THP202      0.5326
      6  O1P       22.2310   15.1350   -0.1480 O.2   202  THP202     -0.2224
      7  O2P       21.9980   13.3660    1.5460 O.3   202  THP202     -0.1145
      8  O3P       20.6860   15.4440    1.8690 O.3   202  THP202     -0.1145
      9  O5'       18.0080   11.1610    3.1940 O.3   202  THP202     -0.2675
     10  C5'       17.9940   12.4210    2.4210 C.3   202  THP202      0.1857
     11  C4'       18.9470   12.3160    1.2710 C.3   202  THP202      0.1748
     12  O4'       18.5990   11.2280    0.4220 O.3   202  THP202     -0.3340
     13  C3'       18.8890   13.5620    0.3550 C.3   202  THP202      0.1600
     14  O3'       20.2430   13.8760   -0.1430 O.3   202  THP202     -0.2700
     15  C2'       18.0250   13.0920   -0.7870 C.3   202  THP202      0.0847
     16  C1'       18.2790   11.5440   -0.8690 C.3   202  THP202      0.2089
     17  N1        16.9610   10.9250   -1.2200 N.am  202  THP202     -0.1794
     18  C2        16.7030   10.6920   -2.5620 C.1   202  THP202      0.2844
     19  O2        17.5850   10.9410   -3.4450 O.2   202  THP202     -0.1918
     20  N3        15.5280   10.1770   -2.9930 N.2   202  THP202     -0.2455
     21  C4        14.5450    9.9290   -2.0900 C.1   202  THP202      0.2134
     22  O4        13.4720    9.4820   -2.5300 O.2   202  THP202     -0.2088
     23  C5        14.7890   10.1350   -0.6800 C.2   202  THP202      0.0891
     24  C5M       13.7030    9.8130    0.3540 C.3   202  THP202      0.0462
     25  C6        16.0200   10.6300   -0.2570 C.2   202  THP202      0.0877
@<TRIPOS>BOND
     1    19    18    2
     2    20    18    2
     3    20    21    2
     4    18    17   am
     5    22    21    2
     6    21    23    1
     7    17    16    1
     8    17    25    1
     9    16    15    1
    10    16    12    1
    11    15    13    1
    12    23    25    2
    13    23    24    1
    14     6     5    2
    15    14    13    1
    16    14     5    1
    17    13    11    1
    18    12    11    1
    19     5     7    1
    20     5     8    1
    21    11    10    1
    22    10     9    1
    23     9     1    1
    24     1     2    2
    25     1     4    1
    26     1     3    1
