@<TRIPOS>MOLECULE
4f8y_VK3_A_1.pdb
 13 14 0 0 0
SMALL
GASTEIGER

@<TRIPOS>ATOM
      1  C1K       23.5160   -7.6170   15.7760 C.ar  202  VK3202      0.1955
      2  O1K       23.1470   -6.2880   15.5910 O.3   202  VK3202     -0.2866
      3  C2K       22.9010   -8.3630   16.8980 C.ar  202  VK3202      0.0409
      4  C3K       23.2680   -9.6630   17.1250 C.ar  202  VK3202      0.0202
      5  C4K       24.2300  -10.2910   16.2880 C.ar  202  VK3202      0.1918
      6  O4K       24.6190  -11.6160   16.5430 O.3   202  VK3202     -0.2869
      7  C5K       24.8260   -9.5720   15.1990 C.ar  202  VK3202      0.0417
      8  C6K       25.7830  -10.1880   14.3530 C.ar  202  VK3202      0.0033
      9  C7K       26.3380   -9.4970   13.3120 C.ar  202  VK3202      0.0001
     10  C8K       25.9400   -8.0850   13.0730 C.ar  202  VK3202      0.0001
     11  C9K       25.0200   -7.4870   13.8880 C.ar  202  VK3202      0.0033
     12  C10       24.4380   -8.2050   14.9610 C.ar  202  VK3202      0.0420
     13  C11       22.6410  -10.4020   18.3010 C.3   202  VK3202      0.0345
@<TRIPOS>BOND
     1    10     9   ar
     2    10    11   ar
     3     9     8   ar
     4    11    12   ar
     5     8     7   ar
     6    12     7   ar
     7    12     1   ar
     8     7     5   ar
     9     2     1    1
    10     1     3   ar
    11     5     6    1
    12     5     4   ar
    13     3     4   ar
    14     4    13    1
