@<TRIPOS>MOLECULE
4f92_SAN_B_1.pdb
 11 11 0 0 0
SMALL
GASTEIGER

@<TRIPOS>ATOM
      1  C1       -44.2300  -13.2270  -22.1520 C.ar  2201  SAN2201     0.0892
      2  N1       -44.1590  -14.5850  -22.1490 N.pl3 2201  SAN2201    -0.1281
      3  C2       -45.1430  -12.5600  -21.3420 C.ar  2201  SAN2201     0.0194
      4  C3       -45.2110  -11.1680  -21.3540 C.ar  2201  SAN2201     0.0214
      5  C4       -44.3710  -10.4210  -22.1750 C.ar  2201  SAN2201     0.1251
      6  C5       -43.4600  -11.1010  -22.9770 C.ar  2201  SAN2201     0.0214
      7  C6       -43.3870  -12.4900  -22.9730 C.ar  2201  SAN2201     0.0194
      8  S        -44.4350   -8.8130  -22.2020 S.O2  2201  SAN2201     0.0935
      9  N2       -42.9570   -8.2210  -22.3890 N.3   2201  SAN2201     0.0392
     10  O1       -45.2540   -8.3550  -23.2860 O.2   2201  SAN2201    -0.1503
     11  O2       -44.9920   -8.3130  -20.9790 O.2   2201  SAN2201    -0.1503
@<TRIPOS>BOND
     1    10     8    2
     2     6     7   ar
     3     6     5   ar
     4     7     1   ar
     5     9     8    1
     6     8     5    1
     7     8    11    2
     8     5     4   ar
     9     1     2    1
    10     1     3   ar
    11     4     3   ar
