@<TRIPOS>MOLECULE
4f93_ATP_B_1.pdb
 31 33 0 0 0
SMALL
GASTEIGER

@<TRIPOS>ATOM
      1  PG       -68.1910  -19.6250  -43.2020 P.3   3002  ATP3002     0.5373
      2  O1G      -69.3770  -19.7420  -44.1410 O.2   3002  ATP3002    -0.2221
      3  O2G      -66.9750  -19.0140  -43.8310 O.3   3002  ATP3002    -0.1143
      4  O3G      -68.5380  -19.0650  -41.8330 O.3   3002  ATP3002    -0.1143
      5  PB       -67.8780  -22.3230  -43.9260 P.3   3002  ATP3002     0.2277
      6  O1B      -69.3590  -22.4610  -44.0920 O.2   3002  ATP3002    -0.5168
      7  O2B      -67.0680  -23.5010  -43.4630 O.3   3002  ATP3002    -0.4368
      8  O3B      -67.6730  -21.1240  -42.8850 O.3   3002  ATP3002    -0.2258
      9  PA       -68.0080  -21.6300  -46.6740 P.3   3002  ATP3002     0.2189
     10  O1A      -68.2100  -20.1730  -46.9920 O.2   3002  ATP3002    -0.5170
     11  O2A      -69.2330  -22.5010  -46.6960 O.3   3002  ATP3002    -0.4371
     12  O3A      -67.2010  -21.7690  -45.2820 O.3   3002  ATP3002    -0.2700
     13  O5'      -66.9720  -22.3080  -47.6980 O.3   3002  ATP3002    -0.3112
     14  C5'      -65.7080  -21.7360  -48.0120 C.3   3002  ATP3002     0.1813
     15  C4'      -65.4750  -21.7270  -49.5240 C.3   3002  ATP3002     0.1821
     16  O4'      -65.3250  -23.0490  -50.0520 O.3   3002  ATP3002    -0.3135
     17  C3'      -66.6610  -21.0710  -50.2150 C.3   3002  ATP3002     0.2184
     18  O3'      -66.2010  -19.9610  -50.9920 O.3   3002  ATP3002    -0.2174
     19  C2'      -67.2530  -22.1400  -51.1120 C.3   3002  ATP3002     0.2570
     20  O2'      -67.5510  -21.5870  -52.3940 O.3   3002  ATP3002    -0.2130
     21  C1'      -66.1710  -23.2040  -51.1990 C.3   3002  ATP3002     0.3186
     22  N9       -66.7490  -24.5700  -51.1960 N.pl3 3002  ATP3002    -0.1439
     23  C8       -67.8920  -24.9630  -50.5930 C.3   3002  ATP3002     0.3377
     24  N7       -68.1110  -26.2880  -50.7870 N.2   3002  ATP3002    -0.2095
     25  C5       -67.0940  -26.7540  -51.5360 C.2   3002  ATP3002     0.2526
     26  C6       -66.7010  -28.0590  -52.1110 C.2   3002  ATP3002     0.4393
     27  N6       -67.4710  -29.1550  -51.9090 N.pl3 3002  ATP3002     0.2180
     28  N1       -65.5580  -28.1180  -52.8390 N.2   3002  ATP3002     0.0021
     29  C2       -64.7870  -27.0330  -53.0440 C.3   3002  ATP3002     0.5254
     30  N3       -65.0850  -25.8180  -52.5520 N.2   3002  ATP3002    -0.0055
     31  C4       -66.2020  -25.6200  -51.8080 C.2   3002  ATP3002     0.3518
@<TRIPOS>BOND
     1    29    28    1
     2    29    30    1
     3    28    26    2
     4    30    31    2
     5    20    19    1
     6    26    27    1
     7    26    25    1
     8    31    25    1
     9    31    22    1
    10    25    24    2
    11    21    22    1
    12    21    19    1
    13    21    16    1
    14    22    23    1
    15    19    17    1
    16    18    17    1
    17    24    23    1
    18    17    15    1
    19    16    15    1
    20    15    14    1
    21    14    13    1
    22    13     9    1
    23    10     9    2
    24    11     9    1
    25     9    12    1
    26    12     5    1
    27     2     1    2
    28     6     5    2
    29     5     7    1
    30     5     8    1
    31     3     1    1
    32     1     8    1
    33     1     4    1
