@<TRIPOS>MOLECULE
4f93_ADP_B_1.pdb
 27 29 0 0 0
SMALL
GASTEIGER

@<TRIPOS>ATOM
      1  PB       -13.3180   21.9870  -35.6020 P.3   3001  ADP3001     0.5373
      2  O1B      -12.4270   22.3190  -36.7750 O.2   3001  ADP3001    -0.2221
      3  O2B      -12.7390   22.3140  -34.2470 O.3   3001  ADP3001    -0.1143
      4  O3B      -13.9260   20.6060  -35.6840 O.3   3001  ADP3001    -0.1143
      5  PA       -14.9790   24.1840  -34.7620 P.3   3001  ADP3001     0.2231
      6  O1A      -14.9710   23.6770  -33.3400 O.3   3001  ADP3001    -0.4370
      7  O2A      -16.2270   24.8320  -35.3140 O.2   3001  ADP3001    -0.5169
      8  O3A      -14.5840   22.9800  -35.7710 O.3   3001  ADP3001    -0.2261
      9  O5'      -13.8220   25.2980  -34.9250 O.3   3001  ADP3001    -0.3111
     10  C5'      -13.0250   25.7430  -33.8240 C.3   3001  ADP3001     0.1813
     11  C4'      -13.2990   27.2130  -33.4920 C.3   3001  ADP3001     0.1821
     12  O4'      -13.3140   28.0610  -34.6500 O.3   3001  ADP3001    -0.3135
     13  C3'      -14.6520   27.3780  -32.8140 C.3   3001  ADP3001     0.2184
     14  O3'      -14.4610   27.8230  -31.4690 O.3   3001  ADP3001    -0.2174
     15  C2'      -15.3900   28.4400  -33.6030 C.3   3001  ADP3001     0.2570
     16  O2'      -15.9890   29.3910  -32.7190 O.3   3001  ADP3001    -0.2130
     17  C1'      -14.3170   29.0750  -34.4770 C.3   3001  ADP3001     0.3186
     18  N9       -14.8870   29.5780  -35.7640 N.pl3 3001  ADP3001    -0.1439
     19  C8       -15.3000   28.8350  -36.8110 C.3   3001  ADP3001     0.3377
     20  N7       -15.7680   29.6180  -37.8200 N.2   3001  ADP3001    -0.2095
     21  C5       -15.6620   30.8990  -37.4210 C.2   3001  ADP3001     0.2526
     22  C6       -15.9720   32.2320  -37.9940 C.2   3001  ADP3001     0.4393
     23  N6       -16.5040   32.3610  -39.2310 N.pl3 3001  ADP3001     0.2180
     24  N1       -15.7060   33.3220  -37.2430 N.2   3001  ADP3001     0.0021
     25  C2       -15.1750   33.2180  -36.0120 C.3   3001  ADP3001     0.5254
     26  N3       -14.8690   32.0440  -35.4300 N.2   3001  ADP3001    -0.0055
     27  C4       -15.0840   30.8670  -36.0680 C.2   3001  ADP3001     0.3518
@<TRIPOS>BOND
     1    23    22    1
     2    22    21    1
     3    22    24    2
     4    20    21    2
     5    20    19    1
     6    21    27    1
     7    24    25    1
     8    19    18    1
     9     2     1    2
    10    27    18    1
    11    27    26    2
    12    25    26    1
    13     8     1    1
    14     8     5    1
    15    18    17    1
    16     4     1    1
    17     1     3    1
    18     7     5    2
    19     9     5    1
    20     9    10    1
    21     5     6    1
    22    12    17    1
    23    12    11    1
    24    17    15    1
    25    10    11    1
    26    15    13    1
    27    15    16    1
    28    11    13    1
    29    13    14    1
