@<TRIPOS>MOLECULE
4f93_SAN_B_1.pdb
 11 11 0 0 0
SMALL
GASTEIGER

@<TRIPOS>ATOM
      1  C1       -40.6220   -7.7180  -21.9170 C.ar  3004  SAN3004     0.0892
      2  N1       -39.3610   -7.2610  -21.7090 N.pl3 3004  SAN3004    -0.1281
      3  C2       -41.6040   -6.8770  -22.4510 C.ar  3004  SAN3004     0.0194
      4  C3       -42.9010   -7.3570  -22.6580 C.ar  3004  SAN3004     0.0214
      5  C4       -43.2210   -8.6790  -22.3340 C.ar  3004  SAN3004     0.1251
      6  C5       -42.2350   -9.5110  -21.7990 C.ar  3004  SAN3004     0.0214
      7  C6       -40.9390   -9.0370  -21.5930 C.ar  3004  SAN3004     0.0194
      8  S        -44.6990   -9.2550  -22.5610 S.O2  3004  SAN3004     0.0935
      9  N2       -44.7080  -10.8290  -22.2420 N.3   3004  SAN3004     0.0392
     10  O1       -45.6250   -8.5650  -21.7080 O.2   3004  SAN3004    -0.1503
     11  O2       -45.1170   -9.0410  -23.9140 O.2   3004  SAN3004    -0.1503
@<TRIPOS>BOND
     1    11     8    2
     2     4     3   ar
     3     4     5   ar
     4     8     5    1
     5     8     9    1
     6     8    10    2
     7     3     1   ar
     8     5     6   ar
     9     1     2    1
    10     1     7   ar
    11     6     7   ar
