@<TRIPOS>MOLECULE
4f96_GDP_A_1.pdb
 28 30 0 0 0
SMALL
GASTEIGER

@<TRIPOS>ATOM
      1  PB        -9.5690    3.7570  -41.2230 P.3   501  GDP501      0.5373
      2  O1B      -10.5420    4.6190  -41.9670 O.2   501  GDP501     -0.2221
      3  O2B       -8.1480    3.8720  -41.6840 O.3   501  GDP501     -0.1143
      4  O3B       -9.7160    3.8160  -39.7310 O.3   501  GDP501     -0.1143
      5  O3A       -9.9610    2.2420  -41.5980 O.3   501  GDP501     -0.2261
      6  PA       -10.8530    1.8190  -42.8690 P.3   501  GDP501      0.2231
      7  O1A      -10.5010    0.4050  -43.2290 O.2   501  GDP501     -0.5169
      8  O2A      -12.2890    2.1510  -42.5890 O.3   501  GDP501     -0.4370
      9  O5'      -10.3600    2.7940  -44.0430 O.3   501  GDP501     -0.3111
     10  C5'       -9.1290    2.5890  -44.7230 C.3   501  GDP501      0.1813
     11  C4'       -9.2660    3.1220  -46.1420 C.3   501  GDP501      0.1799
     12  O4'       -7.9890    3.5050  -46.6500 O.3   501  GDP501     -0.3326
     13  C3'       -9.7960    2.0520  -47.0710 C.3   501  GDP501      0.2158
     14  O3'      -10.7070    2.6660  -47.9800 O.3   501  GDP501     -0.2175
     15  C2'       -8.5790    1.5580  -47.8200 C.3   501  GDP501      0.2310
     16  O2'       -8.9150    1.1520  -49.1420 O.3   501  GDP501     -0.2158
     17  C1'       -7.6880    2.7820  -47.8430 C.3   501  GDP501      0.2293
     18  N9        -6.2530    2.4230  -47.8750 N.pl3 501  GDP501     -0.2354
     19  C8        -5.7210    1.1980  -47.7460 C.3   501  GDP501      0.2246
     20  N7        -4.3710    1.2500  -47.8250 N.2   501  GDP501     -0.2322
     21  C5        -4.0230    2.5330  -48.0100 C.2   501  GDP501      0.2182
     22  C6        -2.7660    3.2950  -48.1780 C.1   501  GDP501      0.2372
     23  O6        -1.6610    2.7250  -48.1630 O.2   501  GDP501     -0.2069
     24  N1        -2.8520    4.6160  -48.3430 N.2   501  GDP501     -0.2485
     25  C2        -4.0260    5.2670  -48.3620 C.1   501  GDP501      0.2531
     26  N2        -4.0290    6.6080  -48.5350 N.pl3 501  GDP501     -0.0226
     27  N3        -5.2120    4.6340  -48.2180 N.2   501  GDP501     -0.3074
     28  C4        -5.2690    3.2990  -48.0420 C.2   501  GDP501      0.2300
@<TRIPOS>BOND
     1    16    15    1
     2    26    25    1
     3    25    24    2
     4    25    27    2
     5    24    22    2
     6    27    28    2
     7    22    23    2
     8    22    21    1
     9    28    21    1
    10    28    18    1
    11    21    20    2
    12    14    13    1
    13    18    17    1
    14    18    19    1
    15    17    15    1
    16    17    12    1
    17    20    19    1
    18    15    13    1
    19    13    11    1
    20    12    11    1
    21    11    10    1
    22    10     9    1
    23     9     6    1
    24     7     6    2
    25     6     8    1
    26     6     5    1
    27     2     1    2
    28     3     1    1
    29     5     1    1
    30     1     4    1
