@<TRIPOS>MOLECULE
4f97_VDO_A_1.pdb
 27 28 0 0 0
SMALL
GASTEIGER

@<TRIPOS>ATOM
      1  OAY        5.9820   -9.8070    1.4470 O.3   502  VDO502     -0.1145
      2  PBA        7.3900  -10.0710    0.9830 P.3   502  VDO502      0.5326
      3  OAZ        8.0850  -11.1750    1.7380 O.3   502  VDO502     -0.1145
      4  OAX        7.5480  -10.1290   -0.5140 O.2   502  VDO502     -0.2224
      5  OAW        8.1960   -8.7440    1.4010 O.3   502  VDO502     -0.2702
      6  CAG        8.8780   -7.9670    0.4210 C.3   502  VDO502      0.1563
      7  CAF       10.3500   -7.8560    0.7960 C.3   502  VDO502      0.0648
      8  CAV       10.5070   -6.8080    1.8920 C.3   502  VDO502      0.0252
      9  CAE       10.8880   -9.2080    1.2370 C.3   502  VDO502      0.1871
     10  OAU       10.8140  -10.1300    0.1470 O.3   502  VDO502     -0.2202
     11  CAC       12.3340   -9.0970    1.6930 C.3   502  VDO502      0.2136
     12  OAP       12.7750  -10.3830    2.1380 O.3   502  VDO502     -0.2176
     13  CAB       12.4700   -8.0880    2.8260 C.3   502  VDO502      0.2005
     14  OAO       13.8440   -7.9810    3.2070 O.3   502  VDO502     -0.2188
     15  CAA       11.9310   -6.7140    2.4310 C.3   502  VDO502      0.1063
     16  NAN       12.8080   -6.0430    1.4840 N.3   502  VDO502     -0.2111
     17  CAM       14.1450   -5.6370    1.8910 C.3   502  VDO502      0.1272
     18  CAL       15.0820   -5.5670    0.7010 C.2   502  VDO502     -0.0100
     19  CAJ       14.1160   -4.3500    2.7290 C.3   502  VDO502      0.2049
     20  OAT       12.8190   -4.1800    3.3130 O.3   502  VDO502     -0.2184
     21  CAI       14.4640   -3.0810    1.9580 C.3   502  VDO502      0.2179
     22  OAS       14.5980   -1.9980    2.8830 O.3   502  VDO502     -0.2172
     23  CAH       15.7690   -3.2260    1.1870 C.3   502  VDO502      0.2053
     24  OAR       15.9400   -2.0800    0.3460 O.3   502  VDO502     -0.2157
     25  CAK       15.7650   -4.4680    0.3460 C.2   502  VDO502      0.0180
     26  CAD       16.5630   -4.4810   -0.9370 C.3   502  VDO502      0.2066
     27  OAQ       16.8700   -5.8260   -1.3120 O.3   502  VDO502     -0.2155
@<TRIPOS>BOND
     1    27    26    1
     2    26    25    1
     3     4     2    2
     4    10     9    1
     5    25    18    2
     6    25    23    1
     7    24    23    1
     8     6     7    1
     9     6     5    1
    10    18    17    1
    11     7     9    1
    12     7     8    1
    13     2     5    1
    14     2     1    1
    15     2     3    1
    16    23    21    1
    17     9    11    1
    18    16    17    1
    19    16    15    1
    20    11    12    1
    21    11    13    1
    22    17    19    1
    23     8    15    1
    24    21    19    1
    25    21    22    1
    26    15    13    1
    27    19    20    1
    28    13    14    1
