@<TRIPOS>MOLECULE
4f97_GDP_A_1.pdb
 28 30 0 0 0
SMALL
GASTEIGER

@<TRIPOS>ATOM
      1  PB        11.0130   -2.9860    0.1720 P.3   501  GDP501      0.5373
      2  O1B        9.6000   -3.1930   -0.2790 O.2   501  GDP501     -0.2221
      3  O2B       10.9750   -2.9010    1.7170 O.3   501  GDP501     -0.1143
      4  O3B       12.0520   -4.0080   -0.1480 O.3   501  GDP501     -0.1143
      5  O3A       11.4130   -1.4990   -0.2960 O.3   501  GDP501     -0.2261
      6  PA        12.3930   -1.0080   -1.4630 P.3   501  GDP501      0.2231
      7  O1A       12.0530    0.4490   -1.6390 O.2   501  GDP501     -0.5169
      8  O2A       13.8650   -1.2650   -1.2680 O.3   501  GDP501     -0.4370
      9  O5'       11.9050   -1.9300   -2.6950 O.3   501  GDP501     -0.3111
     10  C5'       10.7360   -1.6650   -3.4340 C.3   501  GDP501      0.1813
     11  C4'       10.9310   -2.3020   -4.8130 C.3   501  GDP501      0.1799
     12  O4'        9.6790   -2.6860   -5.3710 O.3   501  GDP501     -0.3326
     13  C3'       11.4990   -1.2920   -5.7770 C.3   501  GDP501      0.2158
     14  O3'       12.3700   -1.9880   -6.6690 O.3   501  GDP501     -0.2175
     15  C2'       10.2750   -0.7100   -6.4560 C.3   501  GDP501      0.2310
     16  O2'       10.5280   -0.1030   -7.7270 O.3   501  GDP501     -0.2158
     17  C1'        9.4100   -1.9530   -6.5630 C.3   501  GDP501      0.2293
     18  N9         7.9820   -1.5840   -6.7270 N.pl3 501  GDP501     -0.2354
     19  C8         7.4330   -0.3580   -6.6720 C.3   501  GDP501      0.2246
     20  N7         6.1010   -0.4420   -6.9030 N.2   501  GDP501     -0.2322
     21  C5         5.7760   -1.7310   -7.0960 C.2   501  GDP501      0.2182
     22  C6         4.5550   -2.5070   -7.3760 C.1   501  GDP501      0.2372
     23  O6         3.4390   -1.9530   -7.4810 O.2   501  GDP501     -0.2069
     24  N1         4.6590   -3.8300   -7.4640 N.2   501  GDP501     -0.2485
     25  C2         5.8290   -4.4790   -7.3580 C.1   501  GDP501      0.2531
     26  N2         5.8830   -5.8310   -7.5010 N.pl3 501  GDP501     -0.0226
     27  N3         6.9950   -3.8170   -7.1240 N.2   501  GDP501     -0.3074
     28  C4         7.0170   -2.4780   -6.9690 C.2   501  GDP501      0.2300
@<TRIPOS>BOND
     1    16    15    1
     2    26    25    1
     3    23    22    2
     4    24    22    2
     5    24    25    2
     6    22    21    1
     7    25    27    2
     8    27    28    2
     9    21    28    1
    10    21    20    2
    11    28    18    1
    12    20    19    1
    13    18    19    1
    14    18    17    1
    15    14    13    1
    16    17    15    1
    17    17    12    1
    18    15    13    1
    19    13    11    1
    20    12    11    1
    21    11    10    1
    22    10     9    1
    23     9     6    1
    24     7     6    2
    25     6     8    1
    26     6     5    1
    27     5     1    1
    28     2     1    2
    29     4     1    1
    30     1     3    1
