@<TRIPOS>MOLECULE
4f99_ADP_A_1.pdb
 27 29 0 0 0
SMALL
GASTEIGER

@<TRIPOS>ATOM
      1  PB        13.6410   21.1750   58.8970 P.3   601  ADP601      0.5373
      2  O1B       13.8720   21.3800   57.4210 O.2   601  ADP601     -0.2221
      3  O2B       13.9490   22.4500   59.6660 O.3   601  ADP601     -0.1143
      4  O3B       12.3530   20.5060   59.3270 O.3   601  ADP601     -0.1143
      5  PA        16.1430   19.7310   58.7570 P.3   601  ADP601      0.2231
      6  O1A       16.4610   18.3240   59.2290 O.3   601  ADP601     -0.4370
      7  O2A       16.1490   19.9810   57.2680 O.2   601  ADP601     -0.5169
      8  O3A       14.7150   20.0840   59.3960 O.3   601  ADP601     -0.2261
      9  O5'       17.1400   20.7630   59.4670 O.3   601  ADP601     -0.3111
     10  C5'       17.0470   22.1730   59.2140 C.3   601  ADP601      0.1813
     11  C4'       18.4200   22.7490   58.9310 C.3   601  ADP601      0.1821
     12  O4'       19.3220   22.5370   60.0310 O.3   601  ADP601     -0.3135
     13  C3'       19.0660   22.0570   57.7580 C.3   601  ADP601      0.2184
     14  O3'       18.6360   22.6010   56.5100 O.3   601  ADP601     -0.2174
     15  C2'       20.5510   22.2420   58.0490 C.3   601  ADP601      0.2570
     16  O2'       21.0140   23.5140   57.6200 O.3   601  ADP601     -0.2130
     17  C1'       20.6270   22.2050   59.5620 C.3   601  ADP601      0.3186
     18  N9        20.9900   20.8110   59.9070 N.pl3 601  ADP601     -0.1439
     19  C8        20.1330   19.7670   60.0850 C.3   601  ADP601      0.3377
     20  N7        20.8230   18.6240   60.3640 N.2   601  ADP601     -0.2095
     21  C5        22.1330   18.9130   60.3490 C.2   601  ADP601      0.2526
     22  C6        23.4030   18.1730   60.5730 C.2   601  ADP601      0.4393
     23  N6        23.4000   16.8520   60.8690 N.pl3 601  ADP601      0.2180
     24  N1        24.5670   18.8710   60.4700 N.2   601  ADP601      0.0021
     25  C2        24.5700   20.1910   60.1780 C.3   601  ADP601      0.5254
     26  N3        23.4550   20.9180   59.9840 N.2   601  ADP601     -0.0055
     27  C4        22.2380   20.3580   60.0530 C.2   601  ADP601      0.3518
@<TRIPOS>BOND
     1    14    13    1
     2     7     5    2
     3     2     1    2
     4    16    15    1
     5    13    15    1
     6    13    11    1
     7    15    17    1
     8     5     6    1
     9     5     8    1
    10     5     9    1
    11     1     4    1
    12     1     8    1
    13     1     3    1
    14    11    10    1
    15    11    12    1
    16    10     9    1
    17    17    18    1
    18    17    12    1
    19    18    27    1
    20    18    19    1
    21    26    27    2
    22    26    25    1
    23    27    21    1
    24    19    20    1
    25    25    24    1
    26    21    20    2
    27    21    22    1
    28    24    22    2
    29    22    23    1
