@<TRIPOS>MOLECULE
4f9a_ADP_A_1.pdb
 27 29 0 0 0
SMALL
GASTEIGER

@<TRIPOS>ATOM
      1  PB        10.7550   18.4420   29.4290 P.3   601  ADP601      0.5373
      2  O1B       11.0680   18.3240   27.9540 O.2   601  ADP601     -0.2221
      3  O2B       11.9760   18.0590   30.2490 O.3   601  ADP601     -0.1143
      4  O3B       10.0420   19.7070   29.8260 O.3   601  ADP601     -0.1143
      5  PA         9.2600   15.9550   29.2300 P.3   601  ADP601      0.2231
      6  O1A        7.8320   15.6140   29.6300 O.3   601  ADP601     -0.4370
      7  O2A        9.5900   15.9120   27.7410 O.2   601  ADP601     -0.5169
      8  O3A        9.6550   17.3510   29.8780 O.3   601  ADP601     -0.2261
      9  O5'       10.1860   14.8670   29.9790 O.3   601  ADP601     -0.3111
     10  C5'       11.6110   14.9290   29.9100 C.3   601  ADP601      0.1813
     11  C4'       12.2230   13.5760   29.5460 C.3   601  ADP601      0.1821
     12  O4'       12.0330   12.6040   30.5740 O.3   601  ADP601     -0.3135
     13  C3'       11.6480   12.9430   28.2980 C.3   601  ADP601      0.2184
     14  O3'       12.1920   13.5160   27.1120 O.3   601  ADP601     -0.2174
     15  C2'       11.8940   11.4520   28.5200 C.3   601  ADP601      0.2570
     16  O2'       13.1510   11.0290   28.0650 O.3   601  ADP601     -0.2130
     17  C1'       11.8610   11.2860   30.0370 C.3   601  ADP601      0.3186
     18  N9        10.4650   10.8940   30.3320 N.pl3 601  ADP601     -0.1439
     19  C8         9.4450   11.7770   30.4240 C.3   601  ADP601      0.3377
     20  N7         8.2830   11.1270   30.6810 N.2   601  ADP601     -0.2095
     21  C5         8.5620    9.8200   30.7540 C.2   601  ADP601      0.2526
     22  C6         7.7690    8.6170   30.9850 C.2   601  ADP601      0.4393
     23  N6         6.4450    8.7420   31.2210 N.pl3 601  ADP601      0.2180
     24  N1         8.4080    7.4210   30.9900 N.2   601  ADP601      0.0021
     25  C2         9.7370    7.3630   30.7710 C.3   601  ADP601      0.5254
     26  N3        10.5180    8.4440   30.5390 N.2   601  ADP601     -0.0055
     27  C4         9.9920    9.6680   30.5260 C.2   601  ADP601      0.3518
@<TRIPOS>BOND
     1    14    13    1
     2     7     5    2
     3     2     1    2
     4    16    15    1
     5    13    15    1
     6    13    11    1
     7    15    17    1
     8     5     6    1
     9     5     8    1
    10     5     9    1
    11     1     4    1
    12     1     8    1
    13     1     3    1
    14    11    10    1
    15    11    12    1
    16    10     9    1
    17    17    18    1
    18    17    12    1
    19    18    19    1
    20    18    27    1
    21    19    20    1
    22    27    26    2
    23    27    21    1
    24    26    25    1
    25    20    21    2
    26    21    22    1
    27    25    24    1
    28    22    24    2
    29    22    23    1
