@<TRIPOS>MOLECULE
4f9b_0SY_A_1.pdb
 16 18 0 0 0
SMALL
GASTEIGER

@<TRIPOS>ATOM
      1  CAF        7.6460   12.0950   30.2480 C.2   601  0SY601      0.0463
      2  CAO        8.1720   13.2370   29.7890 C.2   601  0SY601      0.1152
      3  CAL        7.6700   14.4700   29.7100 C.1   601  0SY601      0.1571
      4  OAA        6.5360   14.6870   30.1060 O.2   601  0SY601     -0.2218
      5  NAJ        8.3980   15.5510   29.1650 N.2   601  0SY601     -0.1745
      6  CAG        9.7790   15.3290   28.6390 C.2   601  0SY601      0.1137
      7  CAH       10.2450   13.8600   28.6860 C.2   601  0SY601      0.0543
      8  CAP        9.3890   12.9240   29.3240 C.2   601  0SY601      0.1439
      9  NAK        9.6300   11.6190   29.4850 N.2   601  0SY601     -0.4011
     10  CAN        8.5560   11.1160   30.1010 C.2   601  0SY601      0.1323
     11  CAM        8.3490    9.8160   30.4260 C.ar  601  0SY601      0.0327
     12  CAD        7.1050    9.3610   30.8630 C.ar  601  0SY601      0.0232
     13  CAB        6.8840    8.0120   31.1700 C.ar  601  0SY601      0.0990
     14  NAI        7.9140    7.0670   31.0180 N.ar  601  0SY601     -0.2423
     15  CAC        9.1820    7.5300   30.5840 C.ar  601  0SY601      0.0990
     16  CAE        9.3830    8.8850   30.3000 C.ar  601  0SY601      0.0232
@<TRIPOS>BOND
     1     6     7    2
     2     6     5    1
     3     7     8    1
     4     5     3    2
     5     8     9    2
     6     8     2    1
     7     9    10    2
     8     3     2    1
     9     3     4    2
    10     2     1    2
    11    10     1    1
    12    10    11    1
    13    16    11   ar
    14    16    15   ar
    15    11    12   ar
    16    15    14   ar
    17    12    13   ar
    18    14    13   ar
