@<TRIPOS>MOLECULE
4f9c_0SX_A_1.pdb
 20 23 0 0 0
SMALL
GASTEIGER

@<TRIPOS>ATOM
      1  CAH       17.3090   21.3980   58.9660 C.3   601  0SX601      0.0363
      2  CAF       15.8710   21.0670   59.3380 C.3   601  0SX601      0.0215
      3  CAG       15.2690   20.5870   58.0040 C.3   601  0SX601      0.0900
      4  NAJ       16.3610   19.7920   57.3970 N.3   601  0SX601     -0.2028
      5  CAT       17.6580   20.3160   57.9470 C.3   601  0SX601      0.1819
      6  CAN       18.3800   19.2590   58.5190 C.1   601  0SX601      0.1409
      7  NAI       19.7030   19.3240   58.8060 N.2   601  0SX601     -0.3411
      8  CAR       20.3520   18.2540   59.3390 C.2   601  0SX601      0.1811
      9  CAQ       21.6250   18.0610   59.7120 C.ar  601  0SX601      0.0659
     10  CAE       22.7180   18.8490   59.6950 C.ar  601  0SX601      0.0168
     11  CAM       23.9500   18.3570   60.1520 C.ar  601  0SX601      0.0579
     12 CL         25.4130   19.3720   60.1230 Cl    601  0SX601     -0.0822
     13  CAC       24.0310   17.0460   60.6250 C.ar  601  0SX601      0.0145
     14  CAD       22.8550   16.2800   60.6290 C.ar  601  0SX601      0.0379
     15  CAP       21.7110   16.7970   60.1680 C.ar  601  0SX601      0.1428
     16  OAL       20.4880   16.2650   60.0680 O.3   601  0SX601     -0.4558
     17  CAS       19.6770   17.1060   59.5870 C.3   601  0SX601      0.3358
     18  CAO       18.3640   16.9830   59.3190 C.1   601  0SX601      0.2379
     19  OAA       17.7340   15.9310   59.5330 O.2   601  0SX601     -0.2093
     20  NAK       17.6930   18.0700   58.7790 N.2   601  0SX601     -0.2699
@<TRIPOS>BOND
     1     4     5    1
     2     4     3    1
     3     5     6    1
     4     5     1    1
     5     3     2    1
     6     6    20    2
     7     6     7    2
     8    20    18    2
     9     7     8    2
    10     1     2    1
    11    18    19    2
    12    18    17    1
    13     8    17    1
    14     8     9    1
    15    17    16    1
    16    10     9   ar
    17    10    11   ar
    18     9    15   ar
    19    16    15    1
    20    12    11    1
    21    11    13   ar
    22    15    14   ar
    23    13    14   ar
