@<TRIPOS>MOLECULE
4f9f_TRE_A_1.pdb
 23 24 0 0 0
SMALL
GASTEIGER

@<TRIPOS>ATOM
      1  C1       -34.6240   -3.1460   -7.1060 C.3   502  TRE502      0.2713
      2  C2       -35.7510   -3.4920   -7.9930 C.3   502  TRE502      0.2406
      3  C3       -36.3480   -4.7550   -7.5950 C.3   502  TRE502      0.2198
      4  C4       -35.3450   -5.8360   -7.6150 C.3   502  TRE502      0.2144
      5  C5       -34.1870   -5.5060   -6.7090 C.3   502  TRE502      0.1835
      6  C6       -33.1850   -6.5530   -6.7930 C.3   502  TRE502      0.2142
      7  O1       -35.0930   -2.8790   -5.8580 O.3   502  TRE502     -0.3016
      8  O2       -36.7480   -2.4660   -7.9300 O.3   502  TRE502     -0.2149
      9  O3       -37.4260   -5.0650   -8.4650 O.3   502  TRE502     -0.2174
     10  O4       -35.9410   -7.0500   -7.1920 O.3   502  TRE502     -0.2176
     11  O5       -33.6080   -4.2560   -7.0290 O.3   502  TRE502     -0.3256
     12  O6       -33.6100   -7.8590   -6.6150 O.3   502  TRE502     -0.2176
     13  C1P      -34.4430   -1.7650   -5.3620 C.3   502  TRE502      0.2713
     14  C2P      -34.7440   -1.5780   -3.8830 C.3   502  TRE502      0.2406
     15  C3P      -35.9530   -0.8130   -3.5790 C.3   502  TRE502      0.2198
     16  C4P      -36.1740    0.3340   -4.4090 C.3   502  TRE502      0.2144
     17  C5P      -36.0730   -0.0280   -5.8500 C.3   502  TRE502      0.1835
     18  C6P      -36.2530    1.1280   -6.7340 C.3   502  TRE502      0.2142
     19  O2P      -34.7990   -2.8300   -3.2710 O.3   502  TRE502     -0.2149
     20  O3P      -35.8960   -0.3480   -2.1640 O.3   502  TRE502     -0.2174
     21  O4P      -37.4480    0.9240   -4.1150 O.3   502  TRE502     -0.2176
     22  O5P      -34.7720   -0.6620   -6.1610 O.3   502  TRE502     -0.3256
     23  O6P      -35.6870    1.0180   -8.0390 O.3   502  TRE502     -0.2176
@<TRIPOS>BOND
     1     9     3    1
     2    23    18    1
     3     2     8    1
     4     2     3    1
     5     2     1    1
     6     4     3    1
     7     4    10    1
     8     4     5    1
     9     1    11    1
    10     1     7    1
    11    11     5    1
    12     6     5    1
    13     6    12    1
    14    18    17    1
    15    22    17    1
    16    22    13    1
    17     7    13    1
    18    17    16    1
    19    13    14    1
    20    16    21    1
    21    16    15    1
    22    14    15    1
    23    14    19    1
    24    15    20    1
