@<TRIPOS>MOLECULE
4f9f_GDP_A_1.pdb
 28 30 0 0 0
SMALL
GASTEIGER

@<TRIPOS>ATOM
      1  PB       -38.5220   -3.5470   -6.1170 P.3   501  GDP501      0.5373
      2  O1B      -38.9550   -2.5700   -7.1830 O.2   501  GDP501     -0.2221
      3  O2B      -39.3640   -4.7960   -6.0350 O.3   501  GDP501     -0.1143
      4  O3B      -37.0330   -3.7970   -6.0810 O.3   501  GDP501     -0.1143
      5  O3A      -38.8270   -2.7840   -4.7320 O.3   501  GDP501     -0.2261
      6  PA       -40.1400   -1.8680   -4.5590 P.3   501  GDP501      0.2231
      7  O1A      -39.6970   -0.4440   -4.3280 O.2   501  GDP501     -0.5169
      8  O2A      -41.0560   -2.5400   -3.5660 O.3   501  GDP501     -0.4370
      9  O5'      -40.8320   -1.9440   -6.0100 O.3   501  GDP501     -0.3111
     10  C5'      -42.2330   -2.1750   -6.1300 C.3   501  GDP501      0.1813
     11  C4'      -42.7160   -1.7100   -7.4970 C.3   501  GDP501      0.1799
     12  O4'      -42.8560   -2.8360   -8.3670 O.3   501  GDP501     -0.3326
     13  C3'      -44.0750   -1.0340   -7.3990 C.3   501  GDP501      0.2158
     14  O3'      -43.9970    0.3010   -7.9050 O.3   501  GDP501     -0.2175
     15  C2'      -45.0160   -1.8520   -8.2570 C.3   501  GDP501      0.2310
     16  O2'      -45.6950   -1.0040   -9.1860 O.3   501  GDP501     -0.2158
     17  C1'      -44.1400   -2.8490   -8.9970 C.3   501  GDP501      0.2293
     18  N9       -44.7410   -4.2040   -8.9250 N.pl3 501  GDP501     -0.2354
     19  C8       -45.6130   -4.6300   -7.9930 C.3   501  GDP501      0.2246
     20  N7       -45.9740   -5.9200   -8.2150 N.2   501  GDP501     -0.2322
     21  C5       -45.3220   -6.3380   -9.3140 C.2   501  GDP501      0.2182
     22  C6       -45.2460   -7.5930  -10.0980 C.1   501  GDP501      0.2372
     23  O6       -45.9050   -8.6010   -9.7650 O.2   501  GDP501     -0.2069
     24  N1       -44.4500   -7.6140  -11.1740 N.2   501  GDP501     -0.2485
     25  C2       -43.7290   -6.5430  -11.5560 C.1   501  GDP501      0.2531
     26  N2       -42.9480   -6.6470  -12.6580 N.pl3 501  GDP501     -0.0226
     27  N3       -43.7500   -5.3630  -10.8850 N.2   501  GDP501     -0.3074
     28  C4       -44.5120   -5.2040   -9.7790 C.2   501  GDP501      0.2300
@<TRIPOS>BOND
     1    26    25    1
     2    25    24    2
     3    25    27    2
     4    24    22    2
     5    27    28    2
     6    22    23    2
     7    22    21    1
     8    28    21    1
     9    28    18    1
    10    21    20    2
    11    16    15    1
    12    17    18    1
    13    17    12    1
    14    17    15    1
    15    18    19    1
    16    12    11    1
    17    15    13    1
    18    20    19    1
    19    14    13    1
    20    11    13    1
    21    11    10    1
    22     2     1    2
    23    10     9    1
    24     1     4    1
    25     1     3    1
    26     1     5    1
    27     9     6    1
    28     5     6    1
    29     6     7    2
    30     6     8    1
