@<TRIPOS>MOLECULE
4f9g_C2E_A_1.pdb
 46 52 0 0 0
SMALL
GASTEIGER

@<TRIPOS>ATOM
      1  P1        12.8350    7.7190   12.5880 P.3   401  C2E401      0.2141
      2  O2P       11.7720    6.6180   12.8120 O.3   401  C2E401     -0.4373
      3  O1P       13.5100    7.4720   11.1790 O.2   401  C2E401     -0.5172
      4  O5'       13.9000    7.5670   13.7820 O.3   401  C2E401     -0.3114
      5  C5'       13.6280    7.7150   15.0910 C.3   401  C2E401      0.1812
      6  C4'       14.8330    7.6180   15.9230 C.3   401  C2E401      0.1771
      7  O4'       15.6400    6.6120   15.4300 O.3   401  C2E401     -0.3327
      8  C3'       15.7090    8.7640   15.7610 C.3   401  C2E401      0.1857
      9  O3'       15.2580    9.9090   16.4240 O.3   401  C2E401     -0.3112
     10  C2'       16.9300    8.2950   16.2740 C.3   401  C2E401      0.2282
     11  O2'       16.9050    8.3300   17.6770 O.3   401  C2E401     -0.2159
     12  C1'       16.9650    6.9000   15.7960 C.3   401  C2E401      0.2292
     13  N9        17.7860    6.6490   14.6130 N.pl3 401  C2E401     -0.2354
     14  C8        17.2940    6.7150   13.3720 C.3   401  C2E401      0.2246
     15  N7        18.2590    6.4250   12.4850 N.2   401  C2E401     -0.2322
     16  C5        19.3980    6.1730   13.1420 C.2   401  C2E401      0.2182
     17  C6        20.6920    5.8180   12.7130 C.1   401  C2E401      0.2372
     18  O6        20.9730    5.6950   11.3960 O.2   401  C2E401     -0.2069
     19  N1        21.6210    5.6060   13.6710 N.2   401  C2E401     -0.2485
     20  C2        21.3380    5.7230   14.9890 C.1   401  C2E401      0.2531
     21  N2        22.3850    5.4730   15.9240 N.pl3 401  C2E401     -0.0226
     22  N3        20.1040    6.0670   15.4200 N.2   401  C2E401     -0.3074
     23  C4        19.1070    6.3040   14.5160 C.2   401  C2E401      0.2300
     24  P11       15.4590   11.2850   15.7000 P.3   401  C2E401      0.2141
     25  O21       15.6650   12.2470   16.7720 O.3   401  C2E401     -0.4373
     26  O11       16.7530   11.2520   14.7740 O.2   401  C2E401     -0.5172
     27  O5A       14.1660   11.8450   14.8980 O.3   401  C2E401     -0.3114
     28  C5A       13.0310   11.1320   14.5090 C.3   401  C2E401      0.1812
     29  C4A       12.5460   11.3470   13.1510 C.3   401  C2E401      0.1771
     30  O4A       13.2680   12.3780   12.4980 O.3   401  C2E401     -0.3327
     31  C3A       12.8470   10.2610   12.2530 C.3   401  C2E401      0.1857
     32  O3A       12.0740    9.0840   12.5450 O.3   401  C2E401     -0.3112
     33  C2A       12.4550   10.8340   11.0280 C.3   401  C2E401      0.2282
     34  O2A       11.0740   10.8730   11.0110 O.3   401  C2E401     -0.2159
     35  C1A       13.0130   12.2260   11.1430 C.3   401  C2E401      0.2292
     36  N91       14.2760   12.4970   10.4460 N.pl3 401  C2E401     -0.2354
     37  C81       15.4650   12.4830   11.0800 C.3   401  C2E401      0.2246
     38  N71       16.4590   12.7790   10.2200 N.2   401  C2E401     -0.2322
     39  C51       15.9090   12.9900    8.9940 C.2   401  C2E401      0.2182
     40  C61       16.4660   13.3300    7.7520 C.1   401  C2E401      0.2372
     41  O61       17.7530   13.4970    7.5970 O.2   401  C2E401     -0.2069
     42  N11       15.6410   13.4840    6.7150 N.2   401  C2E401     -0.2485
     43  C21       14.3060   13.3290    6.8660 C.1   401  C2E401      0.2531
     44  N21       13.5020   13.5320    5.7100 N.pl3 401  C2E401     -0.0226
     45  N31       13.7440   13.0040    8.0490 N.2   401  C2E401     -0.3074
     46  C41       14.5090   12.8200    9.1340 C.2   401  C2E401      0.2300
@<TRIPOS>BOND
     1    44    43    1
     2    42    43    2
     3    42    40    2
     4    43    45    2
     5    41    40    2
     6    40    39    1
     7    45    46    2
     8    39    46    1
     9    39    38    2
    10    46    36    1
    11    38    37    1
    12    36    37    1
    13    36    35    1
    14    34    33    1
    15    33    35    1
    16    33    31    1
    17    35    30    1
    18     3     1    2
    19    18    17    2
    20    31    32    1
    21    31    29    1
    22    15    16    2
    23    15    14    1
    24    30    29    1
    25    32     1    1
    26     1     2    1
    27     1     4    1
    28    17    16    1
    29    17    19    2
    30    16    23    1
    31    29    28    1
    32    14    13    1
    33    19    20    2
    34     4     5    1
    35    28    27    1
    36    23    13    1
    37    23    22    2
    38    13    12    1
    39    26    24    2
    40    27    24    1
    41    20    22    2
    42    20    21    1
    43     5     6    1
    44     7    12    1
    45     7     6    1
    46    24     9    1
    47    24    25    1
    48     8     6    1
    49     8    10    1
    50     8     9    1
    51    12    10    1
    52    10    11    1
