@<TRIPOS>MOLECULE
4f9m_FCM_A_1.pdb
 39 43 0 0 0
SMALL
GASTEIGER

@<TRIPOS>ATOM
      1  C1        16.4150   50.3770   64.2020 C.2   501  FCM501      0.1045
      2  C2        16.9040   50.9890   62.9480 C.2   501  FCM501      0.1823
      3  C3        16.6710   50.3030   61.6670 C.3   501  FCM501      0.1135
      4  C4        15.8630   49.0690   61.6400 C.3   501  FCM501      0.1841
      5  C5        15.6960   48.2350   62.9130 C.3   501  FCM501      0.1173
      6  C6        15.5750   49.1560   64.1490 C.2   501  FCM501      0.1851
      7  O7        15.1830   48.3820   60.7000 O.3   501  FCM501     -0.4779
      8  C8        14.1980   47.6050   61.2810 C.ar  501  FCM501      0.1453
      9  C9        14.4260   47.4580   62.6590 C.ar  501  FCM501      0.0607
     10  C10       13.0960   47.0010   60.6900 C.ar  501  FCM501      0.1226
     11  C11       12.2090   46.2470   61.4660 C.ar  501  FCM501      0.1492
     12  C12       12.4380   46.1060   62.8330 C.ar  501  FCM501      0.0789
     13  C13       13.5390   46.7070   63.4260 C.ar  501  FCM501      0.1982
     14  O14       14.8560   48.8780   65.0990 O.2   501  FCM501     -0.2907
     15  C15       16.7570   50.9780   65.5140 C.2   501  FCM501      0.1790
     16  C16       18.1390   51.6170   65.6780 C.3   501  FCM501      0.0775
     17  O17       15.9460   50.9470   66.4340 O.2   501  FCM501     -0.2911
     18  O18       17.5580   52.1710   62.9700 O.2   501  FCM501     -0.2910
     19  C19       16.8930   47.2990   63.0820 C.3   501  FCM501      0.0160
     20  O20       13.7540   46.5550   64.7790 O.3   501  FCM501     -0.2867
     21  C21       12.8780   47.1630   59.2440 C.2   501  FCM501      0.2710
     22  O22       13.7890   47.2300   58.4280 O.2   501  FCM501     -0.2681
     23  N23       11.5860   47.2260   58.8790 N.am  501  FCM501     -0.1966
     24  C24       11.2420   47.3760   57.4760 C.3   501  FCM501      0.1415
     25  C25        9.8070   47.8050   57.3420 C.ar  501  FCM501     -0.0044
     26  C26        9.4800   49.1400   57.0420 C.ar  501  FCM501     -0.0222
     27  C27        8.1350   49.5460   56.9200 C.ar  501  FCM501      0.0251
     28  C28        7.1040   48.6180   57.1000 C.ar  501  FCM501      0.1397
     29  C29        7.3790   47.3080   57.3940 C.ar  501  FCM501      0.0272
     30  C30        8.7850   46.8800   57.5210 C.ar  501  FCM501     -0.0004
     31  C31        6.3610   46.3970   57.5710 C.ar  501  FCM501      0.0022
     32  C32        6.6730   45.0640   57.8710 C.ar  501  FCM501      0.0001
     33  C33        8.0140   44.6490   57.9920 C.ar  501  FCM501     -0.0000
     34  C34        9.0680   45.5620   57.8170 C.ar  501  FCM501     -0.0002
     35  O35       11.1060   45.6380   60.8710 O.3   501  FCM501     -0.4711
     36  C36       10.0570   45.5270   61.8080 C.3   501  FCM501      0.2525
     37  C37       10.5420   50.1810   56.8370 C.3   501  FCM501      0.0262
     38  F38        5.8560   49.0810   56.9710 F     501  FCM501     -0.2042
     39  C39       10.9690   50.2610   55.3720 C.3   501  FCM501      0.0050
@<TRIPOS>BOND
     1    39    37    1
     2    37    26    1
     3    27    26   ar
     4    27    28   ar
     5    38    28    1
     6    26    25   ar
     7    28    29   ar
     8    25    24    1
     9    25    30   ar
    10    29    30   ar
    11    29    31   ar
    12    24    23    1
    13    30    34   ar
    14    31    32   ar
    15    34    33   ar
    16    32    33   ar
    17    22    21    2
    18    23    21   am
    19    21    10    1
    20    10     8   ar
    21    10    11   ar
    22     7     8    1
    23     7     4    1
    24    35    11    1
    25    35    36    1
    26     8     9   ar
    27    11    12   ar
    28     4     3    1
    29     4     5    1
    30     3     2    1
    31     9     5    1
    32     9    13   ar
    33    12    13   ar
    34     5    19    1
    35     5     6    1
    36     2    18    1
    37     2     1    2
    38    13    20    1
    39     6     1    1
    40     6    14    2
    41     1    15    1
    42    15    16    1
    43    15    17    2
