@<TRIPOS>MOLECULE
4f9n_MY6_A_1.pdb
 12 13 0 0 0
SMALL
GASTEIGER

@<TRIPOS>ATOM
      1  C1        21.5700    8.0050    9.2000 C.3   303  MY6303      0.0933
      2  N2        23.0110    4.8650    7.8130 N.2   303  MY6303     -0.1926
      3  C3        22.5690    6.1830    7.7530 C.3   303  MY6303      0.2142
      4  N4        22.1180    6.6130    8.9780 N.3   303  MY6303     -0.2241
      5  C5        22.2460    5.5220    9.8550 C.3   303  MY6303      0.2777
      6  C6        21.9790    5.3100   11.2910 C.1   303  MY6303      0.2219
      7  O7        21.4230    6.2550   12.1420 O.2   303  MY6303     -0.2109
      8  N8        22.2740    4.0350   11.8350 N.2   303  MY6303     -0.2515
      9  C9        22.8420    2.9750   11.0620 C.1   303  MY6303      0.2603
     10  N10       23.1330    1.7460   11.6240 N.pl3 303  MY6303     -0.0221
     11  N11       23.1160    3.1840    9.6800 N.2   303  MY6303     -0.2725
     12  C12       22.8270    4.4470    9.1110 C.1   303  MY6303      0.1063
@<TRIPOS>BOND
     1     3     2    1
     2     3     4    1
     3     2    12    2
     4     4     1    1
     5     4     5    1
     6    12    11    2
     7    12     5    1
     8    11     9    2
     9     5     6    1
    10     9    10    1
    11     9     8    2
    12     6     8    2
    13     6     7    2
