@<TRIPOS>MOLECULE
4f9u_MAN_B_1.pdb
 11 11 0 0 0
SMALL
GASTEIGER

@<TRIPOS>ATOM
      1  C1       -13.0440  -28.0900  -17.3230 C.3   409  MAN409      0.1777
      2  C2       -12.0700  -26.9250  -17.4680 C.3   409  MAN409      0.2141
      3  C3       -10.6300  -27.4250  -17.5230 C.3   409  MAN409      0.2173
      4  C4       -10.3140  -28.3060  -16.3150 C.3   409  MAN409      0.2142
      5  C5       -11.4260  -29.3320  -16.0500 C.3   409  MAN409      0.1810
      6  C6       -11.2410  -29.9620  -14.6690 C.3   409  MAN409      0.2141
      7  O2       -12.2120  -26.1040  -16.3380 O.3   409  MAN409     -0.2176
      8  O3        -9.7210  -26.3440  -17.5610 O.3   409  MAN409     -0.2175
      9  O4        -9.0890  -28.9780  -16.5380 O.3   409  MAN409     -0.2176
     10  O5       -12.7240  -28.7570  -16.1120 O.3   409  MAN409     -0.3481
     11  O6       -11.4710  -28.9870  -13.6670 O.3   409  MAN409     -0.2176
@<TRIPOS>BOND
     1     8     3    1
     2     3     2    1
     3     3     4    1
     4     2     1    1
     5     2     7    1
     6     1    10    1
     7     9     4    1
     8     4     5    1
     9    10     5    1
    10     5     6    1
    11     6    11    1
