@<TRIPOS>MOLECULE
4f9u_PBD_A_1.pdb
 22 23 0 0 0
SMALL
GASTEIGER

@<TRIPOS>ATOM
      1  CAA      -56.1110   17.3550  -33.2130 C.3   402  PBD402      0.2526
      2  CAB      -53.7000   18.4270  -38.2180 C.3   402  PBD402      0.2526
      3  SAC      -53.4900   25.2120  -36.2130 S.2   402  PBD402     -0.0152
      4  CAD      -48.0070   22.0530  -30.2420 C.ar  402  PBD402      0.1193
      5  CAE      -55.3370   21.2470  -34.3410 C.ar  402  PBD402      0.0199
      6  CAF      -55.5800   19.9170  -33.9900 C.ar  402  PBD402      0.0414
      7  CAG      -48.4610   22.7620  -31.2980 C.ar  402  PBD402      0.0980
      8  CAH      -49.7690   23.1480  -29.6010 C.ar  402  PBD402      0.1786
      9  CAI      -54.4440   20.4820  -36.4590 C.ar  402  PBD402      0.0566
     10  CAJ      -51.3320   23.5750  -32.5710 C.3   402  PBD402      0.0479
     11  CAK      -52.3190   24.4320  -33.3850 C.3   402  PBD402      0.1162
     12  CAL      -50.3670   24.3660  -31.6690 C.3   402  PBD402      0.1095
     13  NAM      -48.8170   22.3170  -29.2200 N.ar  402  PBD402     -0.2223
     14  NAN      -53.2000   23.4810  -34.1210 N.am  402  PBD402     -0.2164
     15  NAO      -54.4960   22.7730  -35.9920 N.am  402  PBD402     -0.1905
     16  OAP      -55.4980   17.5480  -34.5180 O.3   402  PBD402     -0.4684
     17  OAQ      -54.3740   18.1000  -36.9830 O.3   402  PBD402     -0.4683
     18  CAR      -53.7070   23.6750  -35.3540 C.2   402  PBD402      0.1745
     19  CAS      -54.7610   21.5290  -35.5820 C.ar  402  PBD402      0.0756
     20  CAT      -55.2590   18.8600  -34.8670 C.ar  402  PBD402      0.1725
     21  CAU      -54.6840   19.1410  -36.1250 C.ar  402  PBD402      0.1737
     22  NAV      -49.5300   23.4440  -30.8740 N.ar  402  PBD402     -0.3078
@<TRIPOS>BOND
     1     2    17    1
     2    17    21    1
     3     9    21   ar
     4     9    19   ar
     5     3    18    2
     6    21    20   ar
     7    15    19    1
     8    15    18    1
     9    19     5   ar
    10    18    14    1
    11    20    16    1
    12    20     6   ar
    13    16     1    1
    14     5     6   ar
    15    14    11    1
    16    11    10    1
    17    10    12    1
    18    12    22    1
    19     7    22   ar
    20     7     4   ar
    21    22     8   ar
    22     4    13   ar
    23     8    13   ar
