@<TRIPOS>MOLECULE
4f9v_PBD_A_1.pdb
 22 23 0 0 0
SMALL
GASTEIGER

@<TRIPOS>ATOM
      1  CAA       10.6100  138.7110  -18.9940 C.3   402  PBD402      0.2526
      2  CAB       15.7020  136.9410  -18.3690 C.3   402  PBD402      0.2526
      3  SAC       14.6340  136.8130  -11.3040 S.2   402  PBD402     -0.0152
      4  CAD        8.0210  131.5800  -14.1040 C.ar  402  PBD402      0.1193
      5  CAE       12.2100  138.4820  -15.0550 C.ar  402  PBD402      0.0199
      6  CAF       11.6730  138.5980  -16.3500 C.ar  402  PBD402      0.0414
      7  CAG        9.2110  131.9000  -13.5210 C.ar  402  PBD402      0.0980
      8  CAH        7.7020  133.2020  -12.6720 C.ar  402  PBD402      0.1786
      9  CAI       14.2280  137.5480  -16.0430 C.ar  402  PBD402      0.0566
     10  CAJ       10.8980  134.4090  -12.7100 C.3   402  PBD402      0.0479
     11  CAK       11.7890  135.3760  -11.9200 C.3   402  PBD402      0.1162
     12  CAL       10.0340  133.5180  -11.8160 C.3   402  PBD402      0.1095
     13  NAM        7.0860  132.4030  -13.5640 N.ar  402  PBD402     -0.2223
     14  NAN       12.4700  136.2820  -12.8650 N.am  402  PBD402     -0.2164
     15  NAO       14.1200  137.7560  -13.6840 N.am  402  PBD402     -0.1905
     16  OAP       11.9750  138.2940  -18.7630 O.3   402  PBD402     -0.4684
     17  OAQ       14.3320  137.3420  -18.4550 O.3   402  PBD402     -0.4683
     18  CAR       13.6530  136.9510  -12.7090 C.2   402  PBD402      0.1745
     19  CAS       13.4950  137.9490  -14.9220 C.ar  402  PBD402      0.0756
     20  CAT       12.4260  138.1980  -17.4610 C.ar  402  PBD402      0.1725
     21  CAU       13.6770  137.6810  -17.3080 C.ar  402  PBD402      0.1737
     22  NAV        8.9970  132.8810  -12.6340 N.ar  402  PBD402     -0.3078
@<TRIPOS>BOND
     1     1    16    1
     2    16    20    1
     3    17     2    1
     4    17    21    1
     5    20    21   ar
     6    20     6   ar
     7    21     9   ar
     8     6     5   ar
     9     9    19   ar
    10     5    19   ar
    11    19    15    1
    12     4    13   ar
    13     4     7   ar
    14    15    18    1
    15    13     8   ar
    16     7    22   ar
    17    14    18    1
    18    14    11    1
    19    10    11    1
    20    10    12    1
    21    18     3    2
    22     8    22   ar
    23    22    12    1
