@<TRIPOS>MOLECULE
4fa1_HEC_A_1.pdb
 43 50 0 0 0
SMALL
GASTEIGER

@<TRIPOS>ATOM
      1 FE         25.7640   29.7550  -84.7160 Fe    402  HEC402      0.0000
      2  CHA       25.6600   30.5100  -81.3930 C.2   402  HEC402      0.0000
      3  CHB       22.8930   31.6030  -85.2370 C.2   402  HEC402      0.0000
      4  CHC       26.4270   29.7270  -88.0870 C.2   402  HEC402      0.0000
      5  CHD       28.0590   27.2840  -84.1870 C.2   402  HEC402      0.0000
      6  NA        24.4720   30.8750  -83.5010 N.ar  402  HEC402      0.0000
      7  C1A       24.5520   31.0670  -82.1840 C.ar  402  HEC402      0.0000
      8  C2A       23.4270   31.8640  -81.6200 C.ar  402  HEC402      0.0000
      9  C3A       22.6520   32.2000  -82.7070 C.ar  402  HEC402      0.0000
     10  C4A       23.3570   31.5560  -83.8500 C.ar  402  HEC402      0.0000
     11  CMA       21.3660   33.0010  -82.6930 C.3   402  HEC402      0.0000
     12  CAA       23.1610   32.2440  -80.1810 C.3   402  HEC402      0.0000
     13  CBA       22.2000   31.1830  -79.5980 C.3   402  HEC402      0.0000
     14  CGA       22.1500   31.3300  -78.0600 C.2   402  HEC402      0.0000
     15  O1A       21.2860   30.7120  -77.4370 O.co2 402  HEC402      0.0000
     16  O2A       22.9760   32.0540  -77.4270 O.co2 402  HEC402      0.0000
     17  NB        24.8000   30.5190  -86.3940 N.2   402  HEC402      0.0000
     18  C1B       23.7210   31.3160  -86.4240 C.2   402  HEC402      0.0000
     19  C2B       23.4380   31.8480  -87.7860 C.2   402  HEC402      0.0000
     20  C3B       24.4460   31.3370  -88.5970 C.2   402  HEC402      0.0000
     21  C4B       25.2300   30.4930  -87.6790 C.2   402  HEC402      0.0000
     22  CMB       22.3160   32.7840  -88.1510 C.3   402  HEC402      0.0000
     23  CAB       24.6650   31.5380  -90.0780 C.3   402  HEC402      0.0000
     24  CBB       24.9670   32.9940  -90.3630 C.3   402  HEC402      0.0000
     25  NC        27.0590   28.6730  -85.9180 N.ar  402  HEC402      0.0000
     26  C1C       27.1540   28.7410  -87.2650 C.ar  402  HEC402      0.0000
     27  C2C       28.0800   27.7610  -87.8590 C.ar  402  HEC402      0.0000
     28  C3C       28.5610   27.0500  -86.7550 C.ar  402  HEC402      0.0000
     29  C4C       27.8730   27.6720  -85.5880 C.ar  402  HEC402      0.0000
     30  CMC       28.3530   27.6260  -89.3360 C.3   402  HEC402      0.0000
     31  CAC       29.5350   25.8930  -86.7050 C.3   402  HEC402      0.0000
     32  CBC       30.9070   26.2730  -87.2170 C.3   402  HEC402      0.0000
     33  ND        26.6970   28.9800  -83.0430 N.2   402  HEC402      0.0000
     34  C1D       27.6820   28.0880  -82.9890 C.2   402  HEC402      0.0000
     35  C2D       28.3350   27.9960  -81.6550 C.2   402  HEC402      0.0000
     36  C3D       27.6600   28.9390  -80.8870 C.2   402  HEC402      0.0000
     37  C4D       26.6450   29.4870  -81.8080 C.2   402  HEC402      0.0000
     38  CMD       29.4950   27.1480  -81.2270 C.3   402  HEC402      0.0000
     39  CAD       27.8690   29.3090  -79.4420 C.3   402  HEC402      0.0000
     40  CBD       29.1540   30.0740  -79.4170 C.3   402  HEC402      0.0000
     41  CGD       29.2560   31.0410  -78.2770 C.2   402  HEC402      0.0000
     42  O1D       30.1850   31.8870  -78.3480 O.co2 402  HEC402      0.0000
     43  O2D       28.4560   30.9600  -77.3090 O.co2 402  HEC402      0.0000
@<TRIPOS>BOND
     1    24    23    1
     2    23    20    1
     3    30    27    1
     4    20    19    2
     5    20    21    1
     6    22    19    1
     7     4    21    2
     8     4    26    1
     9    27    26   ar
    10    27    28   ar
    11    19    18    1
    12    21    17    1
    13    26    25   ar
    14    32    31    1
    15    28    31    1
    16    28    29   ar
    17    18    17    2
    18    18     3    1
    19    17     1    1
    20    25    29   ar
    21    25     1    1
    22    29     5    1
    23     3    10    2
    24     1     6    1
    25     1    33    1
    26     5    34    2
    27    10     6   ar
    28    10     9   ar
    29     6     7   ar
    30    33    34    1
    31    33    37    2
    32    34    35    1
    33     9    11    1
    34     9     8   ar
    35     7     8   ar
    36     7     2    2
    37    37     2    1
    38    37    36    1
    39    35    38    1
    40    35    36    2
    41     8    12    1
    42    36    39    1
    43    12    13    1
    44    13    14    1
    45    39    40    1
    46    40    41    1
    47    42    41   ar
    48    41    43   ar
    49    14    15   ar
    50    14    16   ar
