@<TRIPOS>MOLECULE
4fa3_0SL_A_1.pdb
 22 24 0 0 0
SMALL
GASTEIGER

@<TRIPOS>ATOM
      1  CAK       -2.9650    6.8480   15.2530 C.ar  402  0SL402      0.0199
      2  CAS       -3.3930    8.1460   14.9070 C.ar  402  0SL402      0.0013
      3  CAI       -2.4750    9.1550   14.7280 C.ar  402  0SL402      0.0000
      4  CAF       -2.9320   10.4410   14.3750 C.ar  402  0SL402      0.0000
      5  CAE       -4.2870   10.7410   14.1720 C.ar  402  0SL402      0.0000
      6  CAH       -5.2220    9.7230   14.3430 C.ar  402  0SL402      0.0000
      7  CAR       -4.7600    8.4430   14.7070 C.ar  402  0SL402      0.0001
      8  CAJ       -5.7090    7.4530   14.8560 C.ar  402  0SL402      0.0014
      9  CAG       -5.3000    6.1800   15.2190 C.ar  402  0SL402      0.0199
     10  CAQ       -3.9500    5.9000   15.4370 C.ar  402  0SL402      0.1222
     11  SAV       -3.6390    4.3160   15.8300 S.O2  402  0SL402      0.0633
     12  OAB       -4.9290    3.8020   16.3440 O.2   402  0SL402     -0.1528
     13  OAC       -2.4940    4.3390   16.8000 O.2   402  0SL402     -0.1528
     14  NAU       -3.4000    3.6510   14.2770 N.3   402  0SL402     -0.1550
     15  CAO       -1.9610    3.3510   14.0480 C.3   402  0SL402      0.1070
     16  CAN       -4.4330    2.6500   13.9330 C.3   402  0SL402      0.0958
     17  CAL       -4.2490    2.0270   12.5270 C.3   402  0SL402      0.0198
     18  CAM       -2.8420    2.1290   12.0000 C.3   402  0SL402      0.0142
     19  CAT       -1.8030    2.1700   13.1280 C.3   402  0SL402      0.1211
     20  CAP       -0.3740    2.1780   12.5640 C.2   402  0SL402      0.3657
     21  OAD       -0.2450    1.7140   11.4060 O.co2 402  0SL402     -0.2456
     22  OAA        0.5580    2.5430   13.3560 O.co2 402  0SL402     -0.2456
@<TRIPOS>BOND
     1    21    20   ar
     2    18    17    1
     3    18    19    1
     4    17    16    1
     5    20    19    1
     6    20    22   ar
     7    19    15    1
     8    16    14    1
     9    15    14    1
    10     5     6   ar
    11     5     4   ar
    12    14    11    1
    13     6     7   ar
    14     4     3   ar
    15     7     8   ar
    16     7     2   ar
    17     3     2   ar
    18     8     9   ar
    19     2     1   ar
    20     9    10   ar
    21     1    10   ar
    22    10    11    1
    23    11    12    2
    24    11    13    2
