@<TRIPOS>MOLECULE
4fa4_HEC_A_1.pdb
 43 50 0 0 0
SMALL
GASTEIGER

@<TRIPOS>ATOM
      1 FE         25.5670   29.5560  -84.6630 Fe    402  HEC402      0.0000
      2  CHA       25.4850   30.2370  -81.3270 C.2   402  HEC402      0.0000
      3  CHB       22.8780   31.5620  -85.2110 C.2   402  HEC402      0.0000
      4  CHC       26.1830   29.4490  -88.0980 C.2   402  HEC402      0.0000
      5  CHD       27.8480   27.1370  -84.1190 C.2   402  HEC402      0.0000
      6  NA        24.3750   30.7390  -83.4550 N.ar  402  HEC402      0.0000
      7  C1A       24.4140   30.8510  -82.1260 C.ar  402  HEC402      0.0000
      8  C2A       23.3000   31.6590  -81.5580 C.ar  402  HEC402      0.0000
      9  C3A       22.5900   32.0560  -82.6850 C.ar  402  HEC402      0.0000
     10  C4A       23.3160   31.4520  -83.8260 C.ar  402  HEC402      0.0000
     11  CMA       21.3330   32.8450  -82.7370 C.3   402  HEC402      0.0000
     12  CAA       22.9950   31.9770  -80.1030 C.3   402  HEC402      0.0000
     13  CBA       22.1190   30.8090  -79.5800 C.3   402  HEC402      0.0000
     14  CGA       21.9480   31.0360  -78.0770 C.2   402  HEC402      0.0000
     15  O1A       21.0490   30.4610  -77.4540 O.co2 402  HEC402      0.0000
     16  O2A       22.7260   31.8270  -77.4810 O.co2 402  HEC402      0.0000
     17  NB        24.6630   30.3440  -86.3770 N.2   402  HEC402      0.0000
     18  C1B       23.6370   31.2130  -86.4080 C.2   402  HEC402      0.0000
     19  C2B       23.3310   31.8000  -87.7320 C.2   402  HEC402      0.0000
     20  C3B       24.2860   31.2060  -88.5580 C.2   402  HEC402      0.0000
     21  C4B       25.0770   30.3240  -87.6620 C.2   402  HEC402      0.0000
     22  CMB       22.2220   32.8090  -88.0010 C.3   402  HEC402      0.0000
     23  CAB       24.4950   31.4240  -90.0290 C.3   402  HEC402      0.0000
     24  CBB       25.0170   32.8130  -90.3140 C.3   402  HEC402      0.0000
     25  NC        26.8180   28.4450  -85.8940 N.ar  402  HEC402      0.0000
     26  C1C       26.9150   28.4850  -87.2290 C.ar  402  HEC402      0.0000
     27  C2C       27.8680   27.4830  -87.7540 C.ar  402  HEC402      0.0000
     28  C3C       28.3650   26.8210  -86.6340 C.ar  402  HEC402      0.0000
     29  C4C       27.6650   27.4970  -85.5260 C.ar  402  HEC402      0.0000
     30  CMC       28.1640   27.2530  -89.2100 C.3   402  HEC402      0.0000
     31  CAC       29.3670   25.6730  -86.4950 C.3   402  HEC402      0.0000
     32  CBC       30.7140   25.9780  -87.1300 C.3   402  HEC402      0.0000
     33  ND        26.4960   28.7730  -82.9770 N.2   402  HEC402      0.0000
     34  C1D       27.5000   27.9410  -82.9380 C.2   402  HEC402      0.0000
     35  C2D       28.2020   27.8410  -81.6340 C.2   402  HEC402      0.0000
     36  C3D       27.5300   28.7440  -80.8600 C.2   402  HEC402      0.0000
     37  C4D       26.5000   29.2690  -81.7600 C.2   402  HEC402      0.0000
     38  CMD       29.4050   26.9960  -81.3190 C.3   402  HEC402      0.0000
     39  CAD       27.7390   29.1770  -79.4270 C.3   402  HEC402      0.0000
     40  CBD       28.9440   30.0830  -79.5050 C.3   402  HEC402      0.0000
     41  CGD       29.1570   30.8900  -78.2480 C.2   402  HEC402      0.0000
     42  O1D       30.1590   31.6550  -78.2270 O.co2 402  HEC402      0.0000
     43  O2D       28.3650   30.7920  -77.2720 O.co2 402  HEC402      0.0000
@<TRIPOS>BOND
     1    24    23    1
     2    23    20    1
     3    30    27    1
     4    20    19    2
     5    20    21    1
     6     4    21    2
     7     4    26    1
     8    22    19    1
     9    27    26   ar
    10    27    28   ar
    11    19    18    1
    12    21    17    1
    13    26    25   ar
    14    32    31    1
    15    28    31    1
    16    28    29   ar
    17    18    17    2
    18    18     3    1
    19    17     1    1
    20    25    29   ar
    21    25     1    1
    22    29     5    1
    23     3    10    2
    24     1     6    1
    25     1    33    1
    26     5    34    2
    27    10     6   ar
    28    10     9   ar
    29     6     7   ar
    30    33    34    1
    31    33    37    2
    32    34    35    1
    33    11     9    1
    34     9     8   ar
    35     7     8   ar
    36     7     2    2
    37    37     2    1
    38    37    36    1
    39    35    38    1
    40    35    36    2
    41     8    12    1
    42    36    39    1
    43    12    13    1
    44    13    14    1
    45    40    39    1
    46    40    41    1
    47    41    42   ar
    48    41    43   ar
    49    14    16   ar
    50    14    15   ar
