@<TRIPOS>MOLECULE
4fa5_HEC_A_1.pdb
 43 50 0 0 0
SMALL
GASTEIGER

@<TRIPOS>ATOM
      1 FE         25.6160   29.6940  -84.6960 Fe    402  HEC402      0.0000
      2  CHA       25.4690   30.3880  -81.3670 C.2   402  HEC402      0.0000
      3  CHB       22.8740   31.6500  -85.2400 C.2   402  HEC402      0.0000
      4  CHC       26.3340   29.6630  -88.0570 C.2   402  HEC402      0.0000
      5  CHD       27.9340   27.2970  -84.1510 C.2   402  HEC402      0.0000
      6  NA        24.3430   30.8150  -83.4890 N.ar  402  HEC402      0.0000
      7  C1A       24.4270   31.0180  -82.1720 C.ar  402  HEC402      0.0000
      8  C2A       23.3320   31.8430  -81.6000 C.ar  402  HEC402      0.0000
      9  C3A       22.6070   32.2190  -82.6980 C.ar  402  HEC402      0.0000
     10  C4A       23.2930   31.5480  -83.8480 C.ar  402  HEC402      0.0000
     11  CMA       21.3730   33.0800  -82.7690 C.3   402  HEC402      0.0000
     12  CAA       23.1040   32.1890  -80.1320 C.3   402  HEC402      0.0000
     13  CBA       22.2280   31.0500  -79.6030 C.3   402  HEC402      0.0000
     14  CGA       22.0420   31.2450  -78.0830 C.2   402  HEC402      0.0000
     15  O1A       21.1120   30.7430  -77.4710 O.co2 402  HEC402      0.0000
     16  O2A       22.8300   31.9300  -77.4480 O.co2 402  HEC402      0.0000
     17  NB        24.7390   30.4930  -86.3760 N.2   402  HEC402      0.0000
     18  C1B       23.6720   31.3090  -86.4190 C.2   402  HEC402      0.0000
     19  C2B       23.3720   31.8210  -87.7690 C.2   402  HEC402      0.0000
     20  C3B       24.3390   31.2230  -88.5820 C.2   402  HEC402      0.0000
     21  C4B       25.1560   30.4480  -87.6530 C.2   402  HEC402      0.0000
     22  CMB       22.1900   32.7220  -88.0690 C.3   402  HEC402      0.0000
     23  CAB       24.5820   31.3920  -90.0790 C.3   402  HEC402      0.0000
     24  CBB       25.0020   32.8240  -90.3500 C.3   402  HEC402      0.0000
     25  NC        26.9250   28.6150  -85.9050 N.ar  402  HEC402      0.0000
     26  C1C       27.0450   28.6790  -87.2430 C.ar  402  HEC402      0.0000
     27  C2C       28.0010   27.7030  -87.8280 C.ar  402  HEC402      0.0000
     28  C3C       28.5010   27.0110  -86.7060 C.ar  402  HEC402      0.0000
     29  C4C       27.7740   27.6430  -85.5640 C.ar  402  HEC402      0.0000
     30  CMC       28.3070   27.5900  -89.3050 C.3   402  HEC402      0.0000
     31  CAC       29.5120   25.8770  -86.5870 C.3   402  HEC402      0.0000
     32  CBC       30.7670   26.0180  -87.4080 C.3   402  HEC402      0.0000
     33  ND        26.5100   28.9200  -83.0100 N.2   402  HEC402      0.0000
     34  C1D       27.5550   28.1210  -82.9910 C.2   402  HEC402      0.0000
     35  C2D       28.2340   28.0520  -81.6740 C.2   402  HEC402      0.0000
     36  C3D       27.5520   28.9570  -80.8950 C.2   402  HEC402      0.0000
     37  C4D       26.5140   29.4530  -81.8060 C.2   402  HEC402      0.0000
     38  CMD       29.4580   27.2480  -81.3820 C.3   402  HEC402      0.0000
     39  CAD       27.7990   29.3670  -79.4640 C.3   402  HEC402      0.0000
     40  CBD       29.0450   30.2460  -79.4610 C.3   402  HEC402      0.0000
     41  CGD       29.2250   31.0240  -78.1730 C.2   402  HEC402      0.0000
     42  O1D       30.2810   31.7090  -78.1020 O.co2 402  HEC402      0.0000
     43  O2D       28.3230   31.0300  -77.2780 O.co2 402  HEC402      0.0000
@<TRIPOS>BOND
     1    24    23    1
     2    23    20    1
     3    30    27    1
     4    20    19    2
     5    20    21    1
     6    22    19    1
     7     4    21    2
     8     4    26    1
     9    27    26   ar
    10    27    28   ar
    11    19    18    1
    12    21    17    1
    13    32    31    1
    14    26    25   ar
    15    28    31    1
    16    28    29   ar
    17    18    17    2
    18    18     3    1
    19    17     1    1
    20    25    29   ar
    21    25     1    1
    22    29     5    1
    23     3    10    2
    24     1     6    1
    25     1    33    1
    26     5    34    2
    27    10     6   ar
    28    10     9   ar
    29     6     7   ar
    30    33    34    1
    31    33    37    2
    32    34    35    1
    33    11     9    1
    34     9     8   ar
    35     7     8   ar
    36     7     2    2
    37    37     2    1
    38    37    36    1
    39    35    38    1
    40    35    36    2
    41     8    12    1
    42    36    39    1
    43    12    13    1
    44    13    14    1
    45    39    40    1
    46    40    41    1
    47    41    42   ar
    48    41    43   ar
    49    14    15   ar
    50    14    16   ar
