@<TRIPOS>MOLECULE
4fa7_HEM_A_1.pdb
 43 50 0 0 0
SMALL
GASTEIGER

@<TRIPOS>ATOM
      1  CHA       -0.7770   -3.7380   34.7650 C.2   602  HEM602      0.0000
      2  CHB        1.4990   -7.5340   36.8420 C.2   602  HEM602      0.0000
      3  CHC        5.8200   -5.3650   36.2450 C.2   602  HEM602      0.0000
      4  CHD        3.6070   -2.0090   33.4790 C.2   602  HEM602      0.0000
      5  C1A       -0.4970   -4.9710   35.3010 C.2   602  HEM602      0.0000
      6  C2A       -1.4680   -6.0280   35.4610 C.2   602  HEM602      0.0000
      7  C3A       -0.8340   -7.0970   36.0350 C.2   602  HEM602      0.0000
      8  C4A        0.5510   -6.7390   36.2500 C.2   602  HEM602      0.0000
      9  CMA       -1.4380   -8.4660   36.4320 C.3   602  HEM602      0.0000
     10  CAA       -2.9520   -5.8470   34.9960 C.3   602  HEM602      0.0000
     11  CBA       -3.7570   -5.2660   36.1450 C.3   602  HEM602      0.0000
     12  CGA       -5.0830   -4.7680   35.6740 C.2   602  HEM602      0.0000
     13  O1A       -6.0200   -4.5240   36.4850 O.co2 602  HEM602      0.0000
     14  O2A       -5.2320   -4.6350   34.4600 O.co2 602  HEM602      0.0000
     15  C1B        2.8390   -7.2510   36.9260 C.ar  602  HEM602      0.0000
     16  C2B        3.8410   -8.0660   37.5960 C.ar  602  HEM602      0.0000
     17  C3B        5.0440   -7.4500   37.4250 C.ar  602  HEM602      0.0000
     18  C4B        4.8330   -6.2330   36.6540 C.ar  602  HEM602      0.0000
     19  CMB        3.5640   -9.3980   38.3220 C.3   602  HEM602      0.0000
     20  CAB        6.4420   -7.8910   37.9070 C.2   602  HEM602      0.0000
     21  CBB        6.6710   -8.2270   39.1930 C.2   602  HEM602      0.0000
     22  C1C        5.5840   -4.3300   35.3360 C.2   602  HEM602      0.0000
     23  C2C        6.6220   -3.5190   34.7000 C.2   602  HEM602      0.0000
     24  C3C        5.9830   -2.6270   33.9190 C.2   602  HEM602      0.0000
     25  C4C        4.5540   -2.7890   34.0730 C.2   602  HEM602      0.0000
     26  CMC        8.1470   -3.7360   34.8490 C.3   602  HEM602      0.0000
     27  CAC        6.6190   -1.5900   33.0160 C.2   602  HEM602      0.0000
     28  CBC        7.9390   -1.3880   33.1390 C.2   602  HEM602      0.0000
     29  C1D        2.2240   -2.0740   33.6550 C.ar  602  HEM602      0.0000
     30  C2D        1.2850   -1.1030   33.1490 C.ar  602  HEM602      0.0000
     31  C3D       -0.0960   -1.6360   33.5230 C.ar  602  HEM602      0.0000
     32  C4D        0.1610   -2.8890   34.2490 C.ar  602  HEM602      0.0000
     33  CMD        1.5400    0.1940   32.3600 C.3   602  HEM602      0.0000
     34  CAD       -1.4540   -0.9500   33.1550 C.3   602  HEM602      0.0000
     35  CBD       -1.9190   -0.0400   34.2820 C.3   602  HEM602      0.0000
     36  CGD       -3.2570    0.5660   33.8670 C.2   602  HEM602      0.0000
     37  O1D       -3.5470    1.6880   34.3850 O.co2 602  HEM602      0.0000
     38  O2D       -3.9920   -0.0670   33.0230 O.co2 602  HEM602      0.0000
     39  NA         0.7320   -5.4400   35.7650 N.2   602  HEM602      0.0000
     40  NB         3.4800   -6.1340   36.3880 N.ar  602  HEM602      0.0000
     41  NC         4.3170   -3.8370   34.9390 N.2   602  HEM602      0.0000
     42  ND         1.5100   -3.0940   34.3060 N.ar  602  HEM602      0.0000
     43 FE          2.4930   -4.6480   35.3110 Fe    602  HEM602      0.0000
@<TRIPOS>BOND
     1    33    30    1
     2    27    28    2
     3    27    24    1
     4    38    36   ar
     5    30    31   ar
     6    30    29   ar
     7    34    31    1
     8    34    35    1
     9     4    29    2
    10     4    25    1
    11    31    32   ar
    12    29    42   ar
    13    36    35    1
    14    36    37   ar
    15    24    25    1
    16    24    23    2
    17    25    41    2
    18    32    42   ar
    19    32     1    2
    20    42    43    1
    21    14    12   ar
    22    23    26    1
    23    23    22    1
    24     1     5    1
    25    41    43    1
    26    41    22    1
    27    10     6    1
    28    10    11    1
    29     5     6    1
    30     5    39    2
    31    43    39    1
    32    43    40    1
    33    22     3    2
    34     6     7    2
    35    12    11    1
    36    12    13   ar
    37    39     8    1
    38     7     8    1
    39     7     9    1
    40     3    18    1
    41     8     2    2
    42    40    18   ar
    43    40    15   ar
    44    18    17   ar
    45     2    15    1
    46    15    16   ar
    47    17    16   ar
    48    17    20    1
    49    16    19    1
    50    20    21    2
