@<TRIPOS>MOLECULE
4fa9_HEC_A_1.pdb
 43 50 0 0 0
SMALL
GASTEIGER

@<TRIPOS>ATOM
      1 FE         25.6180   29.5710  -84.5940 Fe    402  HEC402      0.0000
      2  CHA       25.4540   30.1930  -81.2850 C.2   402  HEC402      0.0000
      3  CHB       22.8690   31.5950  -85.1560 C.2   402  HEC402      0.0000
      4  CHC       26.2690   29.5400  -87.9610 C.2   402  HEC402      0.0000
      5  CHD       27.9650   27.1490  -84.0910 C.2   402  HEC402      0.0000
      6  NA        24.3410   30.6740  -83.4090 N.ar  402  HEC402      0.0000
      7  C1A       24.4050   30.8300  -82.0900 C.ar  402  HEC402      0.0000
      8  C2A       23.3060   31.6870  -81.5300 C.ar  402  HEC402      0.0000
      9  C3A       22.5760   32.0900  -82.6450 C.ar  402  HEC402      0.0000
     10  C4A       23.3110   31.4520  -83.7770 C.ar  402  HEC402      0.0000
     11  CMA       21.3620   32.9910  -82.7110 C.3   402  HEC402      0.0000
     12  CAA       23.0030   32.0400  -80.1000 C.3   402  HEC402      0.0000
     13  CBA       22.0110   30.9930  -79.5730 C.3   402  HEC402      0.0000
     14  CGA       21.9710   31.1490  -78.0390 C.2   402  HEC402      0.0000
     15  O1A       21.1820   30.4730  -77.3580 O.co2 402  HEC402      0.0000
     16  O2A       22.7640   31.9320  -77.4620 O.co2 402  HEC402      0.0000
     17  NB        24.7090   30.4160  -86.2580 N.2   402  HEC402      0.0000
     18  C1B       23.6400   31.2030  -86.3410 C.2   402  HEC402      0.0000
     19  C2B       23.3200   31.7100  -87.6960 C.2   402  HEC402      0.0000
     20  C3B       24.2960   31.1080  -88.5000 C.2   402  HEC402      0.0000
     21  C4B       25.1080   30.3330  -87.5420 C.2   402  HEC402      0.0000
     22  CMB       22.1420   32.6240  -88.0270 C.3   402  HEC402      0.0000
     23  CAB       24.5750   31.1980  -89.9880 C.3   402  HEC402      0.0000
     24  CBB       24.9260   32.6520  -90.3620 C.3   402  HEC402      0.0000
     25  NC        26.9280   28.5060  -85.7930 N.ar  402  HEC402      0.0000
     26  C1C       27.0010   28.5670  -87.1180 C.ar  402  HEC402      0.0000
     27  C2C       27.9050   27.5710  -87.7180 C.ar  402  HEC402      0.0000
     28  C3C       28.4170   26.8530  -86.6350 C.ar  402  HEC402      0.0000
     29  C4C       27.7570   27.5120  -85.4740 C.ar  402  HEC402      0.0000
     30  CMC       28.1410   27.4630  -89.1980 C.3   402  HEC402      0.0000
     31  CAC       29.3780   25.6620  -86.5670 C.3   402  HEC402      0.0000
     32  CBC       30.6600   25.8780  -87.2810 C.3   402  HEC402      0.0000
     33  ND        26.5410   28.7390  -82.9290 N.2   402  HEC402      0.0000
     34  C1D       27.5790   27.9360  -82.8840 C.2   402  HEC402      0.0000
     35  C2D       28.2590   27.8750  -81.5750 C.2   402  HEC402      0.0000
     36  C3D       27.5410   28.7580  -80.7840 C.2   402  HEC402      0.0000
     37  C4D       26.5080   29.2670  -81.7090 C.2   402  HEC402      0.0000
     38  CMD       29.4780   27.0800  -81.2240 C.3   402  HEC402      0.0000
     39  CAD       27.7460   29.1990  -79.3690 C.3   402  HEC402      0.0000
     40  CBD       29.0300   30.0460  -79.4710 C.3   402  HEC402      0.0000
     41  CGD       29.2250   30.8590  -78.2290 C.2   402  HEC402      0.0000
     42  O1D       30.2360   31.5920  -78.1680 O.co2 402  HEC402      0.0000
     43  O2D       28.3860   30.8050  -77.3020 O.co2 402  HEC402      0.0000
@<TRIPOS>BOND
     1    24    23    1
     2    23    20    1
     3    30    27    1
     4    20    19    2
     5    20    21    1
     6    22    19    1
     7     4    21    2
     8     4    26    1
     9    27    26   ar
    10    27    28   ar
    11    19    18    1
    12    21    17    1
    13    32    31    1
    14    26    25   ar
    15    28    31    1
    16    28    29   ar
    17    18    17    2
    18    18     3    1
    19    17     1    1
    20    25    29   ar
    21    25     1    1
    22    29     5    1
    23     3    10    2
    24     1     6    1
    25     1    33    1
    26     5    34    2
    27    10     6   ar
    28    10     9   ar
    29     6     7   ar
    30    33    34    1
    31    33    37    2
    32    34    35    1
    33    11     9    1
    34     9     8   ar
    35     7     8   ar
    36     7     2    2
    37    37     2    1
    38    37    36    1
    39    35    38    1
    40    35    36    2
    41     8    12    1
    42    36    39    1
    43    12    13    1
    44    13    14    1
    45    40    39    1
    46    40    41    1
    47    41    42   ar
    48    41    43   ar
    49    14    16   ar
    50    14    15   ar
