@<TRIPOS>MOLECULE
4faa_HEM_A_1.pdb
 43 50 0 0 0
SMALL
GASTEIGER

@<TRIPOS>ATOM
      1  CHA        0.4460   -3.1160  -35.2530 C.2   602  HEM602      0.0000
      2  CHB       -1.6580   -7.2420  -37.0490 C.2   602  HEM602      0.0000
      3  CHC       -5.9920   -5.0280  -36.5160 C.2   602  HEM602      0.0000
      4  CHD       -3.7060   -1.5850  -33.6250 C.2   602  HEM602      0.0000
      5  C1A        0.2010   -4.5560  -35.6310 C.ar  602  HEM602      0.0000
      6  C2A        1.2390   -5.6410  -35.7070 C.ar  602  HEM602      0.0000
      7  C3A        0.6780   -6.6370  -36.4100 C.ar  602  HEM602      0.0000
      8  C4A       -0.7870   -6.3500  -36.6140 C.ar  602  HEM602      0.0000
      9  CMA        1.3800   -7.8990  -36.8500 C.3   602  HEM602      0.0000
     10  CAA        2.6820   -5.5270  -35.2400 C.3   602  HEM602      0.0000
     11  CBA        3.4860   -4.8410  -36.3480 C.3   602  HEM602      0.0000
     12  CGA        4.8040   -4.3770  -35.7890 C.2   602  HEM602      0.0000
     13  O1A        5.6900   -4.0630  -36.5770 O.co2 602  HEM602      0.0000
     14  O2A        5.0000   -4.3030  -34.4670 O.co2 602  HEM602      0.0000
     15  C1B       -3.1310   -7.0450  -37.0220 C.2   602  HEM602      0.0000
     16  C2B       -3.9840   -7.7720  -37.7540 C.2   602  HEM602      0.0000
     17  C3B       -5.2840   -7.0280  -37.7620 C.2   602  HEM602      0.0000
     18  C4B       -5.0150   -5.8190  -36.9410 C.2   602  HEM602      0.0000
     19  CMB       -3.7780   -9.1630  -38.3190 C.3   602  HEM602      0.0000
     20  CAB       -6.4700   -7.4880  -38.0990 C.3   602  HEM602      0.0000
     21  CBB       -6.7070   -7.9010  -39.5350 C.3   602  HEM602      0.0000
     22  C1C       -5.7960   -3.9550  -35.5010 C.ar  602  HEM602      0.0000
     23  C2C       -6.7600   -3.2450  -34.9330 C.ar  602  HEM602      0.0000
     24  C3C       -6.0800   -2.2460  -34.0710 C.ar  602  HEM602      0.0000
     25  C4C       -4.7730   -2.4370  -34.2310 C.ar  602  HEM602      0.0000
     26  CMC       -8.2580   -3.3980  -35.0940 C.3   602  HEM602      0.0000
     27  CAC       -6.7960   -1.0850  -33.4710 C.2   602  HEM602      0.0000
     28  CBC       -7.9490   -1.2640  -32.8410 C.2   602  HEM602      0.0000
     29  C1D       -2.4010   -1.7100  -33.8510 C.2   602  HEM602      0.0000
     30  C2D       -1.3590   -0.6930  -33.4750 C.2   602  HEM602      0.0000
     31  C3D       -0.1750   -1.1810  -33.8400 C.2   602  HEM602      0.0000
     32  C4D       -0.4710   -2.4240  -34.6060 C.2   602  HEM602      0.0000
     33  CMD       -1.5840    0.5260  -32.6080 C.3   602  HEM602      0.0000
     34  CAD        1.1950   -0.6560  -33.4380 C.3   602  HEM602      0.0000
     35  CBD        1.6970    0.3870  -34.4500 C.3   602  HEM602      0.0000
     36  CGD        3.0350    0.9580  -34.0130 C.2   602  HEM602      0.0000
     37  O1D        3.3980    2.0710  -34.4250 O.co2 602  HEM602      0.0000
     38  O2D        3.8130    0.2450  -33.1810 O.co2 602  HEM602      0.0000
     39  NA        -1.0600   -5.2170  -35.9500 N.ar  602  HEM602      0.0000
     40  NB        -3.7620   -5.9950  -36.4630 N.2   602  HEM602      0.0000
     41  NC        -4.5970   -3.5170  -35.0520 N.ar  602  HEM602      0.0000
     42  ND        -1.7680   -2.7490  -34.4190 N.2   602  HEM602      0.0000
     43 FE         -2.7100   -4.1140  -35.5930 Fe    602  HEM602      0.0000
@<TRIPOS>BOND
     1    21    20    1
     2    19    16    1
     3    20    17    1
     4    17    16    2
     5    17    18    1
     6    16    15    1
     7     2    15    1
     8     2     8    2
     9    15    40    2
    10    18     3    2
    11    18    40    1
    12     9     7    1
    13     8     7   ar
    14     8    39   ar
    15    13    12   ar
    16     3    22    1
    17    40    43    1
    18     7     6   ar
    19    11    12    1
    20    11    10    1
    21    39     5   ar
    22    39    43    1
    23    12    14   ar
    24     6     5   ar
    25     6    10    1
    26     5     1    2
    27    43    41    1
    28    43    42    1
    29    22    41   ar
    30    22    23   ar
    31     1    32    1
    32    26    23    1
    33    41    25   ar
    34    23    24   ar
    35    32    42    2
    36    32    31    1
    37    35    36    1
    38    35    34    1
    39    37    36   ar
    40    42    29    1
    41    25    24   ar
    42    25     4    1
    43    24    27    1
    44    36    38   ar
    45    29     4    2
    46    29    30    1
    47    31    30    2
    48    31    34    1
    49    30    33    1
    50    27    28    2
