@<TRIPOS>MOLECULE
4fab_FDS_H_1.pdb
 25 28 0 0 0
SMALL
GASTEIGER

@<TRIPOS>ATOM
      1  C1        27.0670  -13.2280   22.3790 C.ar  218  FDS218      0.1988
      2  O1        27.6360  -12.8000   23.5350 O.3   218  FDS218     -0.2865
      3  C2        26.4740  -12.2630   21.6200 C.ar  218  FDS218      0.0795
      4  C3        25.8540  -12.6400   20.4480 C.ar  218  FDS218      0.1484
      5  O2        25.2630  -11.6650   19.7100 O.3   218  FDS218     -0.4536
      6  C4        24.6290  -11.9710   18.5270 C.2   218  FDS218      0.1448
      7  C5        24.0370  -10.9440   17.8220 C.2   218  FDS218      0.0788
      8  C6        23.4150  -11.2430   16.6430 C.2   218  FDS218      0.1949
      9  O3        22.8830  -10.1550   16.0270 O.2   218  FDS218     -0.2868
     10  C7        23.3820  -12.5890   16.1740 C.2   218  FDS218      0.0208
     11  C8        23.9800  -13.6070   16.9060 C.3   218  FDS218      0.0587
     12  C9        24.6000  -13.2920   18.0710 C.2   218  FDS218      0.0171
     13  C10       25.2020  -14.2860   18.7780 C.2   218  FDS218      0.0024
     14  C11       25.8250  -13.9730   20.0110 C.ar  218  FDS218      0.0346
     15  C12       26.4100  -14.9440   20.7500 C.ar  218  FDS218      0.0063
     16  C13       27.0350  -14.5860   21.9450 C.ar  218  FDS218      0.0422
     17  C14       25.0930  -15.5810   18.3250 C.ar  218  FDS218      0.0063
     18  C15       23.8440  -16.1090   18.4530 C.ar  218  FDS218      0.0002
     19  C16       23.6420  -17.3960   17.9610 C.ar  218  FDS218      0.0000
     20  C17       24.6940  -18.1930   17.3610 C.ar  218  FDS218      0.0002
     21  C18       25.9290  -17.6610   17.2470 C.ar  218  FDS218      0.0066
     22  C19       26.1200  -16.3230   17.7100 C.ar  218  FDS218      0.0798
     23  C20       27.3480  -15.7820   17.5840 C.2   218  FDS218      0.3878
     24  O4        28.3840  -16.5040   18.0780 O.co2 218  FDS218     -0.2406
     25  O5        27.6730  -14.7020   16.9940 O.co2 218  FDS218     -0.2406
@<TRIPOS>BOND
     1     9     8    1
     2    10     8    2
     3    10    11    1
     4     8     7    1
     5    11    12    1
     6    25    23   ar
     7    21    20   ar
     8    21    22   ar
     9    20    19   ar
    10    23    22    1
    11    23    24   ar
    12    22    17   ar
    13     7     6    2
    14    19    18   ar
    15    12     6    1
    16    12    13    2
    17    17    18   ar
    18    17    13    1
    19     6     5    1
    20    13    14    1
    21     5     4    1
    22    14     4   ar
    23    14    15   ar
    24     4     3   ar
    25    15    16   ar
    26     3     1   ar
    27    16     1   ar
    28     1     2    1
