@<TRIPOS>MOLECULE
4fag_GTQ_A_1.pdb
 11 11 0 0 0
SMALL
GASTEIGER

@<TRIPOS>ATOM
      1  OAA       -9.9130  -24.0660  -24.4640 O.co2 402  GTQ402     -0.2404
      2  OAB      -11.4410  -25.5840  -23.9640 O.co2 402  GTQ402     -0.2404
      3  OAC       -6.9670  -26.1930  -27.9540 O.3   402  GTQ402     -0.2866
      4  OAD      -11.0110  -28.1290  -24.6420 O.3   402  GTQ402     -0.2863
      5  CAE       -8.3170  -28.0000  -27.1350 C.ar  402  GTQ402      0.0453
      6  CAF       -9.3310  -28.4990  -26.2990 C.ar  402  GTQ402      0.0455
      7  CAG       -8.6470  -25.7600  -26.2820 C.ar  402  GTQ402      0.0518
      8  CAH      -10.3860  -25.2250  -24.5490 C.2   402  GTQ402      0.3910
      9  CAI       -7.9650  -26.6450  -27.1270 C.ar  402  GTQ402      0.1962
     10  CAJ      -10.0220  -27.6460  -25.4400 C.ar  402  GTQ402      0.2022
     11  CAK       -9.6600  -26.2000  -25.4290 C.ar  402  GTQ402      0.1217
@<TRIPOS>BOND
     1     3     9    1
     2     5     9   ar
     3     5     6   ar
     4     9     7   ar
     5     6    10   ar
     6     7    11   ar
     7    10    11   ar
     8    10     4    1
     9    11     8    1
    10     8     1   ar
    11     8     2   ar
