@<TRIPOS>MOLECULE
4fai_PBD_A_1.pdb
 22 23 0 0 0
SMALL
GASTEIGER

@<TRIPOS>ATOM
      1  CAA      -34.7200   -5.6950   44.3660 C.3   402  PBD402      0.2526
      2  CAB      -31.6240   -8.4640   40.5860 C.3   402  PBD402      0.2526
      3  SAC      -30.4340   -2.0740   37.7490 S.2   402  PBD402     -0.0152
      4  CAD      -26.9410   -0.9490   45.7900 C.ar  402  PBD402      0.1193
      5  CAE      -33.1000   -3.7220   41.2240 C.ar  402  PBD402      0.0199
      6  CAF      -33.5560   -4.4080   42.3320 C.ar  402  PBD402      0.0414
      7  CAG      -26.9320   -1.1990   44.4710 C.ar  402  PBD402      0.0980
      8  CAH      -28.3730    0.3960   44.8330 C.ar  402  PBD402      0.1786
      9  CAI      -32.1700   -5.7550   40.3660 C.ar  402  PBD402      0.0566
     10  CAJ      -28.9590   -1.4940   42.0160 C.3   402  PBD402      0.0479
     11  CAK      -29.3340   -1.5310   40.5200 C.3   402  PBD402      0.1162
     12  CAL      -28.1260   -0.2880   42.4230 C.3   402  PBD402      0.1095
     13  NAM      -27.8400    0.0530   46.0170 N.ar  402  PBD402     -0.2223
     14  NAN      -30.3760   -2.5360   40.3740 N.am  402  PBD402     -0.2164
     15  NAO      -31.9320   -3.7580   39.1530 N.am  402  PBD402     -0.1905
     16  OAP      -33.8050   -6.4900   43.5420 O.3   402  PBD402     -0.4684
     17  OAQ      -32.4270   -7.8090   41.6080 O.3   402  PBD402     -0.4683
     18  CAR      -30.9600   -2.8380   39.2050 C.2   402  PBD402      0.1745
     19  CAS      -32.3850   -4.3940   40.2400 C.ar  402  PBD402      0.0756
     20  CAT      -33.3360   -5.7840   42.4600 C.ar  402  PBD402      0.1725
     21  CAU      -32.6390   -6.4590   41.4630 C.ar  402  PBD402      0.1737
     22  NAV      -27.8180   -0.3600   43.8870 N.ar  402  PBD402     -0.3078
@<TRIPOS>BOND
     1     3    18    2
     2    15    18    1
     3    15    19    1
     4    18    14    1
     5    19     9   ar
     6    19     5   ar
     7     9    21   ar
     8    14    11    1
     9    11    10    1
    10     2    17    1
    11     5     6   ar
    12    21    17    1
    13    21    20   ar
    14    10    12    1
    15     6    20   ar
    16    12    22    1
    17    20    16    1
    18    16     1    1
    19    22     7   ar
    20    22     8   ar
    21     7     4   ar
    22     8    13   ar
    23     4    13   ar
