@<TRIPOS>MOLECULE
4fak_SAM_A_1.pdb
 27 29 0 0 0
SMALL
GASTEIGER

@<TRIPOS>ATOM
      1  N         -3.6230   -7.0800   -0.9520 N.3   201  SAM201     -0.1159
      2  CA        -4.7070   -7.6800   -0.1000 C.3   201  SAM201      0.2168
      3  C         -5.3940   -6.5460    0.7550 C.2   201  SAM201      0.3860
      4  O         -4.8220   -5.4040    0.4910 O.co2 201  SAM201     -0.2437
      5  OXT       -6.4470   -6.8420    1.6280 O.co2 201  SAM201     -0.2437
      6  CB        -4.1110   -8.8180    0.8110 C.2   201  SAM201      0.0097
      7  CG        -5.1280   -9.5420    1.7270 C.2   201  SAM201      0.0191
      8  SD        -4.6490  -10.8920    2.9110 S.3   201  SAM201     -0.1536
      9  CE        -3.3020  -11.8830    2.1000 C.3   201  SAM201      0.0636
     10  C5'       -6.0770  -11.9940    3.1110 C.3   201  SAM201      0.0847
     11  C4'       -7.0570  -11.5480    4.1980 C.3   201  SAM201      0.1625
     12  O4'       -6.4950  -11.6980    5.4570 O.3   201  SAM201     -0.3153
     13  C3'       -7.4270  -10.0700    4.1090 C.3   201  SAM201      0.2168
     14  O3'       -8.5250   -9.9530    3.2840 O.3   201  SAM201     -0.2175
     15  C2'       -7.7260   -9.7030    5.5660 C.3   201  SAM201      0.2569
     16  O2'       -9.0500   -9.9480    5.8840 O.3   201  SAM201     -0.2130
     17  C1'       -6.8140  -10.6490    6.3460 C.3   201  SAM201      0.3185
     18  N9        -5.5700   -9.9140    6.8370 N.pl3 201  SAM201     -0.1439
     19  C8        -4.2630  -10.1720    6.4760 C.3   201  SAM201      0.3377
     20  N7        -3.4510   -9.3540    7.1060 N.2   201  SAM201     -0.2095
     21  C5        -4.1990   -8.5610    7.8900 C.2   201  SAM201      0.2526
     22  C6        -3.9220   -7.5140    8.8010 C.2   201  SAM201      0.4393
     23  N6        -2.6680   -7.0740    9.0770 N.pl3 201  SAM201      0.2180
     24  N1        -4.9810   -6.9040    9.4630 N.2   201  SAM201      0.0021
     25  C2        -6.2680   -7.2560    9.2560 C.3   201  SAM201      0.5254
     26  N3        -6.5310   -8.2410    8.3730 N.2   201  SAM201     -0.0055
     27  C4        -5.5370   -8.9020    7.6950 C.2   201  SAM201      0.3518
@<TRIPOS>BOND
     1     1     2    1
     2     2     3    1
     3     2     6    1
     4     4     3   ar
     5     3     5   ar
     6     6     7    2
     7     7     8    1
     8     9     8    1
     9     8    10    1
    10    10    11    1
    11    14    13    1
    12    13    11    1
    13    13    15    1
    14    11    12    1
    15    12    17    1
    16    15    16    1
    17    15    17    1
    18    17    18    1
    19    19    18    1
    20    19    20    1
    21    18    27    1
    22    20    21    2
    23    27    21    1
    24    27    26    2
    25    21    22    1
    26    26    25    1
    27    22    23    1
    28    22    24    2
    29    25    24    1
