@<TRIPOS>MOLECULE
4fal_0T0_A_1.pdb
 23 25 0 0 0
SMALL
GASTEIGER

@<TRIPOS>ATOM
      1  CAN       -1.6800    9.0750   14.7370 C.3   402  0T0402      0.1008
      2  CAM       -1.8150   10.6110   14.6420 C.3   402  0T0402      0.0452
      3  CAT       -3.2090   11.0430   14.5710 C.ar  402  0T0402     -0.0233
      4  CAJ       -3.4240   12.2990   14.0850 C.ar  402  0T0402     -0.0045
      5  CAE       -4.7620   12.7170   14.0030 C.ar  402  0T0402     -0.0003
      6  CAF       -5.8510   11.9410   14.4190 C.ar  402  0T0402     -0.0003
      7  CAK       -5.6210   10.6650   14.9360 C.ar  402  0T0402     -0.0032
      8  CAU       -4.2730   10.2460   15.0040 C.ar  402  0T0402     -0.0084
      9  CAO       -4.0640    8.8630   15.6000 C.3   402  0T0402      0.1218
     10  NAV       -2.7460    8.2720   15.3580 N.3   402  0T0402     -0.1507
     11  SAW       -2.3070    7.0900   16.6470 S.O2  402  0T0402      0.0636
     12  OAC       -0.8640    7.1130   16.9840 O.2   402  0T0402     -0.1528
     13  OAD       -3.1150    7.1690   17.8940 O.2   402  0T0402     -0.1528
     14  CAS       -2.7130    5.6450   15.7540 C.ar  402  0T0402      0.1224
     15  CAL       -1.6920    5.0660   14.9720 C.ar  402  0T0402      0.0245
     16  CAI       -4.0300    5.1890   15.7660 C.ar  402  0T0402      0.0199
     17  CAG       -4.2980    4.0670   14.9880 C.ar  402  0T0402      0.0015
     18  CAH       -3.2960    3.4500   14.2240 C.ar  402  0T0402      0.0046
     19  CAR       -1.9660    3.9340   14.1950 C.ar  402  0T0402      0.0564
     20  CAQ       -0.8710    3.2810   13.3500 C.2   402  0T0402      0.2649
     21  OAB        0.3600    3.3020   13.6680 O.2   402  0T0402     -0.2684
     22  NAP       -1.3410    2.6370   12.2580 N.am  402  0T0402     -0.1998
     23  CAA       -0.2380    2.0600   11.4230 C.3   402  0T0402      0.1388
@<TRIPOS>BOND
     1    23    22    1
     2    22    20   am
     3    20    21    2
     4    20    19    1
     5     5     4   ar
     6     5     6   ar
     7     4     3   ar
     8    19    18   ar
     9    19    15   ar
    10    18    17   ar
    11     6     7   ar
    12     3     2    1
    13     3     8   ar
    14     2     1    1
    15     1    10    1
    16     7     8   ar
    17    15    14   ar
    18    17    16   ar
    19     8     9    1
    20    10     9    1
    21    10    11    1
    22    14    16   ar
    23    14    11    1
    24    11    12    2
    25    11    13    2
