@<TRIPOS>MOLECULE
4fam_0SZ_A_1.pdb
 22 24 0 0 0
SMALL
GASTEIGER

@<TRIPOS>ATOM
      1  OAA      -22.9080  -13.8940   -1.4440 O.co2 402  0SZ402     -0.2406
      2  CAP      -24.1560  -14.1280   -1.2790 C.2   402  0SZ402      0.3878
      3  OAD      -24.6660  -14.9830   -2.0980 O.co2 402  0SZ402     -0.2406
      4  CAQ      -25.0150  -13.2600   -0.5350 C.ar  402  0SZ402      0.0811
      5  CAL      -26.3640  -13.5710   -0.3280 C.ar  402  0SZ402      0.0265
      6  CAH      -24.5720  -11.9780   -0.1310 C.ar  402  0SZ402      0.0067
      7  CAG      -25.4570  -11.0590    0.4750 C.ar  402  0SZ402      0.0016
      8  CAK      -26.7950  -11.4320    0.6750 C.ar  402  0SZ402      0.0199
      9  CAT      -27.2460  -12.7030    0.2830 C.ar  402  0SZ402      0.1224
     10  SAV      -28.8440  -13.1110    0.4370 S.O2  402  0SZ402      0.0636
     11  OAB      -29.1090  -14.2520   -0.4200 O.2   402  0SZ402     -0.1528
     12  OAC      -29.6310  -11.9050    0.4790 O.2   402  0SZ402     -0.1528
     13  NAU      -29.1560  -13.7330    1.9020 N.3   402  0SZ402     -0.1507
     14  CAN      -28.3090  -14.8990    2.2850 C.3   402  0SZ402      0.1008
     15  CAM      -29.1000  -15.7290    3.2620 C.3   402  0SZ402      0.0452
     16  CAR      -29.5100  -14.9610    4.4030 C.ar  402  0SZ402     -0.0233
     17  CAI      -29.9220  -15.6280    5.5690 C.ar  402  0SZ402     -0.0045
     18  CAE      -30.2910  -14.9340    6.7000 C.ar  402  0SZ402     -0.0003
     19  CAF      -30.2790  -13.5480    6.6460 C.ar  402  0SZ402     -0.0003
     20  CAJ      -29.8960  -12.8940    5.5050 C.ar  402  0SZ402     -0.0032
     21  CAS      -29.5240  -13.5860    4.3370 C.ar  402  0SZ402     -0.0084
     22  CAO      -29.1320  -12.8600    3.1280 C.3   402  0SZ402      0.1218
@<TRIPOS>BOND
     1     3     2   ar
     2     1     2   ar
     3     2     4    1
     4     4     5   ar
     5     4     6   ar
     6    11    10    2
     7     5     9   ar
     8     6     7   ar
     9     9    10    1
    10     9     8   ar
    11    10    12    2
    12    10    13    1
    13     7     8   ar
    14    13    14    1
    15    13    22    1
    16    14    15    1
    17    22    21    1
    18    15    16    1
    19    21    16   ar
    20    21    20   ar
    21    16    17   ar
    22    20    19   ar
    23    17    18   ar
    24    19    18   ar
