@<TRIPOS>MOLECULE
4fam_NAP_A_1.pdb
 48 52 0 0 0
SMALL
GASTEIGER

@<TRIPOS>ATOM
      1  PA       -15.5190  -15.5470    3.1900 P.3   401  NAP401      0.2189
      2  O1A      -15.0120  -16.6600    2.2700 O.2   401  NAP401     -0.5170
      3  O2A      -16.1370  -15.9510    4.4250 O.3   401  NAP401     -0.4371
      4  O5B      -14.3640  -14.4830    3.4060 O.3   401  NAP401     -0.3112
      5  C5B      -14.5380  -13.4660    4.3960 C.3   401  NAP401      0.1813
      6  C4B      -13.3400  -12.4250    4.3100 C.3   401  NAP401      0.1820
      7  O4B      -12.1880  -13.3170    4.5030 O.3   401  NAP401     -0.3136
      8  C3B      -13.1520  -11.9930    2.8900 C.3   401  NAP401      0.2157
      9  O3B      -13.7900  -10.7010    2.6290 O.3   401  NAP401     -0.2175
     10  C2B      -11.6400  -11.8990    2.6610 C.3   401  NAP401      0.2314
     11  O2B      -11.1950  -10.5130    2.6340 O.3   401  NAP401     -0.2630
     12  C1B      -11.0260  -12.6110    3.8830 C.3   401  NAP401      0.3158
     13  N9A       -9.9840  -13.5520    3.5940 N.pl3 401  NAP401     -0.1439
     14  C8A       -9.9440  -14.4520    2.5700 C.3   401  NAP401      0.3377
     15  N7A       -8.8740  -15.2520    2.6590 N.2   401  NAP401     -0.2095
     16  C5A       -8.2160  -14.8280    3.7390 C.2   401  NAP401      0.2526
     17  C6A       -7.0360  -15.2320    4.3140 C.2   401  NAP401      0.4393
     18  N6A       -6.2760  -16.1300    3.7370 N.pl3 401  NAP401      0.2180
     19  N1A       -6.5450  -14.5810    5.4740 N.2   401  NAP401      0.0021
     20  C2A       -7.2640  -13.4970    6.1270 C.3   401  NAP401      0.5254
     21  N3A       -8.4950  -13.1880    5.5040 N.2   401  NAP401     -0.0055
     22  C4A       -8.9400  -13.8130    4.3630 C.2   401  NAP401      0.3518
     23  O3       -16.4920  -14.6170    2.3760 O.3   401  NAP401     -0.2703
     24  PN       -18.0790  -14.7780    1.9220 P.3   401  NAP401      0.2189
     25  O1N      -18.2880  -13.8840    0.8030 O.2   401  NAP401     -0.5170
     26  O2N      -18.9790  -14.5550    3.0430 O.3   401  NAP401     -0.4371
     27  O5D      -18.2030  -16.3460    1.4860 O.3   401  NAP401     -0.3112
     28  C5D      -17.5980  -16.6670    0.2660 C.3   401  NAP401      0.1813
     29  C4D      -18.3890  -16.9090   -1.0210 C.3   401  NAP401      0.1799
     30  O4D      -19.4910  -17.7660   -0.5970 O.3   401  NAP401     -0.3327
     31  C3D      -19.0940  -15.5930   -1.5040 C.3   401  NAP401      0.2158
     32  O3D      -18.0790  -14.7980   -2.1730 O.3   401  NAP401     -0.2175
     33  C2D      -20.0930  -16.2740   -2.4140 C.3   401  NAP401      0.2309
     34  O2D      -19.5120  -16.8580   -3.5790 O.3   401  NAP401     -0.2158
     35  C1D      -20.5760  -17.4350   -1.4470 C.3   401  NAP401      0.2263
     36  N1N      -21.7130  -17.0390   -0.6290 N.pl3 401  NAP401     -0.2787
     37  C2N      -23.0020  -17.5410   -0.8900 C.3   401  NAP401      0.1244
     38  C3N      -24.0750  -17.1350   -0.1170 C.2   401  NAP401      0.0544
     39  C7N      -25.4310  -17.6750   -0.3760 C.2   401  NAP401      0.2818
     40  O7N      -26.4050  -17.1650    0.1510 O.2   401  NAP401     -0.2670
     41  N7N      -25.4120  -18.8260   -1.0500 N.am  401  NAP401     -0.0839
     42  C4N      -23.8730  -16.3170    0.9600 C.2   401  NAP401      0.0033
     43  C5N      -22.5680  -15.8100    1.1910 C.2   401  NAP401      0.0157
     44  C6N      -21.5060  -16.2260    0.4810 C.2   401  NAP401      0.0633
     45  P2B      -10.2770  -10.0420    1.3620 P.3   401  NAP401      0.5328
     46  O1X      -10.9930  -10.0130    0.0670 O.2   401  NAP401     -0.2224
     47  O2X       -9.6260   -8.7750    1.8460 O.3   401  NAP401     -0.1145
     48  O3X       -9.1210  -11.0480    1.2670 O.3   401  NAP401     -0.1145
@<TRIPOS>BOND
     1    34    33    1
     2    33    31    1
     3    33    35    1
     4    32    31    1
     5    31    29    1
     6    35    36    1
     7    35    30    1
     8    41    39   am
     9    29    30    1
    10    29    28    1
    11    37    36    1
    12    37    38    1
    13    36    44    1
    14    39    38    1
    15    39    40    2
    16    38    42    2
    17    46    45    2
    18    28    27    1
    19    44    43    2
    20    25    24    2
    21    42    43    1
    22    48    45    1
    23    45    47    1
    24    45    11    1
    25    27    24    1
    26    24    23    1
    27    24    26    1
    28     2     1    2
    29    23     1    1
    30    14    15    1
    31    14    13    1
    32     9     8    1
    33    11    10    1
    34    15    16    2
    35    10     8    1
    36    10    12    1
    37     8     6    1
    38     1     4    1
    39     1     3    1
    40     4     5    1
    41    13    12    1
    42    13    22    1
    43    18    17    1
    44    16    17    1
    45    16    22    1
    46    12     7    1
    47     6     5    1
    48     6     7    1
    49    17    19    2
    50    22    21    2
    51    19    20    1
    52    21    20    1
