@<TRIPOS>MOLECULE
4fan_HEC_A_1.pdb
 43 50 0 0 0
SMALL
GASTEIGER

@<TRIPOS>ATOM
      1 FE         25.6510   29.7950  -84.7680 Fe    402  HEC402      0.0000
      2  CHA       25.5070   30.5460  -81.4350 C.2   402  HEC402      0.0000
      3  CHB       22.8970   31.7720  -85.2830 C.2   402  HEC402      0.0000
      4  CHC       26.3430   29.7220  -88.1240 C.2   402  HEC402      0.0000
      5  CHD       27.9200   27.3620  -84.1940 C.2   402  HEC402      0.0000
      6  NA        24.3880   30.9770  -83.5700 N.ar  402  HEC402      0.0000
      7  C1A       24.4450   31.1350  -82.2500 C.ar  402  HEC402      0.0000
      8  C2A       23.3300   31.9430  -81.6820 C.ar  402  HEC402      0.0000
      9  C3A       22.5970   32.3120  -82.7850 C.ar  402  HEC402      0.0000
     10  C4A       23.3310   31.6800  -83.9140 C.ar  402  HEC402      0.0000
     11  CMA       21.3440   33.1150  -82.9230 C.3   402  HEC402      0.0000
     12  CAA       23.1070   32.2290  -80.2120 C.3   402  HEC402      0.0000
     13  CBA       22.1550   31.1690  -79.6680 C.3   402  HEC402      0.0000
     14  CGA       22.0920   31.3620  -78.1290 C.2   402  HEC402      0.0000
     15  O1A       21.2260   30.7470  -77.5130 O.co2 402  HEC402      0.0000
     16  O2A       22.9010   32.0880  -77.4770 O.co2 402  HEC402      0.0000
     17  NB        24.7460   30.5600  -86.4260 N.2   402  HEC402      0.0000
     18  C1B       23.7060   31.4140  -86.4560 C.2   402  HEC402      0.0000
     19  C2B       23.4030   31.9210  -87.8070 C.2   402  HEC402      0.0000
     20  C3B       24.3830   31.3590  -88.6350 C.2   402  HEC402      0.0000
     21  C4B       25.1830   30.5250  -87.7110 C.2   402  HEC402      0.0000
     22  CMB       22.3080   32.8880  -88.1390 C.3   402  HEC402      0.0000
     23  CAB       24.5630   31.5640  -90.0990 C.3   402  HEC402      0.0000
     24  CBB       25.0570   32.9420  -90.4050 C.3   402  HEC402      0.0000
     25  NC        26.9340   28.6770  -85.9530 N.ar  402  HEC402      0.0000
     26  C1C       27.0890   28.7750  -87.2810 C.ar  402  HEC402      0.0000
     27  C2C       28.0680   27.8430  -87.8520 C.ar  402  HEC402      0.0000
     28  C3C       28.5640   27.1310  -86.7520 C.ar  402  HEC402      0.0000
     29  C4C       27.8170   27.7470  -85.6070 C.ar  402  HEC402      0.0000
     30  CMC       28.3800   27.7650  -89.3180 C.3   402  HEC402      0.0000
     31  CAC       29.5850   25.9990  -86.6790 C.3   402  HEC402      0.0000
     32  CBC       30.8990   26.2130  -87.4010 C.3   402  HEC402      0.0000
     33  ND        26.5530   29.0200  -83.0690 N.2   402  HEC402      0.0000
     34  C1D       27.5690   28.1760  -83.0170 C.2   402  HEC402      0.0000
     35  C2D       28.2820   28.1410  -81.7130 C.2   402  HEC402      0.0000
     36  C3D       27.5950   29.0680  -80.9450 C.2   402  HEC402      0.0000
     37  C4D       26.5390   29.5570  -81.8440 C.2   402  HEC402      0.0000
     38  CMD       29.4940   27.3270  -81.3110 C.3   402  HEC402      0.0000
     39  CAD       27.8940   29.4690  -79.5070 C.3   402  HEC402      0.0000
     40  CBD       28.9570   30.5540  -79.6280 C.3   402  HEC402      0.0000
     41  CGD       29.3410   31.1980  -78.3280 C.2   402  HEC402      0.0000
     42  O1D       30.4110   31.8720  -78.2990 O.co2 402  HEC402      0.0000
     43  O2D       28.5780   31.0560  -77.3470 O.co2 402  HEC402      0.0000
@<TRIPOS>BOND
     1    24    23    1
     2    23    20    1
     3    30    27    1
     4    20    19    2
     5    20    21    1
     6    22    19    1
     7     4    21    2
     8     4    26    1
     9    27    26   ar
    10    27    28   ar
    11    19    18    1
    12    21    17    1
    13    32    31    1
    14    26    25   ar
    15    28    31    1
    16    28    29   ar
    17    18    17    2
    18    18     3    1
    19    17     1    1
    20    25    29   ar
    21    25     1    1
    22    29     5    1
    23     3    10    2
    24     1     6    1
    25     1    33    1
    26     5    34    2
    27    10     6   ar
    28    10     9   ar
    29     6     7   ar
    30    33    34    1
    31    33    37    2
    32    34    35    1
    33    11     9    1
    34     9     8   ar
    35     7     8   ar
    36     7     2    2
    37    37     2    1
    38    37    36    1
    39    35    38    1
    40    35    36    2
    41     8    12    1
    42    36    39    1
    43    12    13    1
    44    13    14    1
    45    40    39    1
    46    40    41    1
    47    41    42   ar
    48    41    43   ar
    49    14    15   ar
    50    14    16   ar
