@<TRIPOS>MOLECULE
4fat_GLU_A_1.pdb
 10 9 0 0 0
SMALL
GASTEIGER

@<TRIPOS>ATOM
      1  N         13.5290    2.3370   16.4850 N.3   301  GLU301     -0.1208
      2  CA        14.6790    1.4750   16.7470 C.3   301  GLU301      0.1949
      3  C         14.8680    1.1710   18.2580 C.2   301  GLU301      0.3819
      4  O         15.8160    0.4250   18.5630 O.co2 301  GLU301     -0.2441
      5  CB        15.9920    2.0510   16.1650 C.3   301  GLU301      0.0424
      6  CG        16.0700    1.8660   14.6460 C.3   301  GLU301      0.1161
      7  CD        16.3340    0.4410   14.1990 C.2   301  GLU301      0.3649
      8  OE1       16.1690    0.2120   12.9510 O.co2 301  GLU301     -0.2457
      9  OE2       16.7190   -0.4420   14.9660 O.co2 301  GLU301     -0.2457
     10  OXT       13.9610    1.6950   18.9330 O.co2 301  GLU301     -0.2441
@<TRIPOS>BOND
     1     8     7   ar
     2     7     6    1
     3     7     9   ar
     4     6     5    1
     5     5     2    1
     6     1     2    1
     7     2     3    1
     8     3     4   ar
     9     3    10   ar
