@<TRIPOS>MOLECULE
4fat_496_A_1.pdb
 27 29 0 0 0
SMALL
GASTEIGER

@<TRIPOS>ATOM
      1  O1         0.4670    3.7520   15.5060 O.2   302  496302     -0.2666
      2  C2        -0.5330    4.3230   15.9470 C.2   302  496302      0.2856
      3  N3        -0.9110    5.5520   15.7570 N.am  302  496302     -0.0837
      4  C4        -1.4230    3.5030   16.8120 C.ar  302  496302      0.0743
      5  C5        -2.3950    3.9750   17.6880 C.ar  302  496302     -0.0139
      6  C6        -2.8130    5.3790   18.0060 C.3   302  496302      0.0268
      7  C10       -3.5180    5.3910   19.3530 C.3   302  496302      0.0050
      8  C9        -4.6290    4.3240   19.3900 C.3   302  496302      0.0055
      9  C8        -4.1470    2.8970   19.3190 C.3   302  496302      0.0327
     10  C7        -3.0400    2.8200   18.3240 C.ar  302  496302      0.0047
     11  S11       -2.4560    1.3110   17.8940 S.2   302  496302     -0.0750
     12  C12       -1.3760    2.0380   16.7730 C.ar  302  496302      0.1066
     13  N13       -0.4000    1.3450   16.1390 N.am  302  496302     -0.1708
     14  C14       -0.2880    0.0220   16.0790 C.2   302  496302      0.2709
     15  O15       -1.2100   -0.6780   16.5210 O.2   302  496302     -0.2708
     16  C16        0.9410   -0.5810   15.4250 C.3   302  496302      0.2139
     17  N17        1.4350   -1.6890   16.2360 N.ar  302  496302     -0.2403
     18  C24        1.3060   -3.0030   16.0430 C.ar  302  496302      0.0953
     19  C25        1.9000   -3.6740   17.0990 C.ar  302  496302      0.0527
     20  C26        2.0640   -5.2110   17.2200 C.3   302  496302      0.2116
     21  O29        3.4500   -5.4530   17.2410 O.3   302  496302     -0.2151
     22  C19        2.3920   -2.6640   17.9470 C.ar  302  496302      0.1721
     23  N18        2.1310   -1.4260   17.4300 N.ar  302  496302     -0.1651
     24  C20        3.1550   -2.8480   19.2140 C.3   302  496302      0.4363
     25  F21        4.4380   -2.9890   18.9580 F     302  496302     -0.1644
     26  F22        2.7350   -3.9450   19.7780 F     302  496302     -0.1644
     27  F23        2.8090   -2.0130   20.1280 F     302  496302     -0.1644
@<TRIPOS>BOND
     1    16    14    1
     2    16    17    1
     3     1     2    2
     4     3     2   am
     5     2     4    1
     6    18    17   ar
     7    18    19   ar
     8    14    13   am
     9    14    15    2
    10    13    12    1
    11    17    23   ar
    12    12     4   ar
    13    12    11   ar
    14     4     5   ar
    15    19    20    1
    16    19    22   ar
    17    20    21    1
    18    23    22   ar
    19     5     6    1
    20     5    10   ar
    21    11    10   ar
    22    22    24    1
    23     6     7    1
    24    10     9    1
    25    25    24    1
    26    24    26    1
    27    24    27    1
    28     9     8    1
    29     7     8    1
