@<TRIPOS>MOLECULE
4fav_HEC_A_1.pdb
 43 50 0 0 0
SMALL
GASTEIGER

@<TRIPOS>ATOM
      1 FE         25.6440   29.8440  -84.8490 Fe    402  HEC402      0.0000
      2  CHA       25.5300   30.5590  -81.5280 C.2   402  HEC402      0.0000
      3  CHB       22.8710   31.7290  -85.3860 C.2   402  HEC402      0.0000
      4  CHC       26.3920   29.8260  -88.2120 C.2   402  HEC402      0.0000
      5  CHD       27.9030   27.3890  -84.2710 C.2   402  HEC402      0.0000
      6  NA        24.3710   30.9760  -83.6380 N.ar  402  HEC402      0.0000
      7  C1A       24.4440   31.1360  -82.3130 C.ar  402  HEC402      0.0000
      8  C2A       23.3410   31.9500  -81.7540 C.ar  402  HEC402      0.0000
      9  C3A       22.5980   32.3010  -82.8680 C.ar  402  HEC402      0.0000
     10  C4A       23.2900   31.6380  -83.9990 C.ar  402  HEC402      0.0000
     11  CMA       21.3380   33.0770  -82.9760 C.3   402  HEC402      0.0000
     12  CAA       23.0960   32.2710  -80.3080 C.3   402  HEC402      0.0000
     13  CBA       22.0460   31.2750  -79.7890 C.3   402  HEC402      0.0000
     14  CGA       21.9100   31.2860  -78.2420 C.2   402  HEC402      0.0000
     15  O1A       21.0900   30.5230  -77.7130 O.co2 402  HEC402      0.0000
     16  O2A       22.6260   31.9990  -77.5140 O.co2 402  HEC402      0.0000
     17  NB        24.7630   30.6650  -86.5240 N.2   402  HEC402      0.0000
     18  C1B       23.6870   31.4180  -86.5840 C.2   402  HEC402      0.0000
     19  C2B       23.4150   31.9330  -87.9630 C.2   402  HEC402      0.0000
     20  C3B       24.4170   31.3970  -88.7520 C.2   402  HEC402      0.0000
     21  C4B       25.2170   30.6130  -87.8030 C.2   402  HEC402      0.0000
     22  CMB       22.2990   32.8470  -88.4180 C.3   402  HEC402      0.0000
     23  CAB       24.6250   31.6060  -90.2220 C.3   402  HEC402      0.0000
     24  CBB       25.1580   33.0020  -90.4390 C.3   402  HEC402      0.0000
     25  NC        26.9280   28.7680  -86.0390 N.ar  402  HEC402      0.0000
     26  C1C       27.1080   28.8570  -87.3670 C.ar  402  HEC402      0.0000
     27  C2C       28.1000   27.8850  -87.8990 C.ar  402  HEC402      0.0000
     28  C3C       28.5510   27.1790  -86.7800 C.ar  402  HEC402      0.0000
     29  C4C       27.8090   27.8060  -85.6660 C.ar  402  HEC402      0.0000
     30  CMC       28.4910   27.7250  -89.3620 C.3   402  HEC402      0.0000
     31  CAC       29.5670   26.0380  -86.7190 C.3   402  HEC402      0.0000
     32  CBC       30.8910   26.4280  -87.3180 C.3   402  HEC402      0.0000
     33  ND        26.5220   29.0140  -83.1610 N.2   402  HEC402      0.0000
     34  C1D       27.5530   28.2060  -83.1130 C.2   402  HEC402      0.0000
     35  C2D       28.2840   28.1670  -81.8310 C.2   402  HEC402      0.0000
     36  C3D       27.6330   29.1070  -81.0640 C.2   402  HEC402      0.0000
     37  C4D       26.5520   29.5850  -81.9580 C.2   402  HEC402      0.0000
     38  CMD       29.4890   27.3310  -81.4960 C.3   402  HEC402      0.0000
     39  CAD       27.8850   29.5640  -79.6270 C.3   402  HEC402      0.0000
     40  CBD       29.2660   30.1980  -79.5470 C.3   402  HEC402      0.0000
     41  CGD       29.4080   31.1910  -78.4120 C.2   402  HEC402      0.0000
     42  O1D       30.3170   32.0570  -78.4960 O.co2 402  HEC402      0.0000
     43  O2D       28.6310   31.1290  -77.4350 O.co2 402  HEC402      0.0000
@<TRIPOS>BOND
     1    24    23    1
     2    23    20    1
     3    30    27    1
     4    20    19    2
     5    20    21    1
     6    22    19    1
     7     4    21    2
     8     4    26    1
     9    19    18    1
    10    27    26   ar
    11    27    28   ar
    12    21    17    1
    13    26    25   ar
    14    32    31    1
    15    28    31    1
    16    28    29   ar
    17    18    17    2
    18    18     3    1
    19    17     1    1
    20    25    29   ar
    21    25     1    1
    22    29     5    1
    23     3    10    2
    24     1     6    1
    25     1    33    1
    26     5    34    2
    27    10     6   ar
    28    10     9   ar
    29     6     7   ar
    30    33    34    1
    31    33    37    2
    32    34    35    1
    33    11     9    1
    34     9     8   ar
    35     7     8   ar
    36     7     2    2
    37    37     2    1
    38    37    36    1
    39    35    38    1
    40    35    36    2
    41     8    12    1
    42    36    39    1
    43    12    13    1
    44    13    14    1
    45    39    40    1
    46    40    41    1
    47    42    41   ar
    48    41    43   ar
    49    14    15   ar
    50    14    16   ar
