@<TRIPOS>MOLECULE
4fb2_HEM_A_1.pdb
 49 56 0 0 0
SMALL
GASTEIGER

@<TRIPOS>ATOM
      1  CHA      -25.9730   55.9620   86.1310 C.2   501  HEM501      0.0000
      2  CHB      -27.3440   52.2040   88.8060 C.2   501  HEM501      0.0000
      3  CHC      -22.8000   51.6100   90.3570 C.2   501  HEM501      0.0000
      4  CHD      -21.4930   55.6350   88.0250 C.2   501  HEM501      0.0000
      5  C1A      -26.7290   54.9510   86.6530 C.2   501  HEM501      0.0000
      6  C2A      -28.1350   54.7150   86.3690 C.2   501  HEM501      0.0000
      7  C3A      -28.5180   53.6910   87.1530 C.2   501  HEM501      0.0000
      8  C4A      -27.3680   53.2240   87.9100 C.2   501  HEM501      0.0000
      9  CMA      -29.8950   53.0790   87.2660 C.3   501  HEM501      0.0000
     10  CAA      -28.9880   55.5480   85.4000 C.3   501  HEM501      0.0000
     11  CBA      -29.4440   56.8520   86.0550 C.3   501  HEM501      0.0000
     12  CGA      -30.4420   57.6280   85.2160 C.2   501  HEM501      0.0000
     13  O1A      -31.0210   57.0700   84.2520 O.co2 501  HEM501      0.0000
     14  O2A      -30.6750   58.8110   85.5420 O.co2 501  HEM501      0.0000
     15  C1B      -26.2500   51.6890   89.4580 C.ar  501  HEM501      0.0000
     16  C2B      -26.2270   50.5100   90.2580 C.ar  501  HEM501      0.0000
     17  C3B      -24.9510   50.3350   90.6890 C.ar  501  HEM501      0.0000
     18  C4B      -24.1530   51.4290   90.1750 C.ar  501  HEM501      0.0000
     19  CMB      -27.4770   49.6710   90.4830 C.3   501  HEM501      0.0000
     20  CAB      -24.3390   49.2370   91.5590 C.2   501  HEM501      0.0000
     21  CBB      -24.9110   48.0540   91.6230 C.2   501  HEM501      0.0000
     22  C1C      -22.0610   52.6220   89.8320 C.2   501  HEM501      0.0000
     23  C2C      -20.6060   52.7950   89.9850 C.2   501  HEM501      0.0000
     24  C3C      -20.2340   53.8880   89.3340 C.2   501  HEM501      0.0000
     25  C4C      -21.4320   54.4730   88.7500 C.2   501  HEM501      0.0000
     26  CMC      -19.7050   51.8450   90.7550 C.3   501  HEM501      0.0000
     27  CAC      -18.8240   54.4550   89.2190 C.2   501  HEM501      0.0000
     28  CBC      -18.3980   54.6550   87.9700 C.2   501  HEM501      0.0000
     29  C1D      -22.5990   56.0960   87.3450 C.ar  501  HEM501      0.0000
     30  C2D      -22.5920   57.3220   86.5940 C.ar  501  HEM501      0.0000
     31  C3D      -23.9340   57.4150   86.0100 C.ar  501  HEM501      0.0000
     32  C4D      -24.6660   56.2760   86.4830 C.ar  501  HEM501      0.0000
     33  CMD      -21.4710   58.3150   86.3830 C.3   501  HEM501      0.0000
     34  CAD      -24.4230   58.5380   85.0990 C.3   501  HEM501      0.0000
     35  CBD      -24.0550   58.2060   83.6490 C.3   501  HEM501      0.0000
     36  CGD      -24.5790   59.2660   82.7210 C.2   501  HEM501      0.0000
     37  O1D      -24.2350   59.1890   81.5210 O.co2 501  HEM501      0.0000
     38  O2D      -25.3280   60.1420   83.1750 O.co2 501  HEM501      0.0000
     39  NA       -26.2830   54.0260   87.5820 N.2   501  HEM501      0.0000
     40  NB       -24.9860   52.2340   89.4600 N.ar  501  HEM501      0.0000
     41  NC       -22.5300   53.6660   89.0430 N.2   501  HEM501      0.0000
     42  ND       -23.8290   55.5000   87.2650 N.ar  501  HEM501      0.0000
     43 FE        -24.3480   53.7180   88.1600 Fe    501  HEM501      0.0000
     44  HHB      -28.2070   51.7880   89.0120 H     501  HEM501      0.0000
     45  HHC      -22.3580   51.0280   91.0100 H     501  HEM501      0.0000
     46  HHD      -20.7270   56.2430   88.0940 H     501  HEM501      0.0000
     47  HAB      -23.5120   49.3960   92.0210 H     501  HEM501      0.0000
     48  HAC      -18.1900   54.3130   89.9250 H     501  HEM501      0.0000
     49  HHA      -26.3920   56.5190   85.4420 H     501  HEM501      0.0000
@<TRIPOS>BOND
     1    37    36   ar
     2    36    38   ar
     3    36    35    1
     4    35    34    1
     5    13    12   ar
     6    34    31    1
     7    12    14   ar
     8    12    11    1
     9    10    11    1
    10    10     6    1
    11    49     1    1
    12    31    32   ar
    13    31    30   ar
    14     1    32    2
    15     1     5    1
    16     6     5    1
    17     6     7    2
    18    33    30    1
    19    32    42   ar
    20    30    29   ar
    21     5    39    2
    22     7     9    1
    23     7     8    1
    24    42    29   ar
    25    42    43    1
    26    29     4    2
    27    39     8    1
    28    39    43    1
    29     8     2    2
    30    28    27    2
    31     4    46    1
    32     4    25    1
    33    43    41    1
    34    43    40    1
    35    25    41    2
    36    25    24    1
    37     2    44    1
    38     2    15    1
    39    41    22    1
    40    27    24    1
    41    27    48    1
    42    24    23    2
    43    15    40   ar
    44    15    16   ar
    45    40    18   ar
    46    22    23    1
    47    22     3    2
    48    23    26    1
    49    18     3    1
    50    18    17   ar
    51    16    19    1
    52    16    17   ar
    53     3    45    1
    54    17    20    1
    55    20    21    2
    56    20    47    1
