@<TRIPOS>MOLECULE
4fb4_DHC_A_1.pdb
 13 13 0 0 0
SMALL
GASTEIGER

@<TRIPOS>ATOM
      1  C1        10.3350   59.0460   30.0270 C.2   401  DHC401      0.3880
      2  O1         9.8660   57.9320   30.2790 O.co2 401  DHC401     -0.2405
      3  C2        11.1920   59.3150   28.8440 C.2   401  DHC401      0.0861
      4  C3        10.7790   60.2790   28.0510 C.2   401  DHC401      0.0069
      5  C1'       11.4530   60.6050   26.7210 C.ar  401  DHC401      0.0036
      6  C2'       10.6550   61.0660   25.6920 C.ar  401  DHC401      0.0454
      7  C3'       11.1850   61.3520   24.4540 C.ar  401  DHC401      0.2343
      8  C4'       12.6100   61.1830   24.1720 C.ar  401  DHC401      0.2343
      9  C5'       13.4110   60.6910   25.2030 C.ar  401  DHC401      0.0454
     10  C6'       12.8020   60.4050   26.4510 C.ar  401  DHC401      0.0035
     11  O4'       13.0770   61.5020   22.9310 O.3   401  DHC401     -0.2831
     12  O3'       10.3480   61.8390   23.5000 O.3   401  DHC401     -0.2831
     13  O2        10.0140   60.0460   30.7100 O.co2 401  DHC401     -0.2405
@<TRIPOS>BOND
     1    11     8    1
     2    12     7    1
     3     8     7   ar
     4     8     9   ar
     5     7     6   ar
     6     9    10   ar
     7     6     5   ar
     8    10     5   ar
     9     5     4    1
    10     4     3    2
    11     3     1    1
    12     1     2   ar
    13     1    13   ar
