@<TRIPOS>MOLECULE
4fba_ADE_A_1.pdb
 10 11 0 0 0
SMALL
GASTEIGER

@<TRIPOS>ATOM
      1  N9        27.4770   64.3340    2.4150 N.2   301  ADE301     -0.1914
      2  C8        27.1330   65.6440    2.2750 C.3   301  ADE301      0.2618
      3  N7        26.4700   65.8920    1.1730 N.2   301  ADE301     -0.2267
      4  C5        26.3540   64.6600    0.5460 C.2   301  ADE301      0.2303
      5  C6        25.7580   64.2500   -0.6670 C.2   301  ADE301      0.4393
      6  N6        25.1210   65.0770   -1.5070 N.pl3 301  ADE301      0.2185
      7  N1        25.8400   62.9400   -0.9840 N.2   301  ADE301     -0.0265
      8  C2        26.4740   62.1060   -0.1470 C.3   301  ADE301      0.4008
      9  N3        27.0730   62.3770    1.0140 N.2   301  ADE301     -0.1640
     10  C4        26.9780   63.6870    1.3050 C.1   301  ADE301      0.0579
@<TRIPOS>BOND
     1     6     5    1
     2     7     5    2
     3     7     8    1
     4     5     4    1
     5     8     9    1
     6     4     3    2
     7     4    10    1
     8     9    10    2
     9     3     2    1
    10    10     1    2
    11     2     1    1
