@<TRIPOS>MOLECULE
4fbb_ADE_A_1.pdb
 10 11 0 0 0
SMALL
GASTEIGER

@<TRIPOS>ATOM
      1  N9        27.3120   63.8180    1.7130 N.2   301  ADE301     -0.1914
      2  C8        27.1480   65.1520    1.9610 C.3   301  ADE301      0.2618
      3  N7        26.5120   65.7890    1.0030 N.2   301  ADE301     -0.2267
      4  C5        26.2400   64.8050    0.0660 C.2   301  ADE301      0.2303
      5  C6        25.5900   64.8160   -1.1850 C.2   301  ADE301      0.4393
      6  N6        25.0660   65.9020   -1.7640 N.pl3 301  ADE301      0.2185
      7  N1        25.5090   63.6490   -1.8490 N.2   301  ADE301     -0.0265
      8  C2        26.0270   62.5350   -1.3090 C.3   301  ADE301      0.4008
      9  N3        26.6610   62.3980   -0.1470 N.2   301  ADE301     -0.1640
     10  C4        26.7390   63.5870    0.4850 C.1   301  ADE301      0.0579
@<TRIPOS>BOND
     1     7     8    1
     2     7     5    2
     3     6     5    1
     4     8     9    1
     5     5     4    1
     6     9    10    2
     7     4    10    1
     8     4     3    2
     9    10     1    2
    10     3     2    1
    11     1     2    1
