@<TRIPOS>MOLECULE
4fbc_AMP_A_1.pdb
 23 25 0 0 0
SMALL
GASTEIGER

@<TRIPOS>ATOM
      1  P         34.3020   67.3720   -0.6520 P.3   301  AMP301      0.5327
      2  O1P       33.4500   68.6240   -0.5880 O.3   301  AMP301     -0.1145
      3  O2P       35.7170   67.4390   -0.1170 O.3   301  AMP301     -0.1145
      4  O3P       34.3250   66.8460   -2.0730 O.2   301  AMP301     -0.2224
      5  O5'       33.5240   66.1640    0.0420 O.3   301  AMP301     -0.2675
      6  C5'       33.8070   65.7760    1.3800 C.3   301  AMP301      0.1860
      7  C4'       32.8460   64.7130    1.8540 C.3   301  AMP301      0.1823
      8  O4'       31.5130   65.2780    1.9620 O.3   301  AMP301     -0.3135
      9  C3'       32.6720   63.5160    0.9250 C.3   301  AMP301      0.2184
     10  O3'       33.6940   62.5410    1.0750 O.3   301  AMP301     -0.2174
     11  C2'       31.2810   63.0070    1.2800 C.3   301  AMP301      0.2570
     12  O2'       31.3260   62.2210    2.4710 O.3   301  AMP301     -0.2130
     13  C1'       30.5460   64.3190    1.5870 C.3   301  AMP301      0.3186
     14  N9        29.7950   64.8400    0.4190 N.pl3 301  AMP301     -0.1439
     15  C8        30.0740   65.9760   -0.2630 C.3   301  AMP301      0.3377
     16  N7        29.1910   66.1880   -1.2750 N.2   301  AMP301     -0.2095
     17  C5        28.3040   65.1680   -1.2470 C.2   301  AMP301      0.2526
     18  C6        27.1010   64.7700   -2.0270 C.2   301  AMP301      0.4393
     19  N6        26.6640   65.5250   -3.0710 N.pl3 301  AMP301      0.2180
     20  N1        26.4560   63.6290   -1.6570 N.2   301  AMP301      0.0021
     21  C2        26.8870   62.8690   -0.6260 C.3   301  AMP301      0.5254
     22  N3        27.9620   63.1730    0.1270 N.2   301  AMP301     -0.0055
     23  C4        28.6980   64.2920   -0.1240 C.2   301  AMP301      0.3518
@<TRIPOS>BOND
     1    19    18    1
     2     4     1    2
     3    18    20    2
     4    18    17    1
     5    20    21    1
     6    16    17    2
     7    16    15    1
     8    17    23    1
     9     1     2    1
    10     1     3    1
    11     1     5    1
    12    21    22    1
    13    15    14    1
    14    23    22    2
    15    23    14    1
    16     5     6    1
    17    14    13    1
    18     9    10    1
    19     9    11    1
    20     9     7    1
    21    11    13    1
    22    11    12    1
    23     6     7    1
    24    13     8    1
    25     7     8    1
