@<TRIPOS>MOLECULE
4fbe_PBD_A_1.pdb
 22 23 0 0 0
SMALL
GASTEIGER

@<TRIPOS>ATOM
      1  CAA       27.4800   50.2950   43.9510 C.3   401  PBD401      0.2526
      2  CAB       27.9350   50.5480   49.3480 C.3   401  PBD401      0.2526
      3  SAC       22.2610   46.1500   49.6850 S.2   401  PBD401     -0.0152
      4  CAD       28.7020   41.1730   46.6110 C.ar  401  PBD401      0.1193
      5  CAE       24.7910   48.2000   46.3530 C.ar  401  PBD401      0.0199
      6  CAF       25.8070   48.6550   45.5250 C.ar  401  PBD401      0.0414
      7  CAG       27.8570   41.7470   47.4670 C.ar  401  PBD401      0.0980
      8  CAH       26.6960   41.0220   45.7790 C.ar  401  PBD401      0.1786
      9  CAI       25.8640   49.2000   48.2610 C.ar  401  PBD401      0.0566
     10  CAJ       25.6050   43.5860   48.0300 C.3   401  PBD401      0.0479
     11  CAK       24.2970   44.3000   48.4070 C.3   401  PBD401      0.1162
     12  CAL       25.3700   42.1360   47.5660 C.3   401  PBD401      0.1095
     13  NAM       27.9820   40.7080   45.5690 N.ar  401  PBD401     -0.2223
     14  NAN       24.4690   45.7590   48.1980 N.am  401  PBD401     -0.2164
     15  NAO       23.8160   47.9880   48.4750 N.am  401  PBD401     -0.1905
     16  OAP       27.8670   49.8400   45.2420 O.3   401  PBD401     -0.4684
     17  OAQ       27.9470   50.3890   47.9020 O.3   401  PBD401     -0.4683
     18  CAR       23.6250   46.6720   48.6940 C.2   401  PBD401      0.1745
     19  CAS       24.8090   48.4610   47.7210 C.ar  401  PBD401      0.0756
     20  CAT       26.8550   49.3980   46.0490 C.ar  401  PBD401      0.1725
     21  CAU       26.8890   49.6730   47.4230 C.ar  401  PBD401      0.1737
     22  NAV       26.6200   41.6180   46.9530 N.ar  401  PBD401     -0.3078
@<TRIPOS>BOND
     1     1    16    1
     2    16    20    1
     3     6    20   ar
     4     6     5   ar
     5    13     8   ar
     6    13     4   ar
     7     8    22   ar
     8    20    21   ar
     9     5    19   ar
    10     4     7   ar
    11    22     7   ar
    12    22    12    1
    13    21    17    1
    14    21     9   ar
    15    12    10    1
    16    19     9   ar
    17    19    15    1
    18    17     2    1
    19    10    11    1
    20    14    11    1
    21    14    18    1
    22    15    18    1
    23    18     3    2
