@<TRIPOS>MOLECULE
4fbg_NAD_A_1.pdb
 44 48 0 0 0
SMALL
GASTEIGER

@<TRIPOS>ATOM
      1  PA        91.6560   13.6700  -90.2010 P.3   1001  NAD1001     0.2189
      2  O1A       92.6180   14.3020  -89.2310 O.3   1001  NAD1001    -0.4371
      3  O2A       91.2310   14.6890  -91.3920 O.2   1001  NAD1001    -0.5170
      4  O5B       92.2360   12.3480  -90.9110 O.3   1001  NAD1001    -0.3112
      5  C5B       91.4710   11.6490  -91.9040 C.3   1001  NAD1001     0.1813
      6  C4B       92.2940   10.4780  -92.4780 C.3   1001  NAD1001     0.1821
      7  O4B       91.7700   10.1940  -93.8350 O.3   1001  NAD1001    -0.3135
      8  C3B       93.7770   10.9200  -92.6480 C.3   1001  NAD1001     0.2184
      9  O3B       94.6620    9.9020  -92.1500 O.3   1001  NAD1001    -0.2174
     10  C2B       93.9410   11.0880  -94.1500 C.3   1001  NAD1001     0.2570
     11  O2B       95.2700   10.7490  -94.5750 O.3   1001  NAD1001    -0.2130
     12  C1B       92.9450   10.0680  -94.6920 C.3   1001  NAD1001     0.3186
     13  N9A       92.7260   10.3600  -96.1940 N.pl3 1001  NAD1001    -0.1439
     14  C8A       91.7280   11.3810  -96.5660 C.3   1001  NAD1001     0.3377
     15  N7A       91.0820   10.7720  -97.7950 N.2   1001  NAD1001    -0.2095
     16  C5A       91.6170    9.5630  -98.0000 C.2   1001  NAD1001     0.2526
     17  C6A       91.3220    8.6540  -98.9670 C.2   1001  NAD1001     0.4393
     18  N6A       90.3800    8.9800  -99.8870 N.pl3 1001  NAD1001     0.2180
     19  N1A       91.9720    7.4790  -99.0350 N.2   1001  NAD1001     0.0021
     20  C2A       93.0440    7.0990  -98.0100 C.3   1001  NAD1001     0.5254
     21  N3A       93.2900    8.1810  -96.9900 N.2   1001  NAD1001    -0.0055
     22  C4A       92.5810    9.3340  -97.0210 C.2   1001  NAD1001     0.3518
     23  O3        90.2550   13.2210  -89.4670 O.3   1001  NAD1001    -0.2703
     24  PN        90.2190   12.1360  -88.2440 P.3   1001  NAD1001     0.2189
     25  O1N       90.3710   12.8820  -86.9710 O.3   1001  NAD1001    -0.4371
     26  O2N       91.1560   11.0280  -88.5620 O.2   1001  NAD1001    -0.5170
     27  O5D       88.6910   11.5970  -88.3250 O.3   1001  NAD1001    -0.3112
     28  C5D       88.3630   10.3320  -88.9300 C.3   1001  NAD1001     0.1813
     29  C4D       86.9180    9.9480  -88.5820 C.3   1001  NAD1001     0.1799
     30  O4D       86.6180   10.4380  -87.2520 O.3   1001  NAD1001    -0.3327
     31  C3D       85.9580   10.6530  -89.5480 C.3   1001  NAD1001     0.2158
     32  O3D       85.1380    9.6650  -90.2050 O.3   1001  NAD1001    -0.2175
     33  C2D       85.1120   11.5740  -88.6620 C.3   1001  NAD1001     0.2309
     34  O2D       83.7210   11.5310  -89.0640 O.3   1001  NAD1001    -0.2158
     35  C1D       85.2720   10.9500  -87.2800 C.3   1001  NAD1001     0.2263
     36  N1N       85.1430   11.9160  -86.1540 N.pl3 1001  NAD1001    -0.2787
     37  C2N       85.2580   13.3140  -86.3360 C.3   1001  NAD1001     0.1244
     38  C3N       85.1300   14.1690  -85.2370 C.2   1001  NAD1001     0.0544
     39  C7N       85.2400   15.5480  -85.3930 C.2   1001  NAD1001     0.2818
     40  O7N       84.0860   16.2580  -85.5500 O.2   1001  NAD1001    -0.2670
     41  N7N       86.4800   16.0550  -85.3520 N.am  1001  NAD1001    -0.0839
     42  C4N       84.8980   13.6410  -83.9660 C.2   1001  NAD1001     0.0033
     43  C5N       84.7860   12.2660  -83.7750 C.2   1001  NAD1001     0.0157
     44  C6N       84.9140   11.4060  -84.8630 C.2   1001  NAD1001     0.0633
@<TRIPOS>BOND
     1    18    17    1
     2    19    17    2
     3    19    20    1
     4    17    16    1
     5    20    21    1
     6    16    15    2
     7    16    22    1
     8    15    14    1
     9    22    21    2
    10    22    13    1
    11    14    13    1
    12    13    12    1
    13    12    10    1
    14    12     7    1
    15    11    10    1
    16    10     8    1
    17     7     6    1
    18     8     6    1
    19     8     9    1
    20     6     5    1
    21     5     4    1
    22     3     1    2
    23     4     1    1
    24    32    31    1
    25     1    23    1
    26     1     2    1
    27    31    33    1
    28    31    29    1
    29    23    24    1
    30    34    33    1
    31    28    29    1
    32    28    27    1
    33    33    35    1
    34    29    30    1
    35    26    24    2
    36    27    24    1
    37    24    25    1
    38    35    30    1
    39    35    36    1
    40    37    36    1
    41    37    38    1
    42    36    44    1
    43    40    39    2
    44    39    41   am
    45    39    38    1
    46    38    42    2
    47    44    43    2
    48    42    43    1
