@<TRIPOS>MOLECULE
4fbh_AMP_A_1.pdb
 23 25 0 0 0
SMALL
GASTEIGER

@<TRIPOS>ATOM
      1  P         23.0860    3.7950    0.6050 P.3   301  AMP301      0.5327
      2  O1P       22.4160    2.7240   -0.2280 O.2   301  AMP301     -0.2224
      3  O2P       24.6030    3.8400    0.6270 O.3   301  AMP301     -0.1145
      4  O3P       22.5190    5.1580    0.2290 O.3   301  AMP301     -0.1145
      5  O5'       22.5370    3.7180    2.0980 O.3   301  AMP301     -0.2675
      6  C5'       22.1470    4.8940    2.7840 C.3   301  AMP301      0.1860
      7  C4'       21.9570    4.6360    4.2490 C.3   301  AMP301      0.1823
      8  O4'       21.1730    3.4300    4.4370 O.3   301  AMP301     -0.3135
      9  C3'       23.2200    4.3670    5.0470 C.3   301  AMP301      0.2184
     10  O3'       23.9390    5.5520    5.3590 O.3   301  AMP301     -0.2174
     11  C2'       22.6710    3.6520    6.2710 C.3   301  AMP301      0.2570
     12  O2'       22.0940    4.5930    7.1620 O.3   301  AMP301     -0.2130
     13  C1'       21.5360    2.8220    5.6580 C.3   301  AMP301      0.3186
     14  N9        21.9340    1.4210    5.3990 N.pl3 301  AMP301     -0.1439
     15  C8        22.1900    0.8440    4.2070 C.3   301  AMP301      0.3377
     16  N7        22.5100   -0.4730    4.3490 N.2   301  AMP301     -0.2095
     17  C5        22.4600   -0.7590    5.6610 C.2   301  AMP301      0.2526
     18  C6        22.6780   -1.9510    6.5210 C.2   301  AMP301      0.4393
     19  N6        23.0440   -3.1510    6.0080 N.pl3 301  AMP301      0.2180
     20  N1        22.5060   -1.8030    7.8510 N.2   301  AMP301      0.0021
     21  C2        22.1660   -0.6320    8.4080 C.3   301  AMP301      0.5254
     22  N3        21.9530    0.4870    7.6940 N.2   301  AMP301     -0.0055
     23  C4        22.0770    0.4910    6.3430 C.2   301  AMP301      0.3518
@<TRIPOS>BOND
     1     2     1    2
     2     4     1    1
     3     1     3    1
     4     1     5    1
     5     5     6    1
     6     6     7    1
     7    15    16    1
     8    15    14    1
     9     7     8    1
    10     7     9    1
    11    16    17    2
    12     8    13    1
    13     9    10    1
    14     9    11    1
    15    14    13    1
    16    14    23    1
    17    13    11    1
    18    17    23    1
    19    17    18    1
    20    19    18    1
    21    11    12    1
    22    23    22    2
    23    18    20    2
    24    22    21    1
    25    20    21    1
