@<TRIPOS>MOLECULE
4fbl_SPD_A_1.pdb
 10 9 0 0 0
SMALL
GASTEIGER

@<TRIPOS>ATOM
      1  N1       -22.2950  -24.5100   -4.7550 N.3   301  SPD301     -0.1314
      2  C2       -21.9380  -25.8860   -5.2400 C.3   301  SPD301      0.1094
      3  C3       -22.8170  -27.1990   -5.1010 C.3   301  SPD301      0.0220
      4  C4       -22.1170  -28.4560   -4.5180 C.3   301  SPD301      0.0203
      5  C5       -22.0050  -29.7780   -5.3190 C.3   301  SPD301      0.0887
      6  N6       -23.2310  -30.5610   -5.2130 N.3   301  SPD301     -0.2180
      7  C7       -24.3370  -30.2750   -4.2820 C.3   301  SPD301      0.0902
      8  C8       -24.1370  -30.9150   -2.9110 C.3   301  SPD301      0.0393
      9  C9       -22.6540  -31.1270   -2.4790 C.3   301  SPD301      0.1108
     10  N10      -21.9840  -32.4150   -2.7560 N.3   301  SPD301     -0.1313
@<TRIPOS>BOND
     1     5     6    1
     2     5     4    1
     3     2     3    1
     4     2     1    1
     5     6     7    1
     6     3     4    1
     7     7     8    1
     8     8     9    1
     9    10     9    1
