@<TRIPOS>MOLECULE
4fbp_AMP_A_1.pdb
 23 25 0 0 0
SMALL
GASTEIGER

@<TRIPOS>ATOM
      1  P         -0.6260   48.1210   91.2810 P.3   338  AMP338      0.5327
      2  O1P        0.2210   47.6190   90.1320 O.2   338  AMP338     -0.2224
      3  O2P       -0.1170   49.4530   91.7590 O.3   338  AMP338     -0.1145
      4  O3P       -2.0660   48.3070   90.8420 O.3   338  AMP338     -0.1145
      5  O5'       -0.5950   46.9770   92.4050 O.3   338  AMP338     -0.2675
      6  C5'       -1.2370   47.1900   93.7090 C.3   338  AMP338      0.1860
      7  C4'       -0.6250   46.3050   94.6880 C.3   338  AMP338      0.1823
      8  O4'       -0.5910   44.9360   94.2260 O.3   338  AMP338     -0.3135
      9  C3'        0.8570   46.6430   94.8790 C.3   338  AMP338      0.2184
     10  O3'        1.1210   47.7380   95.7190 O.3   338  AMP338     -0.2174
     11  C2'        1.4220   45.3250   95.3950 C.3   338  AMP338      0.2570
     12  O2'        1.3020   45.1380   96.8000 O.3   338  AMP338     -0.2130
     13  C1'        0.6220   44.2920   94.5610 C.3   338  AMP338      0.3186
     14  N9         1.4160   43.9110   93.3240 N.pl3 338  AMP338     -0.1439
     15  C8         1.4560   44.6150   92.1560 C.3   338  AMP338      0.3377
     16  N7         2.4630   44.1610   91.3400 N.2   338  AMP338     -0.2095
     17  C5         3.1230   43.2030   92.0630 C.2   338  AMP338      0.2526
     18  C6         4.3590   42.5660   91.7460 C.2   338  AMP338      0.4393
     19  N6         4.8550   42.5510   90.5220 N.pl3 338  AMP338      0.2180
     20  N1         4.7540   41.6240   92.6750 N.2   338  AMP338      0.0021
     21  C2         4.3280   41.8160   93.9630 C.3   338  AMP338      0.5254
     22  N3         3.1150   42.3720   94.2690 N.2   338  AMP338     -0.0055
     23  C4         2.5980   43.2090   93.3420 C.2   338  AMP338      0.3518
@<TRIPOS>BOND
     1     2     1    2
     2    19    18    1
     3     4     1    1
     4     1     3    1
     5     1     5    1
     6    16    17    2
     7    16    15    1
     8    18    17    1
     9    18    20    2
    10    17    23    1
    11    15    14    1
    12     5     6    1
    13    20    21    1
    14    14    23    1
    15    14    13    1
    16    23    22    2
    17     6     7    1
    18    21    22    1
    19     8    13    1
    20     8     7    1
    21    13    11    1
    22     7     9    1
    23     9    11    1
    24     9    10    1
    25    11    12    1
