@<TRIPOS>MOLECULE
4fbx_0TJ_B_1.pdb
 17 18 0 0 0
SMALL
GASTEIGER

@<TRIPOS>ATOM
      1 BR1        16.3200   -6.2860   17.5920 Br      1  0TJ1       -0.0472
      2  CAM       17.5620   -4.8680   18.1130 C.2     1  0TJ1        0.0564
      3  CAK       17.8830   -4.6590   19.4480 C.2     1  0TJ1        0.0350
      4 BR2        17.1210   -5.7640   20.8490 Br      1  0TJ1       -0.0519
      5  CAL       18.7790   -3.6290   19.7930 C.3     1  0TJ1        0.1155
      6 BR3        19.2310   -3.3350   21.6460 Br      1  0TJ1       -0.0709
      7  CAN       19.3510   -2.8100   18.8050 C.2     1  0TJ1        0.0421
      8 BR4        20.5750   -1.4210   19.4010 Br      1  0TJ1       -0.0511
      9  CAP       19.0220   -3.0190   17.4380 C.2     1  0TJ1        0.0709
     10  CAO       18.1340   -4.0420   17.1010 C.2     1  0TJ1        0.0979
     11  NAI       17.9850   -4.0360   15.7300 N.2     1  0TJ1       -0.2463
     12  CAG       18.7540   -3.0460   15.2320 C.3     1  0TJ1        0.2203
     13  N         19.3970   -2.4240   16.2410 N.pl3   1  0TJ1       -0.2776
     14  CA        20.2970   -1.2820   16.0630 C.3     1  0TJ1        0.1820
     15  C         19.5670    0.0240   16.1060 C.2     1  0TJ1        0.2810
     16  O         18.7960    0.3080   15.2030 O.2     1  0TJ1       -0.2698
     17  NAA       19.7370    0.9160   17.1990 N.am    1  0TJ1       -0.0863
@<TRIPOS>BOND
     1    16    15    2
     2    12    11    1
     3    12    13    1
     4    11    10    2
     5    14    15    1
     6    14    13    1
     7    15    17   am
     8    13     9    1
     9    10     9    1
    10    10     2    1
    11     9     7    2
    12     1     2    1
    13     2     3    2
    14     7     8    1
    15     7     5    1
    16     3     5    1
    17     3     4    1
    18     5     6    1
