@<TRIPOS>MOLECULE
4fby_HEM_E_1.pdb
 43 50 0 0 0
SMALL
GASTEIGER

@<TRIPOS>ATOM
      1  CHA      137.7350   89.7370   46.8620 C.2   101  HEM101      0.0000
      2  CHB      133.8960   90.6020   49.6680 C.2   101  HEM101      0.0000
      3  CHC      135.4240   87.2460   52.8640 C.2   101  HEM101      0.0000
      4  CHD      139.2940   86.3810   50.0290 C.2   101  HEM101      0.0000
      5  C1A      136.5680   90.2530   47.3580 C.ar  101  HEM101      0.0000
      6  C2A      135.7880   91.2750   46.7090 C.ar  101  HEM101      0.0000
      7  C3A      134.7220   91.5280   47.4700 C.ar  101  HEM101      0.0000
      8  C4A      134.7960   90.6620   48.6320 C.ar  101  HEM101      0.0000
      9  CMA      133.6120   92.5570   47.1650 C.3   101  HEM101      0.0000
     10  CAA      136.1780   91.9400   45.3760 C.3   101  HEM101      0.0000
     11  CBA      137.2590   92.9610   45.7350 C.3   101  HEM101      0.0000
     12  CGA      137.8480   93.6340   44.5230 C.2   101  HEM101      0.0000
     13  O1A      138.3940   94.7580   44.6760 O.co2 101  HEM101      0.0000
     14  O2A      137.7680   93.0550   43.4100 O.co2 101  HEM101      0.0000
     15  C1B      133.9780   89.7750   50.7660 C.2   101  HEM101      0.0000
     16  C2B      133.0130   89.7330   51.8320 C.2   101  HEM101      0.0000
     17  C3B      133.4050   88.8310   52.7260 C.2   101  HEM101      0.0000
     18  C4B      134.6550   88.2330   52.2610 C.2   101  HEM101      0.0000
     19  CMB      131.7430   90.5990   51.9310 C.3   101  HEM101      0.0000
     20  CAB      132.5770   88.5460   53.9970 C.2   101  HEM101      0.0000
     21  CBB      133.0670   87.8520   55.0190 C.2   101  HEM101      0.0000
     22  C1C      136.6110   86.7130   52.3790 C.ar  101  HEM101      0.0000
     23  C2C      137.4340   85.6740   52.9890 C.ar  101  HEM101      0.0000
     24  C3C      138.5020   85.4670   52.1910 C.ar  101  HEM101      0.0000
     25  C4C      138.3770   86.3390   51.0550 C.ar  101  HEM101      0.0000
     26  CMC      137.1180   84.9790   54.3330 C.3   101  HEM101      0.0000
     27  CAC      139.7050   84.4950   52.2900 C.2   101  HEM101      0.0000
     28  CBC      139.7270   83.3950   53.0410 C.2   101  HEM101      0.0000
     29  C1D      139.2500   87.1870   48.9200 C.2   101  HEM101      0.0000
     30  C2D      140.2300   87.2080   47.8560 C.2   101  HEM101      0.0000
     31  C3D      139.7310   88.2780   46.8800 C.2   101  HEM101      0.0000
     32  C4D      138.5030   88.7660   47.4440 C.2   101  HEM101      0.0000
     33  CMD      141.5090   86.3520   47.7390 C.3   101  HEM101      0.0000
     34  CAD      140.3360   88.7160   45.5350 C.3   101  HEM101      0.0000
     35  CBD      139.9310   87.5650   44.6080 C.3   101  HEM101      0.0000
     36  CGD      139.1680   87.9790   43.3730 C.2   101  HEM101      0.0000
     37  O1D      139.2620   89.1550   42.9470 O.co2 101  HEM101      0.0000
     38  O2D      138.4540   87.1180   42.7950 O.co2 101  HEM101      0.0000
     39  NA       135.9390   89.8940   48.5300 N.ar  101  HEM101      0.0000
     40  NB       134.9640   88.8470   51.0560 N.2   101  HEM101      0.0000
     41  NC       137.2250   87.0860   51.1970 N.ar  101  HEM101      0.0000
     42  ND       138.2530   88.1130   48.6430 N.2   101  HEM101      0.0000
     43 FE        136.6000   88.4650   49.8690 Fe    101  HEM101      0.0000
@<TRIPOS>BOND
     1    38    36   ar
     2    37    36   ar
     3    36    35    1
     4    14    12   ar
     5    12    13   ar
     6    12    11    1
     7    35    34    1
     8    10    11    1
     9    10     6    1
    10    34    31    1
    11     6     5   ar
    12     6     7   ar
    13     1     5    2
    14     1    32    1
    15    31    32    1
    16    31    30    2
    17     9     7    1
    18     5    39   ar
    19    32    42    2
    20     7     8   ar
    21    33    30    1
    22    30    29    1
    23    39     8   ar
    24    39    43    1
    25     8     2    2
    26    42    29    1
    27    42    43    1
    28    29     4    2
    29     2    15    1
    30    43    40    1
    31    43    41    1
    32     4    25    1
    33    15    40    2
    34    15    16    1
    35    25    41   ar
    36    25    24   ar
    37    40    18    1
    38    41    22   ar
    39    16    19    1
    40    16    17    2
    41    24    27    1
    42    24    23   ar
    43    18    17    1
    44    18     3    2
    45    27    28    2
    46    22     3    1
    47    22    23   ar
    48    17    20    1
    49    23    26    1
    50    20    21    2
