@<TRIPOS>MOLECULE
4fc6_NAP_A_1.pdb
 48 52 0 0 0
SMALL
GASTEIGER

@<TRIPOS>ATOM
      1  PA        42.5990    7.6170   33.4370 P.3   401  NAP401      0.2189
      2  O1A       42.5320    9.1110   33.9100 O.2   401  NAP401     -0.5170
      3  O2A       43.4410    6.6910   34.2420 O.3   401  NAP401     -0.4371
      4  O5B       43.1780    7.5720   31.9490 O.3   401  NAP401     -0.3112
      5  C5B       43.0990    8.6850   31.0770 C.3   401  NAP401      0.1813
      6  C4B       44.5340    8.9130   30.5950 C.3   401  NAP401      0.1820
      7  O4B       44.5140    9.9010   29.5480 O.3   401  NAP401     -0.3136
      8  C3B       45.4730    9.4070   31.6900 C.3   401  NAP401      0.2157
      9  O3B       46.5570    8.4480   31.7100 O.3   401  NAP401     -0.2175
     10  C2B       45.9570   10.7610   31.1810 C.3   401  NAP401      0.2314
     11  O2B       47.3340   10.9740   31.4790 O.3   401  NAP401     -0.2630
     12  C1B       45.6810   10.6770   29.6690 C.3   401  NAP401      0.3158
     13  N9A       45.3960   11.9850   29.0480 N.pl3 401  NAP401     -0.1439
     14  C8A       44.4240   12.8540   29.3970 C.3   401  NAP401      0.3377
     15  N7A       44.4770   13.9520   28.6020 N.2   401  NAP401     -0.2095
     16  C5A       45.5110   13.7700   27.7180 C.2   401  NAP401      0.2526
     17  C6A       46.1180   14.5080   26.6120 C.2   401  NAP401      0.4393
     18  N6A       45.6460   15.7090   26.2530 N.pl3 401  NAP401      0.2180
     19  N1A       47.1550   13.9540   25.9350 N.2   401  NAP401      0.0021
     20  C2A       47.6450   12.7550   26.2550 C.3   401  NAP401      0.5254
     21  N3A       47.1490   12.0290   27.2710 N.2   401  NAP401     -0.0055
     22  C4A       46.0770   12.4640   27.9820 C.2   401  NAP401      0.3518
     23  O3        41.0650    7.1400   33.3020 O.3   401  NAP401     -0.2703
     24  PN        40.4080    5.6740   32.9950 P.3   401  NAP401      0.2189
     25  O1N       39.1070    5.6180   33.7260 O.3   401  NAP401     -0.4371
     26  O2N       41.3430    4.5060   33.0480 O.2   401  NAP401     -0.5170
     27  O5D       39.9750    5.8770   31.4460 O.3   401  NAP401     -0.3112
     28  C5D       40.7820    5.4390   30.3350 C.3   401  NAP401      0.1813
     29  C4D       39.9380    5.2710   29.0870 C.3   401  NAP401      0.1799
     30  O4D       38.8180    4.4320   29.3000 O.3   401  NAP401     -0.3327
     31  C3D       39.3840    6.6040   28.6480 C.3   401  NAP401      0.2158
     32  O3D       39.3310    6.6710   27.1940 O.3   401  NAP401     -0.2175
     33  C2D       37.9820    6.6270   29.2190 C.3   401  NAP401      0.2309
     34  O2D       37.1220    7.5260   28.5510 O.3   401  NAP401     -0.2158
     35  C1D       37.6040    5.1760   28.9830 C.3   401  NAP401      0.2263
     36  N1N       36.4610    4.7440   29.8010 N.pl3 401  NAP401     -0.2787
     37  C2N       36.6420    4.4330   31.1370 C.3   401  NAP401      0.1244
     38  C3N       35.5760    3.9570   31.9070 C.2   401  NAP401      0.0544
     39  C7N       35.7810    3.6770   33.3920 C.2   401  NAP401      0.2818
     40  O7N       34.8100    3.2400   33.9540 O.2   401  NAP401     -0.2670
     41  N7N       36.9460    3.9730   34.0480 N.am  401  NAP401     -0.0839
     42  C4N       34.3030    3.7670   31.2840 C.2   401  NAP401      0.0033
     43  C5N       34.1290    4.0740   29.8730 C.2   401  NAP401      0.0157
     44  C6N       35.2350    4.5730   29.1720 C.2   401  NAP401      0.0633
     45  P2B       48.1400   12.3880   31.5530 P.3   401  NAP401      0.5328
     46  O1X       47.3720   13.0700   32.6270 O.3   401  NAP401     -0.1145
     47  O2X       49.5660   11.9910   31.8800 O.3   401  NAP401     -0.1145
     48  O3X       48.0160   13.0320   30.1660 O.2   401  NAP401     -0.2224
@<TRIPOS>BOND
     1    19    20    1
     2    19    17    2
     3    18    17    1
     4    20    21    1
     5    17    16    1
     6    32    31    1
     7    21    22    2
     8    16    22    1
     9    16    15    2
    10    22    13    1
    11    34    33    1
    12    15    14    1
    13    31    29    1
    14    31    33    1
    15    35    33    1
    16    35    30    1
    17    35    36    1
    18    13    14    1
    19    13    12    1
    20    29    30    1
    21    29    28    1
    22    44    36    1
    23    44    43    2
    24     7    12    1
    25     7     6    1
    26    12    10    1
    27    36    37    1
    28    43    42    1
    29    48    45    2
    30    28    27    1
    31     6     5    1
    32     6     8    1
    33     5     4    1
    34    37    38    1
    35    10    11    1
    36    10     8    1
    37    42    38    2
    38    27    24    1
    39    11    45    1
    40    45    47    1
    41    45    46    1
    42     8     9    1
    43    38    39    1
    44     4     1    1
    45    24    26    2
    46    24    23    1
    47    24    25    1
    48    23     1    1
    49    39    40    2
    50    39    41   am
    51     1     2    2
    52     1     3    1
