@<TRIPOS>MOLECULE
4fc7_COA_A_1.pdb
 48 50 0 0 0
SMALL
GASTEIGER

@<TRIPOS>ATOM
      1  N1A       33.0860   19.8430   35.8810 N.2   402  COA402      0.0021
      2  C2A       32.8530   20.8640   34.9990 C.3   402  COA402      0.5254
      3  N3A       33.8360   21.3500   34.2420 N.2   402  COA402     -0.0055
      4  C4A       35.1100   20.8970   34.3250 C.2   402  COA402      0.3518
      5  C5A       35.4460   19.8070   35.2560 C.2   402  COA402      0.2526
      6  C6A       34.3280   19.2810   36.0750 C.2   402  COA402      0.4393
      7  N6A       34.5450   18.2440   36.9570 N.pl3 402  COA402      0.2180
      8  N7A       36.7730   19.5530   35.0860 N.2   402  COA402     -0.2095
      9  C8A       37.2650   20.3850   34.1240 C.3   402  COA402      0.3377
     10  N9A       36.2700   21.1900   33.7010 N.pl3 402  COA402     -0.1439
     11  C1B       36.3860   22.2870   32.6820 C.3   402  COA402      0.3185
     12  C2B       37.3850   23.3750   33.1680 C.3   402  COA402      0.2543
     13  O2B       36.7940   24.1610   34.1830 O.3   402  COA402     -0.2131
     14  C3B       37.7590   24.1160   31.9050 C.3   402  COA402      0.1928
     15  O3B       36.6380   24.9840   31.5970 O.3   402  COA402     -0.2673
     16  P3B       36.6430   26.6240   31.5870 P.3   402  COA402      0.5327
     17  O7A       37.6890   26.8280   30.5200 O.2   402  COA402     -0.2224
     18  O8A       35.2330   26.9900   31.1900 O.3   402  COA402     -0.1145
     19  O9A       37.0090   27.0700   33.0180 O.3   402  COA402     -0.1145
     20  C4B       37.7480   22.9240   30.8920 C.3   402  COA402      0.1795
     21  O4B       36.9300   21.8500   31.4170 O.3   402  COA402     -0.3136
     22  C5B       39.1040   22.3390   30.5750 C.3   402  COA402      0.1812
     23  O5B       39.7390   22.1260   31.8550 O.3   402  COA402     -0.3112
     24  P1A       41.3470   22.0480   31.8360 P.3   402  COA402      0.2189
     25  O1A       41.7730   21.5050   33.1750 O.3   402  COA402     -0.4371
     26  O2A       41.9000   23.3360   31.3030 O.2   402  COA402     -0.5170
     27  O3A       41.4110   20.8910   30.7110 O.3   402  COA402     -0.2703
     28  P2A       42.6750   19.9210   30.4700 P.3   402  COA402      0.2188
     29  O4A       43.9500   20.4090   31.1810 O.3   402  COA402     -0.4371
     30  O5A       42.8560   19.8400   28.9820 O.2   402  COA402     -0.5170
     31  O6A       42.2590   18.4980   31.1210 O.3   402  COA402     -0.3138
     32  CBP       40.1990   17.2620   31.7120 C.3   402  COA402      0.0645
     33  CCP       41.2090   17.6830   30.6360 C.3   402  COA402      0.1519
     34  CDP       39.3000   18.4260   32.2160 C.3   402  COA402      0.0056
     35  CEP       39.3770   16.2390   30.9180 C.3   402  COA402      0.0056
     36  CAP       40.7850   16.6300   32.9750 C.3   402  COA402      0.2312
     37  OAP       39.6150   16.1160   33.6550 O.3   402  COA402     -0.2131
     38  C9P       41.7150   15.4550   32.7210 C.2   402  COA402      0.2719
     39  O9P       42.8600   15.6500   32.4170 O.2   402  COA402     -0.2706
     40  N8P       41.2640   14.2050   32.9040 N.am  402  COA402     -0.2028
     41  C7P       42.0900   13.0430   32.5190 C.3   402  COA402      0.1248
     42  C6P       41.7810   11.7230   33.2080 C.3   402  COA402      0.1102
     43  C5P       40.3040   11.3230   33.1790 C.2   402  COA402      0.2432
     44  O5P       39.3130   12.1110   33.1620 O.2   402  COA402     -0.2733
     45  N4P       40.1050   10.0020   33.1960 N.am  402  COA402     -0.2044
     46  C3P       38.7640    9.5350   32.8780 C.3   402  COA402      0.1276
     47  C2P       38.5470    9.2260   31.3610 C.3   402  COA402      0.0920
     48  S1P       37.1690    8.2010   31.8750 S.3   402  COA402     -0.0802
@<TRIPOS>BOND
     1    30    28    2
     2    28    27    1
     3    28    31    1
     4    28    29    1
     5    17    16    2
     6    22    20    1
     7    22    23    1
     8    33    31    1
     9    33    32    1
    10    27    24    1
    11    20    21    1
    12    20    14    1
    13    35    32    1
    14    18    16    1
    15    26    24    2
    16    47    48    1
    17    47    46    1
    18    21    11    1
    19    16    15    1
    20    16    19    1
    21    15    14    1
    22    32    34    1
    23    32    36    1
    24    24    23    1
    25    24    25    1
    26    14    12    1
    27    39    38    2
    28    41    40    1
    29    41    42    1
    30    11    12    1
    31    11    10    1
    32    38    40   am
    33    38    36    1
    34    46    45    1
    35    36    37    1
    36    44    43    2
    37    12    13    1
    38    43    45   am
    39    43    42    1
    40    10     9    1
    41    10     4    1
    42     9     8    1
    43     3     4    2
    44     3     2    1
    45     4     5    1
    46     2     1    1
    47     8     5    2
    48     5     6    1
    49     1     6    2
    50     6     7    1
