@<TRIPOS>MOLECULE
4fc7_NAP_A_1.pdb
 48 52 0 0 0
SMALL
GASTEIGER

@<TRIPOS>ATOM
      1  PA        42.3940    6.9230   33.1060 P.3   401  NAP401      0.2189
      2  O1A       42.3200    8.3220   33.5870 O.2   401  NAP401     -0.5170
      3  O2A       43.1250    5.8960   33.9770 O.3   401  NAP401     -0.4371
      4  O5B       42.8170    6.9170   31.5460 O.3   401  NAP401     -0.3112
      5  C5B       42.8750    8.1030   30.7780 C.3   401  NAP401      0.1813
      6  C4B       44.3370    8.2250   30.3170 C.3   401  NAP401      0.1820
      7  O4B       44.3340    9.2040   29.2930 O.3   401  NAP401     -0.3136
      8  C3B       45.3590    8.6720   31.3770 C.3   401  NAP401      0.2157
      9  O3B       46.4460    7.7140   31.3080 O.3   401  NAP401     -0.2175
     10  C2B       45.7930   10.0580   30.9120 C.3   401  NAP401      0.2314
     11  O2B       47.1980   10.2670   31.0680 O.3   401  NAP401     -0.2630
     12  C1B       45.5290   10.0070   29.4070 C.3   401  NAP401      0.3158
     13  N9A       45.1920   11.3220   28.8100 N.pl3 401  NAP401     -0.1439
     14  C8A       44.1440   12.1580   29.1360 C.3   401  NAP401      0.3377
     15  N7A       44.1740   13.2680   28.3270 N.2   401  NAP401     -0.2095
     16  C5A       45.2120   13.1240   27.4430 C.2   401  NAP401      0.2526
     17  C6A       45.7930   13.9220   26.3540 C.2   401  NAP401      0.4393
     18  N6A       45.2240   15.1430   26.0560 N.pl3 401  NAP401      0.2180
     19  N1A       46.8520   13.4110   25.7030 N.2   401  NAP401      0.0021
     20  C2A       47.4010   12.1880   26.0210 C.3   401  NAP401      0.5254
     21  N3A       46.9390   11.4420   27.0630 N.2   401  NAP401     -0.0055
     22  C4A       45.8590   11.8380   27.7530 C.2   401  NAP401      0.3518
     23  O3        40.8840    6.4120   32.9670 O.3   401  NAP401     -0.2703
     24  PN        40.1450    4.9710   32.5840 P.3   401  NAP401      0.2189
     25  O1N       38.9160    5.0570   33.4560 O.3   401  NAP401     -0.4371
     26  O2N       41.0940    3.8500   32.6790 O.2   401  NAP401     -0.5170
     27  O5D       39.7340    5.2480   31.0600 O.3   401  NAP401     -0.3112
     28  C5D       40.5120    4.6900   29.9860 C.3   401  NAP401      0.1813
     29  C4D       39.6950    4.7290   28.7100 C.3   401  NAP401      0.1799
     30  O4D       38.5570    3.8700   28.8810 O.3   401  NAP401     -0.3327
     31  C3D       39.0670    6.0650   28.2970 C.3   401  NAP401      0.2158
     32  O3D       39.0320    6.1650   26.8720 O.3   401  NAP401     -0.2175
     33  C2D       37.6250    6.0120   28.7710 C.3   401  NAP401      0.2309
     34  O2D       36.7880    6.8270   27.9440 O.3   401  NAP401     -0.2158
     35  C1D       37.3210    4.5310   28.5760 C.3   401  NAP401      0.2263
     36  N1N       36.1980    4.0800   29.4410 N.pl3 401  NAP401     -0.2787
     37  C2N       36.3640    3.8240   30.7880 C.3   401  NAP401      0.1244
     38  C3N       35.2570    3.4320   31.5290 C.2   401  NAP401      0.0544
     39  C7N       35.4740    3.1150   32.9780 C.2   401  NAP401      0.2818
     40  O7N       34.5410    2.6100   33.5780 O.2   401  NAP401     -0.2670
     41  N7N       36.6890    3.3220   33.5170 N.am  401  NAP401     -0.0839
     42  C4N       33.9490    3.2210   30.9180 C.2   401  NAP401      0.0033
     43  C5N       33.8490    3.4790   29.5460 C.2   401  NAP401      0.0157
     44  C6N       34.9770    3.9240   28.8240 C.2   401  NAP401      0.0633
     45  P2B       47.9210   11.7320   31.2950 P.3   401  NAP401      0.5328
     46  O1X       47.0990   12.4210   32.3110 O.3   401  NAP401     -0.1145
     47  O2X       49.4000   11.3720   31.5610 O.3   401  NAP401     -0.1145
     48  O3X       47.7540   12.3980   29.9390 O.2   401  NAP401     -0.2224
@<TRIPOS>BOND
     1    19    20    1
     2    19    17    2
     3    20    21    1
     4    18    17    1
     5    17    16    1
     6    32    31    1
     7    21    22    2
     8    16    22    1
     9    16    15    2
    10    22    13    1
    11    34    33    1
    12    31    29    1
    13    31    33    1
    14    15    14    1
    15    35    33    1
    16    35    30    1
    17    35    36    1
    18    29    30    1
    19    29    28    1
    20    13    14    1
    21    13    12    1
    22    44    36    1
    23    44    43    2
    24     7    12    1
    25     7     6    1
    26    12    10    1
    27    36    37    1
    28    43    42    1
    29    48    45    2
    30    28    27    1
    31     6     5    1
    32     6     8    1
    33     5     4    1
    34    37    38    1
    35    10    11    1
    36    10     8    1
    37    42    38    2
    38    27    24    1
    39    11    45    1
    40    45    47    1
    41    45    46    1
    42     9     8    1
    43    38    39    1
    44     4     1    1
    45    24    26    2
    46    24    23    1
    47    24    25    1
    48    23     1    1
    49    39    41   am
    50    39    40    2
    51     1     2    2
    52     1     3    1
