@<TRIPOS>MOLECULE
4fcb_0T7_A_1.pdb
 30 34 0 0 0
SMALL
GASTEIGER

@<TRIPOS>ATOM
      1  C1        17.2610   -9.6020  -36.2400 C.3   803  0T7803      0.0005
      2  C2        17.6580  -10.2310  -34.9150 C.3   803  0T7803      0.0089
      3  C3        19.1130   -9.9130  -34.5660 C.3   803  0T7803      0.0751
      4  C4        19.7040  -11.0500  -33.8050 C.2   803  0T7803      0.1635
      5  N1        19.6640  -11.0670  -32.4880 N.2   803  0T7803     -0.3977
      6  C5        20.2700  -12.2240  -32.0810 C.2   803  0T7803      0.1131
      7  C6        20.6970  -12.9540  -33.1750 C.3   803  0T7803      0.1751
      8  N2        20.3290  -12.1910  -34.2940 N.pl3 803  0T7803     -0.2538
      9  C7        20.6270  -12.6660  -35.6070 C.2   803  0T7803      0.0798
     10  C8        20.3140  -12.0020  -36.7960 C.2   803  0T7803     -0.0006
     11  C9        20.6630  -12.5640  -38.0340 C.3   803  0T7803      0.0913
     12  C10       21.3250  -13.7990  -38.1050 C.2   803  0T7803      0.1236
     13  C11       21.6360  -14.4640  -36.9170 C.2   803  0T7803      0.0660
     14  C12       21.2980  -13.9090  -35.6710 C.2   803  0T7803      0.1466
     15  N3        21.6670  -14.6620  -34.5320 N.2   803  0T7803     -0.4071
     16  C13       21.3890  -14.2230  -33.3460 C.2   803  0T7803      0.1119
     17  C14       21.8260  -15.1040  -32.2090 C.3   803  0T7803      0.0637
     18  O1        21.6040  -14.2540  -39.3680 O.2   803  0T7803     -0.4717
     19  C15       22.6720  -15.2010  -39.4860 C.3   803  0T7803      0.2631
     20  C16       22.4320  -16.0350  -40.7110 C.2   803  0T7803      0.1524
     21  C17       22.8950  -15.5890  -41.9450 C.2   803  0T7803      0.0314
     22  C18       22.6580  -16.3800  -43.0680 C.2   803  0T7803      0.0046
     23  C19       21.9670  -17.5950  -42.9380 C.2   803  0T7803      0.0258
     24  C20       21.7130  -18.4200  -44.0520 C.2   803  0T7803      0.0019
     25  C21       21.0250  -19.6240  -43.8890 C.2   803  0T7803     -0.0041
     26  C22       20.5920  -20.0080  -42.6240 C.2   803  0T7803     -0.0187
     27  C23       20.8490  -19.1880  -41.5160 C.3   803  0T7803      0.0849
     28  C24       21.5300  -17.9790  -41.6420 C.2   803  0T7803      0.1130
     29  N4        21.7590  -17.2090  -40.5530 N.2   803  0T7803     -0.4065
     30  C25       20.3680  -12.4840  -30.6310 C.3   803  0T7803      0.0637
@<TRIPOS>BOND
     1    24    25    1
     2    24    23    2
     3    25    26    2
     4    22    23    1
     5    22    21    2
     6    23    28    1
     7    26    27    1
     8    21    20    1
     9    28    27    1
    10    28    29    2
    11    20    29    2
    12    20    19    1
    13    19    18    1
    14    18    12    1
    15    12    11    1
    16    12    13    2
    17    11    10    1
    18    13    14    1
    19    10     9    2
    20     1     2    1
    21    14     9    1
    22    14    15    2
    23     9     8    1
    24     2     3    1
    25     3     4    1
    26    15    16    2
    27     8     4    1
    28     8     7    1
    29     4     5    2
    30    16     7    1
    31    16    17    1
    32     7     6    1
    33     5     6    2
    34     6    30    1
