@<TRIPOS>MOLECULE
4fcd_0T6_A_1.pdb
 25 28 0 0 0
SMALL
GASTEIGER

@<TRIPOS>ATOM
      1  C1        21.2100  -12.7090  -30.8710 C.3   803  0T6803      0.0747
      2  C2        20.9560  -12.0520  -32.1650 C.2   803  0T6803      0.1975
      3  C3        21.3450  -12.4640  -33.4220 C.2   803  0T6803      0.3825
      4  N1        22.0390  -13.5480  -33.8570 N.2   803  0T6803      0.0831
      5  N2        22.2950  -13.7470  -35.0730 N.2   803  0T6803     -0.0311
      6  C4        21.8440  -12.8130  -36.0430 C.2   803  0T6803      0.1863
      7  C5        21.1110  -11.6600  -35.6720 C.3   803  0T6803      0.2396
      8  N3        20.8670  -11.5040  -34.2900 N.pl3 803  0T6803     -0.1350
      9  C6        20.2100  -10.5450  -33.5220 C.2   803  0T6803      0.2764
     10  N4        20.2600  -10.8740  -32.2410 N.2   803  0T6803     -0.3621
     11  C7        19.5330   -9.3360  -33.9910 C.ar  803  0T6803      0.0795
     12  C8        20.0210   -8.0580  -33.6560 C.ar  803  0T6803      0.0070
     13  C9        19.3590   -6.9090  -34.1100 C.ar  803  0T6803      0.0003
     14  C10       18.2040   -7.0200  -34.8930 C.ar  803  0T6803      0.0009
     15  C11       17.7040   -8.2840  -35.2250 C.ar  803  0T6803      0.0116
     16  C12       18.3680   -9.4360  -34.7710 C.ar  803  0T6803      0.0636
     17 CL1        17.7450  -10.9990  -35.1970 Cl    803  0T6803     -0.0820
     18  C13       20.6810  -10.7560  -36.6380 C.2   803  0T6803      0.0637
     19  C14       20.9660  -10.9680  -37.9870 C.2   803  0T6803      0.1418
     20  C15       21.6890  -12.1130  -38.3750 C.2   803  0T6803      0.0751
     21  C16       22.1360  -13.0410  -37.4070 C.2   803  0T6803      0.1631
     22  O1        22.8560  -14.1960  -37.6620 O.2   803  0T6803     -0.4699
     23  C17       23.5150  -14.3730  -38.9160 C.3   803  0T6803      0.2525
     24  O2        20.4520   -9.9620  -38.7680 O.2   803  0T6803     -0.4715
     25  C18       20.7630   -9.9050  -40.1540 C.3   803  0T6803      0.2525
@<TRIPOS>BOND
     1    25    24    1
     2    23    22    1
     3    24    19    1
     4    20    19    1
     5    20    21    2
     6    19    18    2
     7    22    21    1
     8    21     6    1
     9    18     7    1
    10     6     7    1
    11     6     5    2
    12     7     8    1
    13    15    14   ar
    14    15    16   ar
    15    17    16    1
    16     5     4    1
    17    14    13   ar
    18    16    11   ar
    19     8     9    1
    20     8     3    1
    21    13    12   ar
    22    11    12   ar
    23    11     9    1
    24     4     3    2
    25     9    10    2
    26     3     2    1
    27    10     2    2
    28     2     1    1
