@<TRIPOS>MOLECULE
4fce_GP1_A_1.pdb
 16 16 0 0 0
SMALL
GASTEIGER

@<TRIPOS>ATOM
      1  C1B        5.3680   36.0240   -7.6930 C.3   503  GP1503      0.2651
      2  C2B        4.3500   36.8260   -8.6180 C.3   503  GP1503      0.1812
      3  C3B        2.9320   36.7040   -8.0060 C.3   503  GP1503      0.2071
      4  C4B        2.5990   35.1760   -7.8220 C.3   503  GP1503      0.2133
      5  C5B        3.7360   34.4980   -6.9620 C.3   503  GP1503      0.1834
      6  C6B        3.4810   32.9700   -6.8740 C.3   503  GP1503      0.2142
      7  N2B        4.7730   38.2320   -8.7420 N.3   503  GP1503     -0.1247
      8  O1B        5.3180   36.5200   -6.4780 O.3   503  GP1503     -0.2428
      9  O3B        1.9390   37.2170   -8.8210 O.3   503  GP1503     -0.2186
     10  O4B        1.3400   35.0310   -7.2150 O.3   503  GP1503     -0.2176
     11  O5B        4.6880   32.3710   -6.4490 O.3   503  GP1503     -0.2176
     12  O6B        4.8990   34.6860   -7.6920 O.3   503  GP1503     -0.3261
     13  O7B        7.8500   35.9460   -6.2580 O.2   503  GP1503     -0.2223
     14  P4B        6.7570   36.4910   -5.3640 P.3   503  GP1503      0.5345
     15  O8B        6.2180   35.5870   -4.2730 O.3   503  GP1503     -0.1145
     16  O9B        6.8170   37.9640   -5.0240 O.3   503  GP1503     -0.1145
@<TRIPOS>BOND
     1     9     3    1
     2     7     2    1
     3     2     3    1
     4     2     1    1
     5     3     4    1
     6     4    10    1
     7     4     5    1
     8     1    12    1
     9     1     8    1
    10    12     5    1
    11     5     6    1
    12     6    11    1
    13     8    14    1
    14    13    14    2
    15    14    16    1
    16    14    15    1
