@<TRIPOS>MOLECULE
4fcf_MA4_A_1.pdb
 35 37 0 0 0
SMALL
GASTEIGER

@<TRIPOS>ATOM
      1  C1        35.7500   25.2970    2.2420 C.3   301  MA4301      0.2695
      2  C2        36.2950   24.6490    0.9940 C.3   301  MA4301      0.2406
      3  C3        36.0170   23.1560    0.9360 C.3   301  MA4301      0.2198
      4  C4        36.3770   22.4510    2.2240 C.3   301  MA4301      0.2144
      5  C5        35.8360   23.1920    3.4420 C.3   301  MA4301      0.1835
      6  C6        36.3300   22.5910    4.7570 C.3   301  MA4301      0.2142
      7  O2        35.7180   25.3060   -0.1050 O.3   301  MA4301     -0.2149
      8  O3        36.7390   22.6180   -0.1800 O.3   301  MA4301     -0.2174
      9  O5        36.1910   24.5820    3.3940 O.3   301  MA4301     -0.3256
     10  O6        37.7640   22.5890    4.7500 O.3   301  MA4301     -0.2176
     11  O1        34.3250   25.2540    2.2030 O.3   301  MA4301     -0.3257
     12  O4        35.8450   21.1480    2.2500 O.3   301  MA4301     -0.2176
     13  C10       31.0590   27.6620    2.7180 C.3   301  MA4301      0.2695
     14  C20       31.8770   27.9800    1.4810 C.3   301  MA4301      0.2404
     15  C30       32.7680   26.7760    1.2120 C.3   301  MA4301      0.2167
     16  C40       33.6300   26.4970    2.4350 C.3   301  MA4301      0.1804
     17  C50       32.8120   26.3170    3.6940 C.3   301  MA4301      0.1803
     18  C60       33.6510   26.2600    4.9310 C.3   301  MA4301      0.2141
     19  O10       30.2850   28.7870    3.0290 O.3   301  MA4301     -0.3286
     20  O20       31.0360   28.2530    0.3720 O.3   301  MA4301     -0.2149
     21  O30       33.5890   27.0980    0.1200 O.3   301  MA4301     -0.2175
     22  O50       31.9700   27.4900    3.8280 O.3   301  MA4301     -0.3257
     23  O60       34.4730   27.4390    4.9560 O.3   301  MA4301     -0.2176
     24  C11       29.2930   28.4900    4.0560 C.3   301  MA4301      0.1449
     25  C21       28.0020   28.2210    3.3690 C.3   301  MA4301      0.0322
     26  C31       26.9230   27.7940    4.3630 C.3   301  MA4301      0.0026
     27  C41       25.4980   28.1550    3.8540 C.3   301  MA4301      0.0001
     28  C51       24.3470   27.4510    4.5190 C.3   301  MA4301      0.0000
     29  C61       24.4270   27.3760    6.0360 C.3   301  MA4301      0.0000
     30  C12       23.1180   27.0760    6.7280 C.3   301  MA4301      0.0000
     31  C22       23.0700   28.0390    7.9400 C.3   301  MA4301      0.0000
     32  C32       22.4570   27.5260    9.2370 C.3   301  MA4301      0.0000
     33  C42       21.6140   26.3010    9.0040 C.3   301  MA4301      0.0000
     34  C52       22.5180   25.2380    8.4390 C.3   301  MA4301      0.0000
     35  C62       23.1190   25.5940    7.1140 C.3   301  MA4301      0.0000
@<TRIPOS>BOND
     1     8     3    1
     2     7     2    1
     3    21    15    1
     4    20    14    1
     5     3     2    1
     6     3     4    1
     7     2     1    1
     8    15    14    1
     9    15    16    1
    10    14    13    1
    11    11     1    1
    12    11    16    1
    13     4    12    1
    14     4     5    1
    15     1     9    1
    16    16    17    1
    17    13    19    1
    18    13    22    1
    19    19    24    1
    20    25    24    1
    21    25    26    1
    22     9     5    1
    23     5     6    1
    24    17    22    1
    25    17    18    1
    26    27    26    1
    27    27    28    1
    28    28    29    1
    29    10     6    1
    30    18    23    1
    31    29    30    1
    32    30    35    1
    33    30    31    1
    34    35    34    1
    35    31    32    1
    36    34    33    1
    37    33    32    1
