@<TRIPOS>MOLECULE
4fch_GLC_A_1.pdb
 11 11 0 0 0
SMALL
GASTEIGER

@<TRIPOS>ATOM
      1  C1         5.4330    0.3660   -6.5170 C.3   405  GLC405      0.1777
      2  C2         5.8120   -0.2090   -5.1820 C.3   405  GLC405      0.2141
      3  C3         5.0050    0.4760   -4.0690 C.3   405  GLC405      0.2173
      4  C4         5.2020    1.9730   -4.1390 C.3   405  GLC405      0.2142
      5  C5         4.7270    2.4220   -5.5160 C.3   405  GLC405      0.1810
      6  C6         4.8430    3.9200   -5.8000 C.3   405  GLC405      0.2141
      7  O2         5.7050   -1.6380   -5.1580 O.3   405  GLC405     -0.2176
      8  O3         5.4600   -0.0260   -2.7850 O.3   405  GLC405     -0.2175
      9  O4         4.2810    2.5050   -3.1510 O.3   405  GLC405     -0.2176
     10  O5         5.5420    1.7860   -6.5320 O.3   405  GLC405     -0.3481
     11  O6         6.1960    4.3310   -5.5630 O.3   405  GLC405     -0.2176
@<TRIPOS>BOND
     1    10     1    1
     2    10     5    1
     3     1     2    1
     4     6    11    1
     5     6     5    1
     6     5     4    1
     7     2     7    1
     8     2     3    1
     9     4     3    1
    10     4     9    1
    11     3     8    1
