@<TRIPOS>MOLECULE
4fci_GPA_A_1.pdb
 10 9 0 0 0
SMALL
GASTEIGER

@<TRIPOS>ATOM
      1  N         20.6610  -18.1170    4.1310 N.3   403  GPA403     -0.1169
      2  CA        21.1210  -17.7990    5.5160 C.3   403  GPA403      0.2373
      3  C         20.3240  -16.6100    5.9870 C.2   403  GPA403      0.3855
      4  OA1       20.0570  -16.2100    7.1270 O.co2 403  GPA403     -0.2439
      5  OA2       19.8450  -15.8960    4.7900 O.co2 403  GPA403     -0.2439
      6  CD        22.6340  -17.4680    5.4430 C.3   403  GPA403      0.2508
      7  NE        23.0110  -16.1050    4.9910 N.pl3 403  GPA403     -0.0843
      8  CZ        24.0470  -15.3560    5.5630 C.cat 403  GPA403      0.5346
      9  NH1       24.8470  -15.8090    6.5290 N.pl3 403  GPA403      0.1354
     10  NH2       24.2500  -14.0500    5.0850 N.pl3 403  GPA403      0.1354
@<TRIPOS>BOND
     1     1     2    1
     2     5     3   ar
     3     7     6    1
     4     7     8    2
     5    10     8    1
     6     6     2    1
     7     2     3    1
     8     8     9    1
     9     3     4   ar
