@<TRIPOS>MOLECULE
4fck_GPA_A_1.pdb
 10 9 0 0 0
SMALL
GASTEIGER

@<TRIPOS>ATOM
      1  N         25.8790   -9.2960   -3.9350 N.3   401  GPA401     -0.1169
      2  CA        25.6360   -9.3620   -5.3640 C.3   401  GPA401      0.2373
      3  C         24.1500   -9.2060   -5.6600 C.2   401  GPA401      0.3855
      4  OA1       23.2320   -9.0550   -4.8560 O.co2 401  GPA401     -0.2439
      5  OA2       23.9030   -9.2250   -6.9860 O.co2 401  GPA401     -0.2439
      6  CD        26.1190  -10.7150   -5.9690 C.3   401  GPA401      0.2508
      7  NE        25.4250  -11.8170   -5.3020 N.pl3 401  GPA401     -0.0843
      8  CZ        25.4660  -13.0920   -5.9130 C.cat 401  GPA401      0.5346
      9  NH1       24.5950  -14.0060   -5.3170 N.pl3 401  GPA401      0.1354
     10  NH2       26.1830  -13.5100   -6.9200 N.pl3 401  GPA401      0.1354
@<TRIPOS>BOND
     1     5     3   ar
     2    10     8    1
     3     6     2    1
     4     6     7    1
     5     8     9    1
     6     8     7    2
     7     3     2    1
     8     3     4   ar
     9     2     1    1
