@<TRIPOS>MOLECULE
4fcn_HEM_A_1.pdb
 43 50 0 0 0
SMALL
GASTEIGER

@<TRIPOS>ATOM
      1  CHA        3.2580  -15.8320  -23.0480 C.2   403  HEM403      0.0000
      2  CHB        4.3420  -20.4010  -24.6870 C.2   403  HEM403      0.0000
      3  CHC       -0.3970  -21.1570  -25.7620 C.2   403  HEM403      0.0000
      4  CHD       -1.4380  -16.7370  -23.7810 C.2   403  HEM403      0.0000
      5  C1A        3.9800  -17.0380  -23.3850 C.ar  403  HEM403      0.0000
      6  C2A        5.3760  -17.3150  -23.1220 C.ar  403  HEM403      0.0000
      7  C3A        5.6550  -18.5770  -23.5700 C.ar  403  HEM403      0.0000
      8  C4A        4.4220  -19.1270  -24.0990 C.ar  403  HEM403      0.0000
      9  CMA        7.0660  -19.3140  -23.5510 C.3   403  HEM403      0.0000
     10  CAA        6.3420  -16.2860  -22.4830 C.3   403  HEM403      0.0000
     11  CBA        6.4540  -16.5720  -20.9360 C.3   403  HEM403      0.0000
     12  CGA        7.5730  -15.6040  -20.4210 C.2   403  HEM403      0.0000
     13  O1A        8.7690  -15.9940  -20.6830 O.co2 403  HEM403      0.0000
     14  O2A        7.3250  -14.5210  -19.8270 O.co2 403  HEM403      0.0000
     15  C1B        3.1570  -21.0000  -25.1750 C.2   403  HEM403      0.0000
     16  C2B        3.0680  -22.2170  -25.8310 C.2   403  HEM403      0.0000
     17  C3B        1.7330  -22.4260  -26.0980 C.2   403  HEM403      0.0000
     18  C4B        0.9760  -21.2880  -25.6490 C.2   403  HEM403      0.0000
     19  CMB        4.2570  -23.1850  -26.0780 C.3   403  HEM403      0.0000
     20  CAB        1.2750  -23.6600  -26.8280 C.2   403  HEM403      0.0000
     21  CBB        0.0670  -23.8350  -27.3370 C.2   403  HEM403      0.0000
     22  C1C       -1.0590  -20.0500  -25.1950 C.ar  403  HEM403      0.0000
     23  C2C       -2.5190  -19.8940  -25.1100 C.ar  403  HEM403      0.0000
     24  C3C       -2.8240  -18.7200  -24.5340 C.ar  403  HEM403      0.0000
     25  C4C       -1.5380  -18.0170  -24.2520 C.ar  403  HEM403      0.0000
     26  CMC       -3.4820  -20.9890  -25.6120 C.3   403  HEM403      0.0000
     27  CAC       -4.3280  -18.2460  -24.3850 C.2   403  HEM403      0.0000
     28  CBC       -4.6140  -17.5260  -23.4190 C.2   403  HEM403      0.0000
     29  C1D       -0.2570  -16.0670  -23.5580 C.2   403  HEM403      0.0000
     30  C2D       -0.1540  -14.6790  -23.2600 C.2   403  HEM403      0.0000
     31  C3D        1.2410  -14.4280  -23.0450 C.2   403  HEM403      0.0000
     32  C4D        1.9200  -15.6670  -23.1970 C.2   403  HEM403      0.0000
     33  CMD       -1.3030  -13.6410  -23.3140 C.3   403  HEM403      0.0000
     34  CAD        1.8420  -13.0550  -22.7550 C.3   403  HEM403      0.0000
     35  CBD        2.0760  -12.9490  -21.2100 C.3   403  HEM403      0.0000
     36  CGD        2.6100  -11.5430  -20.8790 C.2   403  HEM403      0.0000
     37  O1D        2.7290  -11.1670  -19.6850 O.co2 403  HEM403      0.0000
     38  O2D        2.8130  -10.6890  -21.7540 O.co2 403  HEM403      0.0000
     39  NA         3.4290  -18.1350  -24.0170 N.ar  403  HEM403      0.0000
     40  NB         1.9090  -20.3820  -25.1620 N.2   403  HEM403      0.0000
     41  NC        -0.5520  -18.9040  -24.6770 N.ar  403  HEM403      0.0000
     42  ND         1.0230  -16.6720  -23.6040 N.2   403  HEM403      0.0000
     43 FE          1.5020  -18.3960  -24.6670 Fe    403  HEM403      0.0000
@<TRIPOS>BOND
     1    21    20    2
     2    20    17    1
     3    17    16    2
     4    17    18    1
     5    19    16    1
     6    16    15    1
     7     3    18    2
     8     3    22    1
     9    18    40    1
    10    26    23    1
    11    22    23   ar
    12    22    41   ar
    13    15    40    2
    14    15     2    1
    15    40    43    1
    16    23    24   ar
    17     2     8    2
    18    41    43    1
    19    41    25   ar
    20    43    39    1
    21    43    42    1
    22    24    27    1
    23    24    25   ar
    24    27    28    2
    25    25     4    1
    26     8    39   ar
    27     8     7   ar
    28    39     5   ar
    29     4    29    2
    30    42    29    1
    31    42    32    2
    32     7     9    1
    33     7     6   ar
    34    29    30    1
    35     5     6   ar
    36     5     1    2
    37    33    30    1
    38    30    31    2
    39    32     1    1
    40    32    31    1
    41     6    10    1
    42    31    34    1
    43    34    35    1
    44    10    11    1
    45    38    36   ar
    46    35    36    1
    47    11    12    1
    48    36    37   ar
    49    13    12   ar
    50    12    14   ar
