@<TRIPOS>MOLECULE
4fcp_42C_A_1.pdb
 12 13 0 0 0
SMALL
GASTEIGER

@<TRIPOS>ATOM
      1  C1        -0.0240    9.9550   50.1580 C.2   301  42C301      0.3481
      2  C2        -1.0990   10.5290   49.4510 C.2   301  42C301      0.2219
      3  C3        -2.3820   10.5330   50.0230 C.1   301  42C301      0.0576
      4  C5        -1.5740    9.4490   51.9340 C.3   301  42C301      0.4005
      5  C8        -2.4730   11.4710   48.0680 C.3   301  42C301      0.2618
      6  C11        2.3700    9.6260   50.5610 C.3   301  42C301      0.2537
      7  C12        1.7040   10.2070   48.2790 C.3   301  42C301      0.2537
      8  N10        1.2740    9.9340   49.6580 N.pl3 301  42C301     -0.1813
      9  N6        -0.3370    9.4210   51.4030 N.2   301  42C301     -0.0336
     10  N4        -2.5950   10.0110   51.2660 N.2   301  42C301     -0.1640
     11  N9        -3.1970   11.1110   49.1290 N.2   301  42C301     -0.1914
     12  N7        -1.1930   11.1160   48.2670 N.2   301  42C301     -0.2269
@<TRIPOS>BOND
     1     5    12    1
     2     5    11    1
     3    12     2    2
     4     7     8    1
     5    11     3    2
     6     2     3    1
     7     2     1    1
     8     8     1    1
     9     8     6    1
    10     3    10    2
    11     1     9    2
    12    10     4    1
    13     9     4    1
