@<TRIPOS>MOLECULE
4fcq_2N6_A_1.pdb
 21 23 0 0 0
SMALL
GASTEIGER

@<TRIPOS>ATOM
      1  C19       32.8040   13.4700   24.3610 C.3   301  2N6301      0.0311
      2  C17       33.5560   12.1200   24.1830 C.ar  301  2N6301     -0.0199
      3  C16       34.9050   12.2220   23.8690 C.ar  301  2N6301     -0.0084
      4  C15       35.6920   11.0880   23.6760 C.ar  301  2N6301     -0.0222
      5  C18       37.1840   11.2220   23.2850 C.3   301  2N6301      0.0310
      6  C14       35.1260    9.8340   23.8150 C.ar  301  2N6301     -0.0042
      7  C13       33.8090    9.7080   24.1660 C.ar  301  2N6301      0.0016
      8  C5        32.9980   10.8350   24.3190 C.ar  301  2N6301      0.0238
      9  C4        31.6890   10.6050   24.7470 C.2   301  2N6301      0.1410
     10  C8        30.5210   10.9430   24.0760 C.3   301  2N6301      0.1842
     11  N1        31.5500   10.0500   25.9750 N.2   301  2N6301     -0.3374
     12  C2        30.3250    9.8160   26.5520 C.1   301  2N6301      0.1769
     13  S6        30.1770    9.0140   28.1200 S.3   301  2N6301     -0.0166
     14  C7        31.3040    7.5960   27.9840 C.3   301  2N6301      0.0872
     15  N3        29.2090   10.1460   25.9140 N.2   301  2N6301     -0.2841
     16  C9        29.2950   10.6750   24.6810 C.1   301  2N6301      0.0872
     17  N10       28.3600   11.0710   23.8550 N.2   301  2N6301     -0.1843
     18  C11       28.9140   11.5820   22.7500 C.2   301  2N6301      0.1176
     19  C12       30.2340   11.5330   22.8490 C.2   301  2N6301      0.0875
     20  C20       31.2310   11.9690   21.9060 C.1   301  2N6301      0.0992
     21  N21       32.0500   12.2700   21.1850 N.1   301  2N6301     -0.1911
@<TRIPOS>BOND
     1    21    20    3
     2    20    19    1
     3    18    19    2
     4    18    17    1
     5    19    10    1
     6     5     4    1
     7     4     6   ar
     8     4     3   ar
     9     6     7   ar
    10    17    16    2
    11     3     2   ar
    12    10    16    1
    13    10     9    1
    14     7     8   ar
    15     2     8   ar
    16     2     1    1
    17     8     9    1
    18    16    15    2
    19     9    11    2
    20    15    12    2
    21    11    12    2
    22    12    13    1
    23    14    13    1
