@<TRIPOS>MOLECULE
4fcr_0TM_A_1.pdb
 29 31 0 0 0
SMALL
GASTEIGER

@<TRIPOS>ATOM
      1  C14       33.7080    6.8120   23.3140 C.3   301  0TM301      0.2526
      2  O1        34.5290    8.0390   23.4290 O.3   301  0TM301     -0.4684
      3  C5        33.9090    9.2400   23.6870 C.ar  301  0TM301      0.1725
      4  C4        32.5500    9.3130   24.1570 C.ar  301  0TM301      0.0432
      5  C6        34.6450   10.3860   23.5940 C.ar  301  0TM301      0.1732
      6  O2        35.9770   10.2050   23.1870 O.3   301  0TM301     -0.4683
      7  C17       36.8800   11.3040   23.5660 C.3   301  0TM301      0.2526
      8  C1        34.0560   11.6540   23.8290 C.ar  301  0TM301      0.0515
      9  C2        32.7260   11.7650   24.2920 C.ar  301  0TM301      0.0631
     10 CL         32.0790   13.3370   24.5680 Cl    301  0TM301     -0.0821
     11  C3        31.9540   10.5820   24.3950 C.ar  301  0TM301      0.0415
     12  C7        30.6010   10.6430   24.8550 C.2   301  0TM301      0.1422
     13  N1        30.3680   10.0530   26.0640 N.2   301  0TM301     -0.3374
     14  C9        29.4930   11.2190   24.1580 C.3   301  0TM301      0.1842
     15  C12       29.2700   11.8060   22.9640 C.2   301  0TM301      0.0875
     16  C13       30.2750   12.1150   21.9420 C.1   301  0TM301      0.0992
     17  N4        31.0660   12.3440   21.1290 N.1   301  0TM301     -0.1911
     18  C11       27.9580   12.1200   22.8970 C.2   301  0TM301      0.1176
     19  N3        27.2600   11.7010   23.9620 N.2   301  0TM301     -0.1843
     20  C10       28.2070   11.1480   24.7550 C.1   301  0TM301      0.0872
     21  N2        28.0580   10.5280   25.8990 N.2   301  0TM301     -0.2841
     22  C8        29.1330   10.0330   26.6150 C.1   301  0TM301      0.1774
     23  S         28.6680    9.3340   28.1170 S.3   301  0TM301     -0.0077
     24  C15       30.1300    8.3530   28.6000 C.3   301  0TM301      0.1593
     25  C16       30.4430    7.1670   27.6730 C.2   301  0TM301      0.2379
     26  O3        29.6090    6.8190   26.8410 O.2   301  0TM301     -0.2739
     27  N5        31.6430    6.5510   27.8330 N.am  301  0TM301     -0.2753
     28  C18       32.6120    6.9750   28.8670 C.3   301  0TM301      0.1149
     29  C19       31.9860    5.4220   26.9630 C.3   301  0TM301      0.1149
@<TRIPOS>BOND
     1    17    16    3
     2    16    15    1
     3    18    15    2
     4    18    19    1
     5    15    14    1
     6     6     7    1
     7     6     5    1
     8     1     2    1
     9     2     3    1
    10     5     3   ar
    11     5     8   ar
    12     3     4   ar
    13     8     9   ar
    14    19    20    2
    15     4    11   ar
    16    14    20    1
    17    14    12    1
    18     9    11   ar
    19     9    10    1
    20    11    12    1
    21    20    21    2
    22    12    13    2
    23    21    22    2
    24    13    22    2
    25    22    23    1
    26    26    25    2
    27    29    27    1
    28    25    27   am
    29    25    24    1
    30    27    28    1
    31    23    24    1
