@<TRIPOS>MOLECULE
4fcs_HEM_A_1.pdb
 43 50 0 0 0
SMALL
GASTEIGER

@<TRIPOS>ATOM
      1  CHA       -3.2540   15.7020    1.6880 C.2   401  HEM401      0.0000
      2  CHB       -4.3680   20.2370    0.1560 C.2   401  HEM401      0.0000
      3  CHC        0.3030   21.0430   -0.9670 C.2   401  HEM401      0.0000
      4  CHD        1.5130   16.6640    0.9510 C.2   401  HEM401      0.0000
      5  C1A       -3.9680   16.8980    1.4180 C.ar  401  HEM401      0.0000
      6  C2A       -5.3960   17.0980    1.6890 C.ar  401  HEM401      0.0000
      7  C3A       -5.6770   18.3270    1.2880 C.ar  401  HEM401      0.0000
      8  C4A       -4.5250   19.0070    0.7300 C.ar  401  HEM401      0.0000
      9  CMA       -7.0490   19.0830    1.3470 C.3   401  HEM401      0.0000
     10  CAA       -6.3370   16.0980    2.2870 C.3   401  HEM401      0.0000
     11  CBA       -6.4320   16.3080    3.8490 C.3   401  HEM401      0.0000
     12  CGA       -7.5210   15.3540    4.3860 C.2   401  HEM401      0.0000
     13  O1A       -8.6830   15.6990    4.1330 O.co2 401  HEM401      0.0000
     14  O2A       -7.2900   14.3350    4.9370 O.co2 401  HEM401      0.0000
     15  C1B       -3.2310   20.8740   -0.3390 C.2   401  HEM401      0.0000
     16  C2B       -3.1080   22.0930   -0.9750 C.2   401  HEM401      0.0000
     17  C3B       -1.8190   22.3240   -1.2740 C.2   401  HEM401      0.0000
     18  C4B       -1.1130   21.1440   -0.8630 C.2   401  HEM401      0.0000
     19  CMB       -4.3460   23.0360   -1.2150 C.3   401  HEM401      0.0000
     20  CAB       -1.3580   23.5330   -2.0170 C.2   401  HEM401      0.0000
     21  CBB       -0.1650   23.8420   -2.4070 C.2   401  HEM401      0.0000
     22  C1C        0.9730   19.9560   -0.4200 C.ar  401  HEM401      0.0000
     23  C2C        2.4730   19.8560   -0.3220 C.ar  401  HEM401      0.0000
     24  C3C        2.8000   18.6660    0.1850 C.ar  401  HEM401      0.0000
     25  C4C        1.6000   17.9110    0.5330 C.ar  401  HEM401      0.0000
     26  CMC        3.4000   20.9500   -0.8650 C.3   401  HEM401      0.0000
     27  CAC        4.2500   18.1590    0.3750 C.2   401  HEM401      0.0000
     28  CBC        4.6070   17.5400    1.3810 C.2   401  HEM401      0.0000
     29  C1D        0.3510   15.9570    1.1590 C.2   401  HEM401      0.0000
     30  C2D        0.1310   14.6020    1.4690 C.2   401  HEM401      0.0000
     31  C3D       -1.2410   14.2490    1.7390 C.2   401  HEM401      0.0000
     32  C4D       -1.8770   15.5380    1.5120 C.2   401  HEM401      0.0000
     33  CMD        1.2840   13.5830    1.4040 C.3   401  HEM401      0.0000
     34  CAD       -1.8420   12.9300    2.0470 C.3   401  HEM401      0.0000
     35  CBD       -2.0530   12.7940    3.5720 C.3   401  HEM401      0.0000
     36  CGD       -2.5460   11.3580    3.8510 C.2   401  HEM401      0.0000
     37  O1D       -2.5980   11.0190    5.1150 O.co2 401  HEM401      0.0000
     38  O2D       -2.7930   10.5070    3.0250 O.co2 401  HEM401      0.0000
     39  NA        -3.4500   18.0190    0.7890 N.ar  401  HEM401      0.0000
     40  NB        -1.9570   20.2810   -0.2870 N.2   401  HEM401      0.0000
     41  NC         0.5140   18.7780    0.1590 N.ar  401  HEM401      0.0000
     42  ND        -0.9880   16.5360    1.1150 N.2   401  HEM401      0.0000
     43 FE         -1.5050   18.2620    0.1780 Fe    401  HEM401      0.0000
@<TRIPOS>BOND
     1    21    20    2
     2    20    17    1
     3    17    16    2
     4    17    18    1
     5    19    16    1
     6    16    15    1
     7     3    18    2
     8     3    22    1
     9    26    23    1
    10    18    40    1
    11    22    23   ar
    12    22    41   ar
    13    15    40    2
    14    15     2    1
    15    23    24   ar
    16    40    43    1
    17     2     8    2
    18    41    43    1
    19    41    25   ar
    20    43    39    1
    21    43    42    1
    22    24    27    1
    23    24    25   ar
    24    27    28    2
    25    25     4    1
    26     8    39   ar
    27     8     7   ar
    28    39     5   ar
    29     4    29    2
    30    42    29    1
    31    42    32    2
    32    29    30    1
    33     7     9    1
    34     7     6   ar
    35    33    30    1
    36     5     1    2
    37     5     6   ar
    38    30    31    2
    39    32     1    1
    40    32    31    1
    41     6    10    1
    42    31    34    1
    43    34    35    1
    44    10    11    1
    45    38    36   ar
    46    35    36    1
    47    11    12    1
    48    36    37   ar
    49    13    12   ar
    50    12    14   ar
