@<TRIPOS>MOLECULE
4fcv_ADP_A_1.pdb
 27 29 0 0 0
SMALL
GASTEIGER

@<TRIPOS>ATOM
      1  PB        -9.1900  -17.5310  -21.3140 P.3   901  ADP901      0.5373
      2  O1B       -8.5950  -16.5790  -20.3010 O.3   901  ADP901     -0.1143
      3  O2B       -9.1020  -19.0310  -21.0970 O.3   901  ADP901     -0.1143
      4  O3B       -8.5320  -17.2020  -22.7580 O.2   901  ADP901     -0.2221
      5  PA       -11.1410  -15.6050  -21.6260 P.3   901  ADP901      0.2231
      6  O1A      -11.7020  -15.1410  -20.3020 O.3   901  ADP901     -0.4370
      7  O2A       -9.9670  -14.8590  -22.2350 O.2   901  ADP901     -0.5169
      8  O3A      -10.7430  -17.1530  -21.4780 O.3   901  ADP901     -0.2261
      9  O5'      -12.3580  -15.7090  -22.6950 O.3   901  ADP901     -0.3111
     10  C5'      -12.7630  -14.6180  -23.5230 C.3   901  ADP901      0.1813
     11  C4'      -14.2750  -14.5880  -23.7180 C.3   901  ADP901      0.1821
     12  O4'      -14.8800  -15.8680  -23.5080 O.3   901  ADP901     -0.3135
     13  C3'      -14.9130  -13.6110  -22.7460 C.3   901  ADP901      0.2184
     14  O3'      -15.6740  -12.6460  -23.4760 O.3   901  ADP901     -0.2174
     15  C2'      -15.8550  -14.4450  -21.9110 C.3   901  ADP901      0.2570
     16  O2'      -17.1110  -13.7800  -21.6730 O.3   901  ADP901     -0.2130
     17  C1'      -16.0340  -15.7470  -22.6710 C.3   901  ADP901      0.3186
     18  N9       -16.1220  -16.8670  -21.7040 N.pl3 901  ADP901     -0.1439
     19  C8       -15.3870  -17.9860  -21.7620 C.3   901  ADP901      0.3377
     20  N7       -15.6930  -18.8260  -20.7450 N.2   901  ADP901     -0.2095
     21  C5       -16.6440  -18.2460  -20.0150 C.2   901  ADP901      0.2526
     22  C6       -17.4010  -18.6030  -18.8050 C.2   901  ADP901      0.4393
     23  N6       -17.1640  -19.7750  -18.1870 N.pl3 901  ADP901      0.2180
     24  N1       -18.3170  -17.7260  -18.3380 N.2   901  ADP901      0.0021
     25  C2       -18.5380  -16.5550  -18.9620 C.3   901  ADP901      0.5254
     26  N3       -17.8790  -16.1720  -20.0750 N.2   901  ADP901     -0.0055
     27  C4       -16.9320  -16.9570  -20.6440 C.2   901  ADP901      0.3518
@<TRIPOS>BOND
     1    11    10    1
     2    11    12    1
     3    11    13    1
     4    10     9    1
     5    12    17    1
     6    14    13    1
     7     4     1    2
     8    13    15    1
     9     9     5    1
    10    17    15    1
    11    17    18    1
    12     7     5    2
    13    15    16    1
    14    19    18    1
    15    19    20    1
    16    18    27    1
    17     5     8    1
    18     5     6    1
    19     8     1    1
    20     1     3    1
    21     1     2    1
    22    20    21    2
    23    27    26    2
    24    27    21    1
    25    26    25    1
    26    21    22    1
    27    25    24    1
    28    22    24    2
    29    22    23    1
