@<TRIPOS>MOLECULE
4fcw_ADP_A_1.pdb
 27 29 0 0 0
SMALL
GASTEIGER

@<TRIPOS>ATOM
      1  PB       -55.1340   11.0020   45.4070 P.3   901  ADP901      0.5373
      2  O1B      -53.6340   11.1040   45.3410 O.3   901  ADP901     -0.1143
      3  O2B      -55.8200   11.4070   44.1300 O.2   901  ADP901     -0.2221
      4  O3B      -55.7550   11.5660   46.6590 O.3   901  ADP901     -0.1143
      5  PA       -54.6310    8.4660   46.5170 P.3   901  ADP901      0.2231
      6  O1A      -53.2410    8.2890   45.9650 O.2   901  ADP901     -0.5169
      7  O2A      -54.8310    8.9300   47.9370 O.3   901  ADP901     -0.4370
      8  O3A      -55.4400    9.4320   45.5230 O.3   901  ADP901     -0.2261
      9  O5'      -55.4560    7.0970   46.3240 O.3   901  ADP901     -0.3111
     10  C5'      -56.7070    6.9210   46.9950 C.3   901  ADP901      0.1813
     11  C4'      -56.7800    5.5470   47.6610 C.3   901  ADP901      0.1821
     12  O4'      -56.6550    4.5160   46.6740 O.3   901  ADP901     -0.3135
     13  C3'      -55.6610    5.3540   48.6670 C.3   901  ADP901      0.2184
     14  O3'      -56.1890    4.8850   49.9020 O.3   901  ADP901     -0.2174
     15  C2'      -54.7570    4.3020   48.0780 C.3   901  ADP901      0.2570
     16  O2'      -54.4790    3.2890   49.0450 O.3   901  ADP901     -0.2130
     17  C1'      -55.4830    3.7200   46.8760 C.3   901  ADP901      0.3186
     18  N9       -54.6330    3.8000   45.6590 N.pl3 901  ADP901     -0.1439
     19  C8       -54.9180    4.5470   44.5710 C.3   901  ADP901      0.3377
     20  N7       -53.9640    4.4230   43.6180 N.2   901  ADP901     -0.2095
     21  C5       -53.0330    3.5750   44.0940 C.2   901  ADP901      0.2526
     22  C6       -51.7610    3.0070   43.5950 C.2   901  ADP901      0.4393
     23  N6       -51.2900    3.3410   42.3700 N.pl3 901  ADP901      0.2180
     24  N1       -51.0890    2.1510   44.4040 N.2   901  ADP901      0.0021
     25  C2       -51.5400    1.8100   45.6250 C.3   901  ADP901      0.5254
     26  N3       -52.6950    2.2920   46.1370 N.2   901  ADP901     -0.0055
     27  C4       -53.4740    3.1630   45.4370 C.2   901  ADP901      0.3518
@<TRIPOS>BOND
     1    23    22    1
     2    22    21    1
     3    22    24    2
     4    20    21    2
     5    20    19    1
     6    21    27    1
     7     3     1    2
     8    24    25    1
     9    19    18    1
    10     2     1    1
    11     1     8    1
    12     1     4    1
    13    27    18    1
    14    27    26    2
    15     8     5    1
    16    25    26    1
    17    18    17    1
    18     6     5    2
    19     9     5    1
    20     9    10    1
    21     5     7    1
    22    12    17    1
    23    12    11    1
    24    17    15    1
    25    10    11    1
    26    11    13    1
    27    15    13    1
    28    15    16    1
    29    13    14    1
