@<TRIPOS>MOLECULE
4fd2_ADP_A_1.pdb
 27 29 0 0 0
SMALL
GASTEIGER

@<TRIPOS>ATOM
      1  PB       -45.5100   15.6950   40.5840 P.3   901  ADP901      0.5373
      2  O1B      -46.5880   15.2950   39.6080 O.2   901  ADP901     -0.2221
      3  O2B      -45.7740   15.3040   42.0200 O.3   901  ADP901     -0.1143
      4  O3B      -45.0270   17.1430   40.4030 O.3   901  ADP901     -0.1143
      5  PA       -44.1020   13.9930   38.8410 P.3   901  ADP901      0.2231
      6  O1A      -44.8460   12.6910   39.0180 O.3   901  ADP901     -0.4370
      7  O2A      -44.4880   14.9110   37.7100 O.2   901  ADP901     -0.5169
      8  O3A      -44.2090   14.8260   40.2110 O.3   901  ADP901     -0.2261
      9  O5'      -42.5180   13.7100   38.7190 O.3   901  ADP901     -0.3111
     10  C5'      -41.7180   14.4290   37.7520 C.3   901  ADP901      0.1813
     11  C4'      -40.3960   13.7050   37.5160 C.3   901  ADP901      0.1821
     12  O4'      -39.8840   13.1880   38.7490 O.3   901  ADP901     -0.3135
     13  C3'      -40.5590   12.5410   36.5470 C.3   901  ADP901      0.2184
     14  O3'      -39.8090   12.7790   35.3490 O.3   901  ADP901     -0.2174
     15  C2'      -40.0480   11.3140   37.2830 C.3   901  ADP901      0.2570
     16  O2'      -38.9890   10.6450   36.5800 O.3   901  ADP901     -0.2130
     17  C1'      -39.5610   11.7940   38.6460 C.3   901  ADP901      0.3186
     18  N9       -40.2090   11.0140   39.7380 N.pl3 901  ADP901     -0.1439
     19  C8       -40.8730   11.5370   40.7810 C.3   901  ADP901      0.3377
     20  N7       -41.3430   10.5700   41.6040 N.2   901  ADP901     -0.2095
     21  C5       -40.9820    9.3870   41.0900 C.2   901  ADP901      0.2526
     22  C6       -41.1570    7.9620   41.4610 C.2   901  ADP901      0.4393
     23  N6       -41.8320    7.6040   42.5800 N.pl3 901  ADP901      0.2180
     24  N1       -40.6190    7.0300   40.6450 N.2   901  ADP901      0.0021
     25  C2       -39.9410    7.3680   39.5330 C.3   901  ADP901      0.5254
     26  N3       -39.7470    8.6400   39.1380 N.2   901  ADP901     -0.0055
     27  C4       -40.2320    9.6820   39.8610 C.2   901  ADP901      0.3518
@<TRIPOS>BOND
     1    14    13    1
     2    13    15    1
     3    13    11    1
     4    16    15    1
     5    15    17    1
     6    11    10    1
     7    11    12    1
     8     7     5    2
     9    10     9    1
    10    17    12    1
    11    17    18    1
    12     9     5    1
    13     5     6    1
    14     5     8    1
    15    26    25    1
    16    26    27    2
    17    25    24    1
    18     2     1    2
    19    18    27    1
    20    18    19    1
    21    27    21    1
    22     8     1    1
    23     4     1    1
    24     1     3    1
    25    24    22    2
    26    19    20    1
    27    21    22    1
    28    21    20    2
    29    22    23    1
