@<TRIPOS>MOLECULE
4fd8_MA4_A_1.pdb
 35 37 0 0 0
SMALL
GASTEIGER

@<TRIPOS>ATOM
      1  C1        35.5860   25.0990    2.6390 C.3   301  MA4301      0.2695
      2  C2        36.1880   24.4870    1.3790 C.3   301  MA4301      0.2406
      3  C3        35.7910   23.0230    1.2430 C.3   301  MA4301      0.2198
      4  C4        36.1400   22.2580    2.5080 C.3   301  MA4301      0.2144
      5  C5        35.5960   22.9600    3.7580 C.3   301  MA4301      0.1835
      6  C6        35.9940   22.2600    5.0520 C.3   301  MA4301      0.2142
      7  O2        35.6590   25.1540    0.2380 O.3   301  MA4301     -0.2149
      8  O3        36.4990   22.4640    0.1220 O.3   301  MA4301     -0.2174
      9  O5        35.9820   24.3370    3.7820 O.3   301  MA4301     -0.3256
     10  O6        37.4310   22.2430    5.1300 O.3   301  MA4301     -0.2176
     11  O1        34.1430   25.1110    2.4840 O.3   301  MA4301     -0.3257
     12  O4        35.5340   20.9690    2.4290 O.3   301  MA4301     -0.2176
     13  C10       31.0360   27.7740    2.9670 C.3   301  MA4301      0.2695
     14  C20       31.8170   27.9720    1.6820 C.3   301  MA4301      0.2404
     15  C30       32.6570   26.7230    1.4620 C.3   301  MA4301      0.2167
     16  C40       33.5120   26.3810    2.6800 C.3   301  MA4301      0.1804
     17  C50       32.6660   26.3270    3.9590 C.3   301  MA4301      0.1803
     18  C60       33.5140   26.1630    5.2220 C.3   301  MA4301      0.2141
     19  O10       30.3410   29.0000    3.2140 O.3   301  MA4301     -0.3286
     20  O20       31.0000   28.2030    0.5330 O.3   301  MA4301     -0.2149
     21  O30       33.5050   26.9170    0.3400 O.3   301  MA4301     -0.2175
     22  O50       31.9670   27.5690    4.0440 O.3   301  MA4301     -0.3257
     23  O60       34.4790   27.2110    5.3260 O.3   301  MA4301     -0.2176
     24  C11       29.2000   28.8400    4.0660 C.3   301  MA4301      0.1449
     25  C21       28.0190   28.2890    3.2990 C.3   301  MA4301      0.0322
     26  C31       26.8980   27.9580    4.2580 C.3   301  MA4301      0.0026
     27  C41       25.5640   28.2260    3.5740 C.3   301  MA4301      0.0001
     28  C51       24.3930   28.3610    4.5540 C.3   301  MA4301      0.0000
     29  C61       24.4730   27.3350    5.6820 C.3   301  MA4301      0.0000
     30  C12       23.1460   27.1860    6.4080 C.3   301  MA4301      0.0000
     31  C22       23.0230   28.2570    7.5070 C.3   301  MA4301      0.0000
     32  C32       22.5670   27.8230    8.8930 C.3   301  MA4301      0.0000
     33  C42       21.8380   26.4990    8.8980 C.3   301  MA4301      0.0000
     34  C52       22.7590   25.4500    8.3030 C.3   301  MA4301      0.0000
     35  C62       22.9950   25.7140    6.8320 C.3   301  MA4301      0.0000
@<TRIPOS>BOND
     1     8     3    1
     2     7     2    1
     3    21    15    1
     4    20    14    1
     5     3     2    1
     6     3     4    1
     7     2     1    1
     8    15    14    1
     9    15    16    1
    10    14    13    1
    11    12     4    1
    12    11     1    1
    13    11    16    1
    14     4     5    1
    15     1     9    1
    16    16    17    1
    17    13    19    1
    18    13    22    1
    19    19    24    1
    20    25    24    1
    21    25    26    1
    22    27    26    1
    23    27    28    1
    24     5     9    1
    25     5     6    1
    26    17    22    1
    27    17    18    1
    28    28    29    1
    29     6    10    1
    30    18    23    1
    31    29    30    1
    32    30    35    1
    33    30    31    1
    34    35    34    1
    35    31    32    1
    36    34    33    1
    37    32    33    1
