@<TRIPOS>MOLECULE
4fdh_HEM_A_1.pdb
 43 50 0 0 0
SMALL
GASTEIGER

@<TRIPOS>ATOM
      1  CHA      -35.4520   24.4330  -17.8480 C.2   601  HEM601      0.0000
      2  CHB      -33.1810   23.7740  -13.6750 C.2   601  HEM601      0.0000
      3  CHC      -35.8520   19.7970  -12.9360 C.2   601  HEM601      0.0000
      4  CHD      -37.5010   19.9790  -17.4700 C.2   601  HEM601      0.0000
      5  C1A      -34.6060   24.6260  -16.7840 C.2   601  HEM601      0.0000
      6  C2A      -33.6560   25.7140  -16.6250 C.2   601  HEM601      0.0000
      7  C3A      -33.0310   25.5210  -15.4620 C.2   601  HEM601      0.0000
      8  C4A      -33.5630   24.3290  -14.8620 C.2   601  HEM601      0.0000
      9  CMA      -31.9410   26.4040  -14.8270 C.3   601  HEM601      0.0000
     10  CAA      -33.4380   26.8670  -17.6330 C.3   601  HEM601      0.0000
     11  CBA      -34.4560   27.9440  -17.3090 C.3   601  HEM601      0.0000
     12  CGA      -34.3110   29.2360  -18.1000 C.2   601  HEM601      0.0000
     13  O1A      -33.4860   29.3390  -19.0630 O.co2 601  HEM601      0.0000
     14  O2A      -35.0610   30.1820  -17.7330 O.co2 601  HEM601      0.0000
     15  C1B      -33.7720   22.6770  -13.1090 C.ar  601  HEM601      0.0000
     16  C2B      -33.5910   22.2820  -11.7430 C.ar  601  HEM601      0.0000
     17  C3B      -34.3310   21.1800  -11.5560 C.ar  601  HEM601      0.0000
     18  C4B      -35.0040   20.8640  -12.7780 C.ar  601  HEM601      0.0000
     19  CMB      -32.6890   23.0380  -10.7400 C.3   601  HEM601      0.0000
     20  CAB      -34.5120   20.3450  -10.2830 C.2   601  HEM601      0.0000
     21  CBB      -33.9060   20.7480   -9.1620 C.2   601  HEM601      0.0000
     22  C1C      -36.5470   19.4760  -14.0760 C.2   601  HEM601      0.0000
     23  C2C      -37.4900   18.3970  -14.2470 C.2   601  HEM601      0.0000
     24  C3C      -37.9360   18.4450  -15.5080 C.2   601  HEM601      0.0000
     25  C4C      -37.3050   19.5530  -16.1750 C.2   601  HEM601      0.0000
     26  CMC      -37.8900   17.3760  -13.1560 C.3   601  HEM601      0.0000
     27  CAC      -38.9540   17.4860  -16.1470 C.2   601  HEM601      0.0000
     28  CBC      -40.1110   17.2730  -15.5250 C.2   601  HEM601      0.0000
     29  C1D      -37.1460   21.2200  -17.9970 C.ar  601  HEM601      0.0000
     30  C2D      -37.5120   21.7310  -19.3120 C.ar  601  HEM601      0.0000
     31  C3D      -36.8640   23.1070  -19.4120 C.ar  601  HEM601      0.0000
     32  C4D      -36.1690   23.2930  -18.1590 C.ar  601  HEM601      0.0000
     33  CMD      -38.3670   21.0580  -20.4000 C.3   601  HEM601      0.0000
     34  CAD      -36.9170   24.0940  -20.6020 C.3   601  HEM601      0.0000
     35  CBD      -37.7450   25.3150  -20.2280 C.3   601  HEM601      0.0000
     36  CGD      -37.9400   26.2490  -21.3810 C.2   601  HEM601      0.0000
     37  O1D      -39.0960   26.6820  -21.6210 O.co2 601  HEM601      0.0000
     38  O2D      -36.9290   26.5790  -22.0470 O.co2 601  HEM601      0.0000
     39  NA       -34.5170   23.8030  -15.6920 N.2   601  HEM601      0.0000
     40  NB       -34.6410   21.7970  -13.7170 N.ar  601  HEM601      0.0000
     41  NC       -36.4690   20.1560  -15.2660 N.2   601  HEM601      0.0000
     42  ND       -36.3530   22.1660  -17.3580 N.ar  601  HEM601      0.0000
     43 FE        -35.4990   21.9730  -15.4880 Fe    601  HEM601      0.0000
@<TRIPOS>BOND
     1    38    36   ar
     2    37    36   ar
     3    36    35    1
     4    34    35    1
     5    34    31    1
     6    33    30    1
     7    31    30   ar
     8    31    32   ar
     9    30    29   ar
    10    13    12   ar
    11    32     1    2
    12    32    42   ar
    13    12    14   ar
    14    12    11    1
    15    29     4    2
    16    29    42   ar
    17     1     5    1
    18    10    11    1
    19    10     6    1
    20     4    25    1
    21    42    43    1
    22     5     6    1
    23     5    39    2
    24     6     7    2
    25    25    24    1
    26    25    41    2
    27    27    28    2
    28    27    24    1
    29    39    43    1
    30    39     8    1
    31    24    23    2
    32    43    41    1
    33    43    40    1
    34     7     8    1
    35     7     9    1
    36    41    22    1
    37     8     2    2
    38    23    22    1
    39    23    26    1
    40    22     3    2
    41    40    15   ar
    42    40    18   ar
    43     2    15    1
    44    15    16   ar
    45     3    18    1
    46    18    17   ar
    47    16    17   ar
    48    16    19    1
    49    17    20    1
    50    20    21    2
