@<TRIPOS>MOLECULE
4fdh_0T3_A_1.pdb
 17 19 0 0 0
SMALL
GASTEIGER

@<TRIPOS>ATOM
      1  C01      -30.0390   19.7070  -18.1240 C.3   602  0T3602      0.0086
      2  C02      -30.4670   18.4160  -17.4420 C.3   602  0T3602      0.0276
      3  C03      -31.9880   18.2670  -17.4250 C.3   602  0T3602      0.1091
      4  N04      -32.6510   19.5330  -17.0450 N.ar  602  0T3602     -0.3105
      5  C05      -33.9410   19.7240  -16.6360 C.ar  602  0T3602      0.1785
      6  N06      -34.1870   20.9910  -16.3810 N.ar  602  0T3602     -0.2227
      7  C07      -32.9930   21.6430  -16.6040 C.ar  602  0T3602      0.1133
      8  C08      -32.0320   20.7610  -17.0150 C.ar  602  0T3602      0.0578
      9  C09      -30.5880   20.9160  -17.3830 C.3   602  0T3602      0.0455
     10  C10      -32.4830   17.7350  -18.7560 C.ar  602  0T3602     -0.0017
     11  C11      -32.1410   16.4480  -19.1460 C.ar  602  0T3602     -0.0018
     12  C12      -32.5710   15.9260  -20.3490 C.ar  602  0T3602      0.0100
     13  C13      -33.3620   16.6890  -21.1990 C.ar  602  0T3602      0.0684
     14  C14      -33.6950   17.9890  -20.8340 C.ar  602  0T3602      0.0100
     15  C15      -33.2540   18.5010  -19.6170 C.ar  602  0T3602     -0.0018
     16  C16      -33.8030   16.1440  -22.4570 C.1   602  0T3602      0.1004
     17  N17      -34.1350   15.6860  -23.4480 N.1   602  0T3602     -0.1908
@<TRIPOS>BOND
     1    17    16    3
     2    16    13    1
     3    13    14   ar
     4    13    12   ar
     5    14    15   ar
     6    12    11   ar
     7    15    10   ar
     8    11    10   ar
     9    10     3    1
    10     1     2    1
    11     1     9    1
    12     2     3    1
    13     3     4    1
    14     9     8    1
    15     4     8   ar
    16     4     5   ar
    17     8     7   ar
    18     5     6   ar
    19     7     6   ar
