@<TRIPOS>MOLECULE
4fdj_NGA_A_1.pdb
 15 15 0 0 0
SMALL
GASTEIGER

@<TRIPOS>ATOM
      1  C1         1.5810    0.2980    2.1820 C.3   604  NGA604      0.2917
      2  C2         0.0760    0.4490    2.4050 C.3   604  NGA604      0.1871
      3  C3        -0.6710    0.3010    1.0770 C.3   604  NGA604      0.2095
      4  C4        -0.1580    1.3550    0.1030 C.3   604  NGA604      0.2136
      5  C5         1.3450    1.1430   -0.0520 C.3   604  NGA604      0.1835
      6  C6         1.9440    2.1200   -1.0500 C.3   604  NGA604      0.2142
      7  C7        -1.4280   -0.1170    4.2280 C.2   604  NGA604      0.2421
      8  C8        -1.5580   -0.8990    5.4870 C.3   604  NGA604      0.0964
      9  N2        -0.4370   -0.4660    3.4080 N.am  604  NGA604     -0.1991
     10  O1         2.2760    0.5250    3.4070 O.3   604  NGA604     -0.1879
     11  O3        -2.0940    0.4060    1.2440 O.3   604  NGA604     -0.2183
     12  O4        -0.4290    2.6760    0.6010 O.3   604  NGA604     -0.2176
     13  O5         2.0020    1.2670    1.2170 O.3   604  NGA604     -0.3242
     14  O6         3.0700    1.4800   -1.6500 O.3   604  NGA604     -0.2176
     15  O7        -2.2060    0.7870    3.9890 O.2   604  NGA604     -0.2733
@<TRIPOS>BOND
     1    14     6    1
     2     6     5    1
     3     5     4    1
     4     5    13    1
     5     4    12    1
     6     4     3    1
     7     3    11    1
     8     3     2    1
     9    13     1    1
    10     1     2    1
    11     1    10    1
    12     2     9    1
    13     9     7   am
    14    15     7    2
    15     7     8    1
