@<TRIPOS>MOLECULE
4fdn_0T4_A_1.pdb
 23 24 0 0 0
SMALL
GASTEIGER

@<TRIPOS>ATOM
      1  O15       40.1040   12.1390   12.2600 O.2   901  0T4901     -0.2684
      2  C14       39.0070   12.5730   11.9590 C.2   901  0T4901      0.2651
      3  C4        38.9010   13.6990   10.9710 C.ar  901  0T4901      0.0566
      4  C5        40.0380   14.2520   10.3830 C.ar  901  0T4901      0.0085
      5  C6        39.8960   15.2960    9.4710 C.ar  901  0T4901      0.0731
      6  C7        41.0780   15.9310    8.7940 C.3   901  0T4901      0.4186
      7  F29       41.9070   16.4650    9.6790 F     901  0T4901     -0.1659
      8  F27       40.6320   16.8750    7.9830 F     901  0T4901     -0.1659
      9  F28       41.7060   15.0100    8.0830 F     901  0T4901     -0.1659
     10  C1        38.6270   15.7750    9.1530 C.ar  901  0T4901      0.0253
     11  C3        37.6360   14.1820   10.6550 C.ar  901  0T4901      0.0260
     12  C2        37.4980   15.2260    9.7460 C.ar  901  0T4901      0.1108
     13  N8        36.2800   15.7080    9.4210 N.4   901  0T4901     -0.0964
     14  O10       36.1730   16.9940    8.8960 O.3   901  0T4901     -0.0605
     15  N13       37.8840   12.0790   12.4730 N.am  901  0T4901     -0.1989
     16  C12       37.8730   10.9220   13.3470 C.3   901  0T4901      0.1178
     17  C13       36.5870   10.1210   13.1300 C.3   901  0T4901      0.0283
     18  C20       37.9580   11.3780   14.7540 C.ar  901  0T4901     -0.0026
     19  C21       37.2850   12.5320   15.1640 C.ar  901  0T4901     -0.0026
     20  C22       37.3670   12.9580   16.4910 C.ar  901  0T4901     -0.0003
     21  C23       38.1230   12.2280   17.4090 C.ar  901  0T4901     -0.0000
     22  C24       38.7960   11.0770   17.0030 C.ar  901  0T4901     -0.0003
     23  C25       38.7110   10.6530   15.6760 C.ar  901  0T4901     -0.0026
@<TRIPOS>BOND
     1     8     6    1
     2     9     6    1
     3     6     5    1
     4     6     7    1
     5    14    13    1
     6    10     5   ar
     7    10    12   ar
     8    13    12    1
     9     5     4   ar
    10    12    11   ar
    11     4     3   ar
    12    11     3   ar
    13     3     2    1
    14     2     1    2
    15     2    15   am
    16    15    16    1
    17    17    16    1
    18    16    18    1
    19    18    19   ar
    20    18    23   ar
    21    19    20   ar
    22    23    22   ar
    23    20    21   ar
    24    22    21   ar
