@<TRIPOS>MOLECULE
4fdo_0T5_A_1.pdb
 24 25 0 0 0
SMALL
GASTEIGER

@<TRIPOS>ATOM
      1  O38       36.2040   15.4720    9.4390 O.2   901  0T5901     -0.1261
      2  N8        37.3320   15.0520    8.7580 N.pl3 901  0T5901      0.0577
      3  O10       37.3600   15.0660    7.3690 O.2   901  0T5901     -0.1261
      4  C2        38.4400   14.5980    9.4680 C.ar  901  0T5901      0.1430
      5  C1        39.7020   15.1390    9.2270 C.ar  901  0T5901      0.0279
      6  C6        40.8050   14.6760    9.9390 C.ar  901  0T5901      0.0732
      7  C7        42.1620   15.2790    9.6590 C.3   901  0T5901      0.4186
      8  F28       42.0720   15.9630    8.5290 F     901  0T5901     -0.1659
      9  F27       42.5260   16.0990   10.6360 F     901  0T5901     -0.1659
     10  F29       43.0740   14.3210    9.5250 F     901  0T5901     -0.1659
     11  C5        40.6260   13.6700   10.8950 C.ar  901  0T5901      0.0085
     12  C3        38.2600   13.5950   10.4080 C.ar  901  0T5901      0.0286
     13  C4        39.3540   13.1290   11.1250 C.ar  901  0T5901      0.0567
     14  C14       39.1270   12.0350   12.1310 C.2   901  0T5901      0.2651
     15  O15       40.0080   11.7290   12.9140 O.2   901  0T5901     -0.2684
     16  N13       37.9500   11.4100   12.1250 N.am  901  0T5901     -0.1989
     17  C12       37.5980   10.4130   13.1270 C.3   901  0T5901      0.1178
     18  C13       36.3160    9.6650   12.7370 C.3   901  0T5901      0.0283
     19  C20       37.4540   11.0520   14.4580 C.ar  901  0T5901     -0.0026
     20  C25       36.5690   12.1150   14.6330 C.ar  901  0T5901     -0.0026
     21  C24       36.4500   12.7030   15.8880 C.ar  901  0T5901     -0.0003
     22  C23       37.2070   12.2380   16.9650 C.ar  901  0T5901     -0.0000
     23  C22       38.0910   11.1720   16.7890 C.ar  901  0T5901     -0.0003
     24  C21       38.2150   10.5810   15.5320 C.ar  901  0T5901     -0.0026
@<TRIPOS>BOND
     1     3     2    2
     2     8     7    1
     3     2     1    2
     4     2     4    1
     5     5     4   ar
     6     5     6   ar
     7     4    12   ar
     8    10     7    1
     9     7     6    1
    10     7     9    1
    11     6    11   ar
    12    12    13   ar
    13    11    13   ar
    14    13    14    1
    15    16    14   am
    16    16    17    1
    17    14    15    2
    18    18    17    1
    19    17    19    1
    20    19    20   ar
    21    19    24   ar
    22    20    21   ar
    23    24    23   ar
    24    21    22   ar
    25    23    22   ar
