@<TRIPOS>MOLECULE
4fdq_HEM_A_1.pdb
 43 50 0 0 0
SMALL
GASTEIGER

@<TRIPOS>ATOM
      1  CHA       15.8490   -3.2510   -1.6740 C.2   403  HEM403      0.0000
      2  CHB       20.3810   -4.3260   -0.0300 C.2   403  HEM403      0.0000
      3  CHC       21.1150    0.3660    1.0920 C.2   403  HEM403      0.0000
      4  CHD       16.7280    1.4730   -0.8550 C.2   403  HEM403      0.0000
      5  C1A       17.0450   -3.8860   -1.3080 C.2   403  HEM403      0.0000
      6  C2A       17.2960   -5.3060   -1.5950 C.2   403  HEM403      0.0000
      7  C3A       18.5310   -5.5800   -1.1540 C.2   403  HEM403      0.0000
      8  C4A       19.1330   -4.3990   -0.5710 C.2   403  HEM403      0.0000
      9  CMA       19.2930   -6.9710   -1.1550 C.3   403  HEM403      0.0000
     10  CAA       16.3020   -6.2830   -2.2500 C.3   403  HEM403      0.0000
     11  CBA       16.5820   -6.4010   -3.7700 C.3   403  HEM403      0.0000
     12  CGA       15.6550   -7.5300   -4.3370 C.2   403  HEM403      0.0000
     13  O1A       16.1300   -8.7140   -4.0900 O.co2 403  HEM403      0.0000
     14  O2A       14.6140   -7.2650   -4.9670 O.co2 403  HEM403      0.0000
     15  C1B       20.9620   -3.1560    0.4700 C.ar  403  HEM403      0.0000
     16  C2B       22.2160   -3.0530    1.1080 C.ar  403  HEM403      0.0000
     17  C3B       22.4360   -1.7330    1.4430 C.ar  403  HEM403      0.0000
     18  C4B       21.2530   -1.0150    1.0140 C.ar  403  HEM403      0.0000
     19  CMB       23.1790   -4.2350    1.3140 C.3   403  HEM403      0.0000
     20  CAB       23.6240   -1.1450    2.1570 C.2   403  HEM403      0.0000
     21  CBB       23.6140    0.0350    2.8330 C.2   403  HEM403      0.0000
     22  C1C       20.0250    1.0680    0.5400 C.2   403  HEM403      0.0000
     23  C2C       19.8790    2.5080    0.4200 C.2   403  HEM403      0.0000
     24  C3C       18.7100    2.8610   -0.1230 C.2   403  HEM403      0.0000
     25  C4C       18.0310    1.6020   -0.4340 C.2   403  HEM403      0.0000
     26  CMC       21.0050    3.4760    0.8810 C.3   403  HEM403      0.0000
     27  CAC       18.2370    4.3450   -0.3130 C.2   403  HEM403      0.0000
     28  CBC       17.4990    4.6550   -1.3010 C.2   403  HEM403      0.0000
     29  C1D       16.0840    0.2640   -1.1070 C.ar  403  HEM403      0.0000
     30  C2D       14.6760    0.1790   -1.3860 C.ar  403  HEM403      0.0000
     31  C3D       14.4320   -1.2160   -1.6870 C.ar  403  HEM403      0.0000
     32  C4D       15.6670   -1.9100   -1.5240 C.ar  403  HEM403      0.0000
     33  CMD       13.6570    1.3250   -1.3550 C.3   403  HEM403      0.0000
     34  CAD       13.1080   -1.8600   -2.0060 C.3   403  HEM403      0.0000
     35  CBD       13.0080   -2.0240   -3.5530 C.3   403  HEM403      0.0000
     36  CGD       11.5950   -2.5410   -3.9110 C.2   403  HEM403      0.0000
     37  O1D       11.1830   -2.5900   -5.1170 O.co2 403  HEM403      0.0000
     38  O2D       10.7780   -2.8910   -3.0280 O.co2 403  HEM403      0.0000
     39  NA        18.1610   -3.3930   -0.6710 N.2   403  HEM403      0.0000
     40  NB        20.3530   -1.8740    0.4340 N.ar  403  HEM403      0.0000
     41  NC        18.8670    0.5860   -0.0120 N.2   403  HEM403      0.0000
     42  ND        16.6530   -1.0120   -1.0740 N.ar  403  HEM403      0.0000
     43 FE         18.4020   -1.4460   -0.1220 Fe    403  HEM403      0.0000
@<TRIPOS>BOND
     1    37    36   ar
     2    14    12   ar
     3    12    13   ar
     4    12    11    1
     5    36    35    1
     6    36    38   ar
     7    11    10    1
     8    35    34    1
     9    10     6    1
    10    34    31    1
    11    31    32   ar
    12    31    30   ar
    13     1    32    2
    14     1     5    1
    15     6     5    1
    16     6     7    2
    17    32    42   ar
    18    30    33    1
    19    30    29   ar
    20     5    39    2
    21    28    27    2
    22     9     7    1
    23     7     8    1
    24    29    42   ar
    25    29     4    2
    26    42    43    1
    27     4    25    1
    28    39     8    1
    29    39    43    1
    30     8     2    2
    31    25    24    1
    32    25    41    2
    33    27    24    1
    34    24    23    2
    35    43    41    1
    36    43    40    1
    37     2    15    1
    38    41    22    1
    39    23    22    1
    40    23    26    1
    41    40    15   ar
    42    40    18   ar
    43    15    16   ar
    44    22     3    2
    45    18     3    1
    46    18    17   ar
    47    16    19    1
    48    16    17   ar
    49    17    20    1
    50    20    21    2
