@<TRIPOS>MOLECULE
4fe3_U5P_A_1.pdb
 21 22 0 0 0
SMALL
GASTEIGER

@<TRIPOS>ATOM
      1  N1         3.6740   26.8570   16.1390 N.am  305  U5P305     -0.1766
      2  C2         2.3120   26.9990   16.3860 C.1   305  U5P305      0.2845
      3  N3         1.8160   28.2170   16.7210 N.2   305  U5P305     -0.2452
      4  C4         2.6490   29.2850   16.8600 C.1   305  U5P305      0.2182
      5  C5         4.0150   29.1530   16.6230 C.2   305  U5P305      0.1242
      6  C6         4.5150   27.9010   16.2560 C.2   305  U5P305      0.0929
      7  O2         1.5590   26.0110   16.2520 O.2   305  U5P305     -0.1918
      8  O4         2.2330   30.4380   17.1880 O.2   305  U5P305     -0.2085
      9  C1'        4.2270   25.5410   15.7610 C.3   305  U5P305      0.2401
     10  C2'        4.9660   25.5940   14.4360 C.3   305  U5P305      0.2319
     11  O2'        4.1440   24.9950   13.4250 O.3   305  U5P305     -0.2157
     12  C3'        6.2670   24.8210   14.6610 C.3   305  U5P305      0.2158
     13  C4'        6.1380   24.2660   16.0720 C.3   305  U5P305      0.1801
     14  O3'        6.4160   23.7460   13.7130 O.3   305  U5P305     -0.2175
     15  O4'        5.2120   25.1480   16.7210 O.3   305  U5P305     -0.3320
     16  C5'        7.4790   24.3440   16.7960 C.3   305  U5P305      0.1859
     17  O5'        7.6010   23.4070   17.8810 O.3   305  U5P305     -0.2675
     18  P          8.6360   22.1620   17.6770 P.3   305  U5P305      0.5327
     19  O1P        9.9630   22.8320   17.4720 O.3   305  U5P305     -0.1145
     20  O2P        8.1380   21.3920   16.4680 O.2   305  U5P305     -0.2224
     21  O3P        8.4940   21.5150   19.0250 O.3   305  U5P305     -0.1145
@<TRIPOS>BOND
     1    11    10    1
     2    14    12    1
     3    10    12    1
     4    10     9    1
     5    12    13    1
     6     9     1    1
     7     9    15    1
     8    13    15    1
     9    13    16    1
    10     1     6    1
    11     1     2   am
    12     7     2    2
    13     6     5    2
    14     2     3    2
    15    20    18    2
    16     5     4    1
    17     3     4    2
    18    16    17    1
    19     4     8    2
    20    19    18    1
    21    18    17    1
    22    18    21    1
