@<TRIPOS>MOLECULE
4fe7_XYS_A_1.pdb
 10 10 0 0 0
SMALL
GASTEIGER

@<TRIPOS>ATOM
      1  C1        46.2220   28.3690  110.1280 C.3   401  XYS401      0.3024
      2  C2        46.4820   27.1350  110.9650 C.3   401  XYS401      0.2434
      3  C3        45.9780   27.3480  112.3920 C.3   401  XYS401      0.2199
      4  C4        46.7240   28.5610  112.9210 C.3   401  XYS401      0.2143
      5  C5        46.2840   29.7600  112.0910 C.3   401  XYS401      0.1804
      6  O1        44.8550   28.4640  109.8010 O.3   401  XYS401     -0.1869
      7  O2        45.8990   25.9850  110.3860 O.3   401  XYS401     -0.2148
      8  O3        46.2330   26.2150  113.1940 O.3   401  XYS401     -0.2174
      9  O4        46.4800   28.7370  114.3000 O.3   401  XYS401     -0.2176
     10  O5        46.6540   29.5200  110.7390 O.3   401  XYS401     -0.3237
@<TRIPOS>BOND
     1     6     1    1
     2     1    10    1
     3     1     2    1
     4     7     2    1
     5    10     5    1
     6     2     3    1
     7     5     4    1
     8     3     4    1
     9     3     8    1
    10     4     9    1
