@<TRIPOS>MOLECULE
4fe9_MTT_A_1.pdb
 45 48 0 0 0
SMALL
GASTEIGER

@<TRIPOS>ATOM
      1  O14      -14.2490   88.5190   32.8940 O.3   508  MTT508     -0.2176
      2  C14      -14.0850   89.8320   33.4580 C.3   508  MTT508      0.2144
      3  C13      -14.7660   90.8610   32.5810 C.3   508  MTT508      0.2198
      4  O13      -14.2910   90.7790   31.2360 O.3   508  MTT508     -0.2174
      5  C12      -14.5520   92.2540   33.1830 C.3   508  MTT508      0.2406
      6  O12      -15.2490   93.2060   32.3790 O.3   508  MTT508     -0.2149
      7  C11      -15.0970   92.2970   34.6190 C.3   508  MTT508      0.2695
      8  C15      -14.7370   89.9430   34.8320 C.3   508  MTT508      0.1835
      9  O15      -14.4500   91.2510   35.3790 O.3   508  MTT508     -0.3256
     10  C16      -14.3710   88.7980   35.7850 C.3   508  MTT508      0.2142
     11  O16      -12.9660   88.8200   36.0490 O.3   508  MTT508     -0.2176
     12  O24      -16.5260   92.0390   34.5590 O.3   508  MTT508     -0.3257
     13  C24      -17.3430   92.8130   35.4550 C.3   508  MTT508      0.1804
     14  C23      -18.2360   93.7240   34.6400 C.3   508  MTT508      0.2167
     15  O23      -17.4380   94.6310   33.8770 O.3   508  MTT508     -0.2175
     16  C22      -19.1970   94.5100   35.5480 C.3   508  MTT508      0.2404
     17  O22      -20.1420   95.1690   34.7180 O.3   508  MTT508     -0.2149
     18  C21      -19.9830   93.5740   36.4380 C.3   508  MTT508      0.2695
     19  C25      -18.2400   91.8930   36.2790 C.3   508  MTT508      0.1803
     20  O25      -19.1000   92.6670   37.1140 O.3   508  MTT508     -0.3257
     21  C26      -17.4180   90.9890   37.1900 C.3   508  MTT508      0.2141
     22  O26      -18.2770   89.9710   37.7010 O.3   508  MTT508     -0.2176
     23  O34      -20.9090   92.8650   35.6320 O.3   508  MTT508     -0.3257
     24  C34      -22.2070   92.8270   36.1670 C.3   508  MTT508      0.1804
     25  C33      -23.1610   93.5240   35.2160 C.3   508  MTT508      0.2167
     26  O33      -22.8410   94.9190   35.1440 O.3   508  MTT508     -0.2175
     27  C32      -24.5870   93.3170   35.6760 C.3   508  MTT508      0.2404
     28  O32      -25.4630   93.8680   34.7090 O.3   508  MTT508     -0.2149
     29  C31      -24.9030   91.8350   35.8410 C.3   508  MTT508      0.2695
     30  C35      -22.5910   91.3770   36.3070 C.3   508  MTT508      0.1803
     31  O35      -23.9540   91.2450   36.7290 O.3   508  MTT508     -0.3257
     32  C36      -21.6840   90.6690   37.3080 C.3   508  MTT508      0.2141
     33  O36      -22.1000   89.3060   37.3780 O.3   508  MTT508     -0.2176
     34  O44      -24.8410   91.1780   34.5800 O.3   508  MTT508     -0.3257
     35  C44      -26.0100   90.4180   34.2630 C.3   508  MTT508      0.1804
     36  C43      -26.6740   91.0460   33.0420 C.3   508  MTT508      0.2168
     37  O43      -27.2440   92.3120   33.3920 O.3   508  MTT508     -0.2175
     38  C42      -27.7540   90.1430   32.4450 C.3   508  MTT508      0.2433
     39  O42      -28.1250   90.6640   31.1650 O.3   508  MTT508     -0.2148
     40  C41      -27.2840   88.6950   32.2740 C.3   508  MTT508      0.3023
     41  O41      -26.3600   88.5960   31.1760 O.3   508  MTT508     -0.1869
     42  C45      -25.5790   88.9930   33.9310 C.3   508  MTT508      0.1804
     43  O45      -26.6950   88.2110   33.4850 O.3   508  MTT508     -0.3237
     44  C46      -24.9840   88.3340   35.1560 C.3   508  MTT508      0.2141
     45  O46      -24.1730   87.2450   34.7290 O.3   508  MTT508     -0.2176
@<TRIPOS>BOND
     1    39    38    1
     2    41    40    1
     3     4     3    1
     4    40    38    1
     5    40    43    1
     6     6     5    1
     7    38    36    1
     8     3     5    1
     9     3     2    1
    10     1     2    1
    11    36    37    1
    12    36    35    1
    13     5     7    1
    14     2     8    1
    15    43    42    1
    16    15    14    1
    17    42    35    1
    18    42    44    1
    19    35    34    1
    20    12     7    1
    21    12    13    1
    22    34    29    1
    23     7     9    1
    24    14    13    1
    25    14    16    1
    26    28    27    1
    27    17    16    1
    28    45    44    1
    29     8     9    1
    30     8    10    1
    31    26    25    1
    32    25    27    1
    33    25    24    1
    34    13    19    1
    35    16    18    1
    36    23    24    1
    37    23    18    1
    38    27    29    1
    39    10    11    1
    40    29    31    1
    41    24    30    1
    42    19    20    1
    43    19    21    1
    44    30    31    1
    45    30    32    1
    46    18    20    1
    47    21    22    1
    48    32    33    1
