@<TRIPOS>MOLECULE
4fe9_GLC_A_1.pdb
 11 11 0 0 0
SMALL
GASTEIGER

@<TRIPOS>ATOM
      1  C1       -63.1990  106.0530   26.8100 C.3   502  GLC502      0.1777
      2  C2       -62.6170  105.4350   25.5740 C.3   502  GLC502      0.2141
      3  C3       -63.3110  104.1300   25.2450 C.3   502  GLC502      0.2173
      4  C4       -63.4000  103.2300   26.4690 C.3   502  GLC502      0.2142
      5  C5       -63.5280  103.8230   27.6710 C.3   502  GLC502      0.1810
      6  C6       -63.6110  102.9390   28.8840 C.3   502  GLC502      0.2141
      7  O2       -62.7830  106.3540   24.4820 O.3   502  GLC502     -0.2176
      8  O3       -62.6010  103.5110   24.1800 O.3   502  GLC502     -0.2175
      9  O4       -64.2200  102.0310   26.3530 O.3   502  GLC502     -0.2176
     10  O5       -63.0410  105.1720   27.8990 O.3   502  GLC502     -0.3481
     11  O6       -62.2720  102.6470   29.2890 O.3   502  GLC502     -0.2176
@<TRIPOS>BOND
     1     8     3    1
     2     7     2    1
     3     3     2    1
     4     3     4    1
     5     2     1    1
     6     9     4    1
     7     4     5    1
     8     1    10    1
     9     5    10    1
    10     5     6    1
    11     6    11    1
