@<TRIPOS>MOLECULE
4fea_0TE_A_1.pdb
 21 24 0 0 0
SMALL
GASTEIGER

@<TRIPOS>ATOM
      1 CL1       -49.4630   32.0450   27.3510 Cl    701  0TE701      0.0000
      2  C1       -49.8130   35.3420   27.3760 C.2   701  0TE701      0.0000
      3  N1       -50.4740   34.9850   26.1990 N.pl3 701  0TE701      0.0000
      4  S1       -50.9940   31.0980   24.4510 S.3   701  0TE701      0.0000
      5  C2       -49.7770   36.6990   27.7460 C.2   701  0TE701      0.0000
      6  N2       -52.9390   37.2990   23.2830 N.ar  701  0TE701      0.0000
      7  S2       -52.4790   30.7170   21.7920 S.3   701  0TE701      0.0000
      8  C3       -50.3990   37.6360   26.8760 C.2   701  0TE701      0.0000
      9  N3       -51.5560   33.8540   24.0600 N.pl3 701  0TE701      0.0000
     10  C4       -51.0740   37.2580   25.6500 C.2   701  0TE701      0.0000
     11  N4       -52.0920   33.0190   22.9770 N.2   701  0TE701      0.0000
     12  C5       -51.0930   35.8740   25.2750 C.2   701  0TE701      0.0000
     13  C6       -51.7460   35.2310   24.0720 C.2   701  0TE701      0.0000
     14  C7       -52.4900   35.9900   22.9520 C.ar  701  0TE701      0.0000
     15  C8       -52.7590   35.4120   21.6490 C.ar  701  0TE701      0.0000
     16  C9       -53.4820   36.2610   20.7710 C.ar  701  0TE701      0.0000
     17  C10      -53.9390   37.5520   21.0670 C.ar  701  0TE701      0.0000
     18  C11      -53.6470   38.0780   22.3740 C.ar  701  0TE701      0.0000
     19  C12      -51.8550   31.8110   23.1130 C.2   701  0TE701      0.0000
     20  C13      -53.2910   31.9020   20.6590 C.3   701  0TE701      0.0000
     21 CU1       -50.5800   32.9920   25.5500 Cu    701  0TE701      0.0000
@<TRIPOS>BOND
     1    20     7    1
     2    16    17   ar
     3    16    15   ar
     4    17    18   ar
     5    15    14   ar
     6     7    19    1
     7    18     6   ar
     8    14     6   ar
     9    14    13    1
    10    11    19    2
    11    11     9    1
    12    19     4    1
    13     9    13    1
    14     9    21    1
    15    13    12    2
    16     4    21    1
    17    12    10    1
    18    12     3    1
    19    21     3    1
    20    21     1    1
    21    10     8    2
    22     3     2    1
    23     8     5    1
    24     2     5    2
