@<TRIPOS>MOLECULE
4fee_TDM_A_1.pdb
 29 30 0 0 0
SMALL
GASTEIGER

@<TRIPOS>ATOM
      1  O1A       85.2590   63.0900   -0.2930 O.2   708  TDM708     -0.5169
      2  PA        84.0370   62.9220    0.5730 P.3   708  TDM708      0.2230
      3  O2A       83.7490   64.0350    1.5370 O.3   708  TDM708     -0.4370
      4  O3A       84.1460   61.5890    1.4220 O.3   708  TDM708     -0.2261
      5  PB        84.7020   60.0950    1.0210 P.3   708  TDM708      0.5373
      6  O2B       85.4750   60.2600   -0.2710 O.2   708  TDM708     -0.2221
      7  O3B       83.5290   59.1990    0.9100 O.3   708  TDM708     -0.1143
      8  O1B       85.6090   59.7920    2.1970 O.3   708  TDM708     -0.1143
      9  O7        82.8180   62.6700   -0.4140 O.3   708  TDM708     -0.3134
     10  C7        81.4330   62.5820    0.1400 C.3   708  TDM708      0.1544
     11  C6        80.5990   61.9900   -1.0030 C.3   708  TDM708      0.0661
     12  C5        79.1060   62.0640   -0.7310 C.2   708  TDM708      0.0164
     13  S1        78.4320   61.1970    0.6020 S.3   708  TDM708     -0.0952
     14  C2        76.8300   61.9310    0.3500 C.3   708  TDM708      0.1559
     15  C27       75.6700   61.0700    0.7210 C.3   708  TDM708      0.1807
     16  C29       75.8890   60.3910    2.0730 C.3   708  TDM708      0.0383
     17  O28       74.5010   61.8440    0.8120 O.3   708  TDM708     -0.2204
     18  N3        76.8880   62.5990   -0.9450 N.pl3 708  TDM708     -0.2970
     19  C4        78.2130   62.7390   -1.4600 C.2   708  TDM708      0.0279
     20  CM4       78.4300   63.5230   -2.7190 C.3   708  TDM708      0.0473
     21  C7'       75.7670   63.3710   -1.4310 C.3   708  TDM708      0.1237
     22  C5'       75.7830   64.8460   -1.0340 C.2   708  TDM708      0.0654
     23  C4'       75.6080   65.2900    0.2820 C.2   708  TDM708      0.2292
     24  N4'       75.2950   64.4650    1.2290 N.pl3 708  TDM708     -0.0925
     25  N3'       75.7140   66.6500    0.6090 N.2   708  TDM708     -0.3368
     26  C2'       75.9410   67.5310   -0.4480 C.1   708  TDM708      0.0663
     27  CM2       76.0540   68.9460   -0.0570 C.3   708  TDM708      0.1291
     28  N1'       76.0090   67.1460   -1.6890 N.2   708  TDM708     -0.1861
     29  C6'       75.9110   65.7830   -2.0420 C.2   708  TDM708      0.1115
@<TRIPOS>BOND
     1    20    19    1
     2    29    28    1
     3    29    22    2
     4    28    26    2
     5    19    18    1
     6    19    12    2
     7    21    22    1
     8    21    18    1
     9    22    23    1
    10    11    12    1
    11    11    10    1
    12    18    14    1
    13    12    13    1
    14    26    27    1
    15    26    25    2
    16     9    10    1
    17     9     2    1
    18     1     2    2
    19     6     5    2
    20    23    25    2
    21    23    24    1
    22    14    13    1
    23    14    15    1
    24     2     4    1
    25     2     3    1
    26    15    17    1
    27    15    16    1
    28     7     5    1
    29     5     4    1
    30     5     8    1
