@<TRIPOS>MOLECULE
4fef_HEM_A_1.pdb
 43 50 0 0 0
SMALL
GASTEIGER

@<TRIPOS>ATOM
      1  CHA       -3.3520   16.0770   26.0040 C.2   403  HEM403      0.0000
      2  CHB       -4.2640   20.5410   24.4160 C.2   403  HEM403      0.0000
      3  CHC        0.4080   21.1820   23.2950 C.2   403  HEM403      0.0000
      4  CHD        1.3430   16.8560   25.3280 C.2   403  HEM403      0.0000
      5  C1A       -3.9530   17.2820   25.6900 C.ar  403  HEM403      0.0000
      6  C2A       -5.3560   17.5470   25.9180 C.ar  403  HEM403      0.0000
      7  C3A       -5.6310   18.7740   25.4620 C.ar  403  HEM403      0.0000
      8  C4A       -4.3620   19.2950   24.9730 C.ar  403  HEM403      0.0000
      9  CMA       -7.0190   19.5850   25.5720 C.3   403  HEM403      0.0000
     10  CAA       -6.3410   16.5460   26.6220 C.3   403  HEM403      0.0000
     11  CBA       -6.4650   16.8080   28.1320 C.3   403  HEM403      0.0000
     12  CGA       -7.5960   15.9430   28.7150 C.2   403  HEM403      0.0000
     13  O1A       -8.8030   16.2690   28.4850 O.co2 403  HEM403      0.0000
     14  O2A       -7.3180   14.9070   29.3920 O.co2 403  HEM403      0.0000
     15  C1B       -3.0910   21.0720   23.9330 C.2   403  HEM403      0.0000
     16  C2B       -3.0110   22.3480   23.2960 C.2   403  HEM403      0.0000
     17  C3B       -1.7170   22.5210   22.9720 C.2   403  HEM403      0.0000
     18  C4B       -0.9620   21.3580   23.3470 C.2   403  HEM403      0.0000
     19  CMB       -4.1540   23.3640   22.9730 C.3   403  HEM403      0.0000
     20  CAB       -1.1370   23.7250   22.2120 C.2   403  HEM403      0.0000
     21  CBB        0.1130   23.7370   21.7160 C.2   403  HEM403      0.0000
     22  C1C        1.1040   20.1210   23.9110 C.ar  403  HEM403      0.0000
     23  C2C        2.5710   19.9740   23.9970 C.ar  403  HEM403      0.0000
     24  C3C        2.8790   18.7840   24.5920 C.ar  403  HEM403      0.0000
     25  C4C        1.5400   18.1410   24.8450 C.ar  403  HEM403      0.0000
     26  CMC        3.5530   21.0860   23.5340 C.3   403  HEM403      0.0000
     27  CAC        4.3250   18.2790   24.7380 C.2   403  HEM403      0.0000
     28  CBC        4.6460   17.5930   25.7920 C.2   403  HEM403      0.0000
     29  C1D        0.1770   16.2030   25.5800 C.2   403  HEM403      0.0000
     30  C2D        0.0800   14.8010   25.8350 C.2   403  HEM403      0.0000
     31  C3D       -1.3650   14.5540   26.0990 C.2   403  HEM403      0.0000
     32  C4D       -2.0230   15.8410   25.9180 C.2   403  HEM403      0.0000
     33  CMD        1.2110   13.7400   25.9300 C.3   403  HEM403      0.0000
     34  CAD       -1.9840   13.2130   26.4770 C.3   403  HEM403      0.0000
     35  CBD       -2.1470   13.1670   28.0070 C.3   403  HEM403      0.0000
     36  CGD       -2.6750   11.7290   28.3860 C.2   403  HEM403      0.0000
     37  O1D       -2.7430   11.3570   29.5790 O.co2 403  HEM403      0.0000
     38  O2D       -3.0020   10.8390   27.4930 O.co2 403  HEM403      0.0000
     39  NA        -3.3750   18.3000   25.0060 N.ar  403  HEM403      0.0000
     40  NB        -1.8400   20.4640   23.9240 N.2   403  HEM403      0.0000
     41  NC         0.5450   18.9650   24.3850 N.ar  403  HEM403      0.0000
     42  ND        -1.1040   16.7820   25.4980 N.2   403  HEM403      0.0000
     43 FE         -1.4560   18.5860   24.5990 Fe    403  HEM403      0.0000
@<TRIPOS>BOND
     1    21    20    2
     2    20    17    1
     3    17    16    2
     4    17    18    1
     5    19    16    1
     6     3    18    2
     7     3    22    1
     8    16    15    1
     9    18    40    1
    10    26    23    1
    11    22    23   ar
    12    22    41   ar
    13    40    15    2
    14    40    43    1
    15    15     2    1
    16    23    24   ar
    17    41    43    1
    18    41    25   ar
    19     2     8    2
    20    24    27    1
    21    24    25   ar
    22    43    39    1
    23    43    42    1
    24    27    28    2
    25    25     4    1
    26     8    39   ar
    27     8     7   ar
    28    39     5   ar
    29     4    29    2
    30     7     9    1
    31     7     6   ar
    32    42    29    1
    33    42    32    2
    34    29    30    1
    35     5     6   ar
    36     5     1    2
    37    30    33    1
    38    30    31    2
    39     6    10    1
    40    32     1    1
    41    32    31    1
    42    31    34    1
    43    34    35    1
    44    10    11    1
    45    38    36   ar
    46    35    36    1
    47    11    12    1
    48    36    37   ar
    49    13    12   ar
    50    12    14   ar
