@<TRIPOS>MOLECULE
4feg_TDM_A_1.pdb
 29 30 0 0 0
SMALL
GASTEIGER

@<TRIPOS>ATOM
      1  O1A       84.9430   63.0840   -0.3070 O.2   708  TDM708     -0.5169
      2  PA        83.7300   62.9240    0.5670 P.3   708  TDM708      0.2230
      3  O2A       83.4470   64.0410    1.5130 O.3   708  TDM708     -0.4370
      4  O3A       83.8450   61.5830    1.4200 O.3   708  TDM708     -0.2261
      5  PB        84.4010   60.0920    1.0130 P.3   708  TDM708      0.5373
      6  O2B       85.1570   60.2520   -0.2770 O.2   708  TDM708     -0.2221
      7  O3B       83.1990   59.2060    0.8990 O.3   708  TDM708     -0.1143
      8  O1B       85.3010   59.7940    2.1840 O.3   708  TDM708     -0.1143
      9  O7        82.5130   62.6350   -0.4000 O.3   708  TDM708     -0.3134
     10  C7        81.1570   62.5320    0.1440 C.3   708  TDM708      0.1544
     11  C6        80.3340   61.9720   -0.9950 C.3   708  TDM708      0.0661
     12  C5        78.8310   62.0670   -0.7420 C.2   708  TDM708      0.0164
     13  S1        78.1230   61.1900    0.5980 S.3   708  TDM708     -0.0952
     14  C2        76.5690   61.8900    0.3160 C.3   708  TDM708      0.1559
     15  C27       75.3560   61.0700    0.7380 C.3   708  TDM708      0.1807
     16  C29       75.6240   60.3540    2.0660 C.3   708  TDM708      0.0383
     17  O28       74.2420   61.8960    0.8750 O.3   708  TDM708     -0.2204
     18  N3        76.6060   62.5810   -0.9420 N.pl3 708  TDM708     -0.2970
     19  C4        77.9090   62.7160   -1.4430 C.2   708  TDM708      0.0279
     20  CM4       78.1340   63.5300   -2.7060 C.3   708  TDM708      0.0473
     21  C7'       75.4370   63.3690   -1.4690 C.3   708  TDM708      0.1237
     22  C5'       75.5240   64.8620   -1.0970 C.2   708  TDM708      0.0654
     23  C4'       75.3410   65.2970    0.2820 C.2   708  TDM708      0.2292
     24  N4'       75.0450   64.4710    1.2620 N.pl3 708  TDM708     -0.0925
     25  N3'       75.4570   66.6420    0.5870 N.2   708  TDM708     -0.3368
     26  C2'       75.6560   67.4950   -0.4390 C.1   708  TDM708      0.0663
     27  CM2       75.7710   68.9730   -0.1300 C.3   708  TDM708      0.1291
     28  N1'       75.7190   67.1330   -1.7040 N.2   708  TDM708     -0.1861
     29  C6'       75.6570   65.7750   -2.0360 C.2   708  TDM708      0.1115
@<TRIPOS>BOND
     1    20    19    1
     2    29    28    1
     3    29    22    2
     4    28    26    2
     5    21    22    1
     6    21    18    1
     7    19    18    1
     8    19    12    2
     9    22    23    1
    10    11    12    1
    11    11    10    1
    12    18    14    1
    13    12    13    1
    14    26    27    1
    15    26    25    2
    16     9    10    1
    17     9     2    1
    18     1     2    2
    19     6     5    2
    20    23    25    2
    21    23    24    1
    22    14    13    1
    23    14    15    1
    24     2     4    1
    25     2     3    1
    26    15    17    1
    27    15    16    1
    28     7     5    1
    29     5     4    1
    30     5     8    1
