@<TRIPOS>MOLECULE
4feu_537_A_1.pdb
 17 20 0 0 0
SMALL
GASTEIGER

@<TRIPOS>ATOM
      1  C1       -22.0090   27.5680  -13.1960 C.ar  302  537302      0.0001
      2  C2       -21.9220   28.9180  -13.5360 C.ar  302  537302      0.0017
      3  C3       -21.5970   29.2690  -14.8430 C.ar  302  537302      0.0225
      4  C4       -21.4110   28.2550  -15.8180 C.ar  302  537302      0.0405
      5  C5       -21.4310   26.9050  -15.4480 C.ar  302  537302      0.0032
      6  C6       -21.7460   26.5660  -14.1360 C.ar  302  537302      0.0001
      7  C11      -21.2590   30.8850  -16.5460 C.2   302  537302      0.0381
      8  C12      -21.2720   32.2430  -16.7330 C.2   302  537302      0.0864
      9  C13      -20.9670   32.7340  -18.0110 C.3   302  537302      0.0736
     10  C14      -20.7010   31.8030  -19.0320 C.2   302  537302     -0.0196
     11  C15      -20.7200   30.4110  -18.7940 C.2   302  537302     -0.0009
     12  C16      -21.0670   29.9340  -17.5300 C.2   302  537302      0.0413
     13  C20      -21.1700   28.5820  -17.1640 C.2   302  537302      0.1957
     14  C21      -21.5380   30.6170  -15.2300 C.2   302  537302      0.1042
     15  O22      -20.9580   27.6750  -17.9740 O.2   302  537302     -0.2866
     16  N23      -21.7010   31.8280  -14.6770 N.2   302  537302     -0.1483
     17  N24      -21.5760   32.7440  -15.5270 N.2   302  537302     -0.1520
@<TRIPOS>BOND
     1    10    11    2
     2    10     9    1
     3    11    12    1
     4     9     8    1
     5    15    13    2
     6    12    13    1
     7    12     7    2
     8    13     4    1
     9     8     7    1
    10     8    17    2
    11     7    14    1
    12     4     5   ar
    13     4     3   ar
    14    17    16    1
    15     5     6   ar
    16    14     3    1
    17    14    16    2
    18     3     2   ar
    19     6     1   ar
    20     2     1   ar
