@<TRIPOS>MOLECULE
4feu_KAN_A_1.pdb
 33 35 0 0 0
SMALL
GASTEIGER

@<TRIPOS>ATOM
      1  C1        -9.8280   24.4260  -24.2350 C.3   301  KAN301      0.2695
      2  C2       -10.6960   25.0400  -23.1030 C.3   301  KAN301      0.2406
      3  C3       -10.9050   24.0430  -21.9400 C.3   301  KAN301      0.2198
      4  C4       -11.3650   22.6780  -22.4330 C.3   301  KAN301      0.2133
      5  C5       -10.4710   22.1830  -23.5780 C.3   301  KAN301      0.1696
      6  C6       -11.0510   20.8700  -24.1400 C.3   301  KAN301      0.1415
      7  C7        -4.8460   24.5590  -26.0800 C.3   301  KAN301      0.1231
      8  C8        -5.9970   25.3510  -26.6950 C.3   301  KAN301      0.1680
      9  C9        -7.0830   25.4840  -25.5960 C.3   301  KAN301      0.2088
     10  C10       -7.5340   24.1240  -25.0210 C.3   301  KAN301      0.1680
     11  C11       -6.2830   23.3430  -24.5770 C.3   301  KAN301      0.1231
     12  C12       -5.3280   23.1690  -25.7490 C.3   301  KAN301      0.0432
     13  C13       -6.1370   27.3270  -28.0580 C.3   301  KAN301      0.2684
     14  C14       -5.1280   28.1680  -28.8430 C.3   301  KAN301      0.2279
     15  C15       -4.6110   29.3250  -27.9770 C.3   301  KAN301      0.1599
     16  C16       -5.7940   30.1350  -27.4220 C.3   301  KAN301      0.2017
     17  C17       -6.7350   29.2310  -26.6280 C.3   301  KAN301      0.1824
     18  C18       -7.9010   30.0860  -26.0840 C.3   301  KAN301      0.2142
     19  N1       -10.0440   20.2550  -25.0190 N.3   301  KAN301     -0.1286
     20  N2        -6.6210   22.0120  -24.0540 N.3   301  KAN301     -0.1302
     21  N3        -3.6810   24.5060  -26.9650 N.3   301  KAN301     -0.1302
     22  N4        -3.7420   30.1960  -28.7830 N.3   301  KAN301     -0.1272
     23  O5       -10.3360   23.1430  -24.6440 O.3   301  KAN301     -0.3268
     24  O6       -10.0720   26.2370  -22.6120 O.3   301  KAN301     -0.2149
     25  O7       -11.8700   24.5130  -21.0000 O.3   301  KAN301     -0.2174
     26  O8       -11.2900   21.7700  -21.3250 O.3   301  KAN301     -0.2176
     27  O9        -8.4280   24.2790  -23.9000 O.3   301  KAN301     -0.3269
     28  O10       -8.2160   26.1910  -26.1090 O.3   301  KAN301     -0.2178
     29  O11       -5.4250   26.6310  -27.0230 O.3   301  KAN301     -0.3269
     30  O12       -7.1940   28.1600  -27.5020 O.3   301  KAN301     -0.3257
     31  O13       -4.0430   27.3420  -29.2730 O.3   301  KAN301     -0.2161
     32  O14       -5.3340   31.2110  -26.5990 O.3   301  KAN301     -0.2188
     33  O15       -8.5900   29.3900  -25.0360 O.3   301  KAN301     -0.2176
@<TRIPOS>BOND
     1    31    14    1
     2    14    13    1
     3    14    15    1
     4    22    15    1
     5    13    30    1
     6    13    29    1
     7    15    16    1
     8    30    17    1
     9    16    17    1
    10    16    32    1
    11    29     8    1
    12    21     7    1
    13     8     7    1
    14     8     9    1
    15    17    18    1
    16    28     9    1
    17    18    33    1
    18     7    12    1
    19    12    11    1
    20     9    10    1
    21    10    11    1
    22    10    27    1
    23    19     6    1
    24    23     1    1
    25    23     5    1
    26    11    20    1
    27     1    27    1
    28     1     2    1
    29     6     5    1
    30     5     4    1
    31     2    24    1
    32     2     3    1
    33     4     3    1
    34     4    26    1
    35     3    25    1
