@<TRIPOS>MOLECULE
4fev_PP1_A_1.pdb
 21 23 0 0 0
SMALL
GASTEIGER

@<TRIPOS>ATOM
      1  N1       -21.0340  -27.1620  -17.7210 N.pl3 302  PP1302     -0.0877
      2  C2       -21.8970  -25.1380  -20.5680 C.3   302  PP1302      0.5248
      3  N3       -21.5400  -25.3810  -19.3220 N.2   302  PP1302     -0.0088
      4  C4       -21.3720  -26.6490  -18.9010 C.2   302  PP1302      0.3404
      5  C5       -21.5620  -27.7160  -19.7680 C.3   302  PP1302      0.2639
      6  C6       -21.9370  -27.4060  -21.0840 C.2   302  PP1302      0.4081
      7  N7       -22.0890  -26.1270  -21.4220 N.2   302  PP1302     -0.0027
      8  N8       -20.9910  -28.3990  -17.7430 N.2   302  PP1302     -0.0915
      9  C9       -21.2720  -28.8410  -18.9770 C.2   302  PP1302      0.1226
     10  N10      -22.1590  -28.2980  -22.0510 N.pl3 302  PP1302      0.2118
     11  C11      -21.3590  -30.1980  -19.3170 C.ar  302  PP1302      0.0182
     12  C12      -21.5500  -30.6650  -20.6120 C.ar  302  PP1302      0.0010
     13  C13      -21.6220  -32.0240  -20.8940 C.ar  302  PP1302     -0.0042
     14  C14      -21.4940  -32.9430  -19.8660 C.ar  302  PP1302     -0.0218
     15  C15      -21.2920  -32.4970  -18.5630 C.ar  302  PP1302     -0.0042
     16  C16      -21.2110  -31.1330  -18.2960 C.ar  302  PP1302      0.0010
     17  C24      -21.5720  -34.4390  -20.1740 C.3   302  PP1302      0.0310
     18  C28      -20.7230  -26.3530  -16.5060 C.3   302  PP1302      0.1509
     19  C29      -20.3370  -27.3330  -15.3970 C.3   302  PP1302      0.0491
     20  C33      -19.5340  -25.4270  -16.8210 C.3   302  PP1302      0.0491
     21  C37      -21.9560  -25.5330  -16.1060 C.3   302  PP1302      0.0491
@<TRIPOS>BOND
     1    10     6    1
     2     7     6    2
     3     7     2    1
     4     6     5    1
     5    13    12   ar
     6    13    14   ar
     7    12    11   ar
     8     2     3    1
     9    17    14    1
    10    14    15   ar
    11     5     9    1
    12     5     4    1
    13     3     4    2
    14    11     9    1
    15    11    16   ar
    16     9     8    2
    17     4     1    1
    18    15    16   ar
    19     8     1    1
    20     1    18    1
    21    20    18    1
    22    18    21    1
    23    18    19    1
