@<TRIPOS>MOLECULE
4fev_KAN_A_1.pdb
 33 35 0 0 0
SMALL
GASTEIGER

@<TRIPOS>ATOM
      1  C1       -10.0460  -32.6610  -10.4850 C.3   301  KAN301      0.2695
      2  C2       -10.8490  -31.8700  -11.5190 C.3   301  KAN301      0.2406
      3  C3       -10.8090  -30.3780  -11.2450 C.3   301  KAN301      0.2198
      4  C4       -11.3840  -30.1340   -9.8730 C.3   301  KAN301      0.2133
      5  C5       -10.5400  -30.8830   -8.8590 C.3   301  KAN301      0.1696
      6  C6       -11.1980  -30.5440   -7.5240 C.3   301  KAN301      0.1415
      7  C7        -5.0620  -34.4320   -9.9910 C.3   301  KAN301      0.1231
      8  C8        -6.2840  -35.2110  -10.4160 C.3   301  KAN301      0.1680
      9  C9        -7.3100  -34.2080  -11.0030 C.3   301  KAN301      0.2088
     10  C10       -7.7270  -33.1400   -9.9600 C.3   301  KAN301      0.1680
     11  C11       -6.4610  -32.3650   -9.5770 C.3   301  KAN301      0.1231
     12  C12       -5.4500  -33.3390   -8.9840 C.3   301  KAN301      0.0432
     13  C13       -6.6890  -37.3940  -11.4870 C.3   301  KAN301      0.2684
     14  C14       -5.7260  -38.5150  -11.8940 C.3   301  KAN301      0.2279
     15  C15       -5.0810  -38.2820  -13.2500 C.3   301  KAN301      0.1599
     16  C16       -6.2190  -38.1940  -14.2590 C.3   301  KAN301      0.2017
     17  C17       -7.1250  -37.0320  -13.8650 C.3   301  KAN301      0.1824
     18  C18       -8.3040  -36.8750  -14.8240 C.3   301  KAN301      0.2142
     19  N1       -10.4390  -31.2130   -6.4650 N.3   301  KAN301     -0.1286
     20  N2        -6.8360  -31.3870   -8.5560 N.3   301  KAN301     -0.1302
     21  N3        -4.1240  -35.4040   -9.3760 N.3   301  KAN301     -0.1302
     22  N4        -4.2140  -39.4110  -13.6150 N.3   301  KAN301     -0.1272
     23  O5       -10.5670  -32.3220   -9.1720 O.3   301  KAN301     -0.3268
     24  O6       -10.2970  -32.1000  -12.8270 O.3   301  KAN301     -0.2149
     25  O7       -11.6050  -29.6910  -12.2240 O.3   301  KAN301     -0.2174
     26  O8       -11.3520  -28.7290   -9.5880 O.3   301  KAN301     -0.2176
     27  O9        -8.6730  -32.2190  -10.5190 O.3   301  KAN301     -0.3269
     28  O10       -8.4600  -34.9510  -11.4620 O.3   301  KAN301     -0.2178
     29  O11       -5.8530  -36.2300  -11.3450 O.3   301  KAN301     -0.3269
     30  O12       -7.6650  -37.2610  -12.5320 O.3   301  KAN301     -0.3257
     31  O13       -4.7710  -38.6220  -10.8320 O.3   301  KAN301     -0.2161
     32  O14       -5.7270  -38.0770  -15.5940 O.3   301  KAN301     -0.2188
     33  O15       -9.0830  -35.7500  -14.3750 O.3   301  KAN301     -0.2176
@<TRIPOS>BOND
     1    32    16    1
     2    18    33    1
     3    18    17    1
     4    16    17    1
     5    16    15    1
     6    17    30    1
     7    22    15    1
     8    15    14    1
     9    24     2    1
    10    30    13    1
    11    25     3    1
    12    14    13    1
    13    14    31    1
    14     2     3    1
    15     2     1    1
    16    13    29    1
    17    28     9    1
    18    29     8    1
    19     3     4    1
    20     9     8    1
    21     9    10    1
    22    27     1    1
    23    27    10    1
    24     1    23    1
    25     8     7    1
    26     7    21    1
    27     7    12    1
    28    10    11    1
    29     4    26    1
    30     4     5    1
    31    11    12    1
    32    11    20    1
    33    23     5    1
    34     5     6    1
    35     6    19    1
