@<TRIPOS>MOLECULE
4few_KAN_A_1.pdb
 33 35 0 0 0
SMALL
GASTEIGER

@<TRIPOS>ATOM
      1  C1        -9.9770  -33.3600   -9.5340 C.3   301  KAN301      0.2695
      2  C2       -10.7610  -32.5840  -10.5880 C.3   301  KAN301      0.2406
      3  C3       -10.7240  -31.0700  -10.3630 C.3   301  KAN301      0.2198
      4  C4       -11.3140  -30.7750   -9.0070 C.3   301  KAN301      0.2133
      5  C5       -10.4670  -31.4990   -7.9650 C.3   301  KAN301      0.1696
      6  C6       -11.0570  -31.1890   -6.5920 C.3   301  KAN301      0.1415
      7  C7        -5.0000  -35.1480   -9.1260 C.3   301  KAN301      0.1231
      8  C8        -6.2010  -35.9280   -9.5600 C.3   301  KAN301      0.1680
      9  C9        -7.2360  -34.9120  -10.1330 C.3   301  KAN301      0.2088
     10  C10       -7.6610  -33.8590   -9.0760 C.3   301  KAN301      0.1680
     11  C11       -6.4090  -33.0670   -8.7010 C.3   301  KAN301      0.1231
     12  C12       -5.4030  -34.0540   -8.1370 C.3   301  KAN301      0.0432
     13  C13       -6.6420  -38.0980  -10.6320 C.3   301  KAN301      0.2684
     14  C14       -5.7570  -39.2710  -11.0540 C.3   301  KAN301      0.2279
     15  C15       -5.0750  -39.0090  -12.3880 C.3   301  KAN301      0.1599
     16  C16       -6.1960  -38.8440  -13.4080 C.3   301  KAN301      0.2017
     17  C17       -7.0620  -37.6720  -12.9790 C.3   301  KAN301      0.1824
     18  C18       -8.1280  -37.3190  -14.0380 C.3   301  KAN301      0.2142
     19  N1       -10.2350  -31.8570   -5.5760 N.3   301  KAN301     -0.1286
     20  N2        -6.8060  -32.1350   -7.6320 N.3   301  KAN301     -0.1302
     21  N3        -4.1000  -36.1340   -8.4810 N.3   301  KAN301     -0.1302
     22  N4        -4.1600  -40.1140  -12.7240 N.3   301  KAN301     -0.1272
     23  O5       -10.4940  -32.9680   -8.2380 O.3   301  KAN301     -0.3268
     24  O6       -10.1970  -32.8840  -11.8760 O.3   301  KAN301     -0.2149
     25  O7       -11.5100  -30.3870  -11.3470 O.3   301  KAN301     -0.2174
     26  O8       -11.3110  -29.3650   -8.8100 O.3   301  KAN301     -0.2176
     27  O9        -8.6050  -32.9320   -9.6060 O.3   301  KAN301     -0.3269
     28  O10       -8.3900  -35.6110  -10.6420 O.3   301  KAN301     -0.2178
     29  O11       -5.7420  -36.9430  -10.4730 O.3   301  KAN301     -0.3269
     30  O12       -7.6390  -37.9100  -11.6540 O.3   301  KAN301     -0.3257
     31  O13       -4.8120  -39.4480  -10.0060 O.3   301  KAN301     -0.2161
     32  O14       -5.6780  -38.6250  -14.7040 O.3   301  KAN301     -0.2188
     33  O15       -8.8040  -36.0980  -13.6490 O.3   301  KAN301     -0.2176
@<TRIPOS>BOND
     1    32    16    1
     2    18    33    1
     3    18    17    1
     4    16    17    1
     5    16    15    1
     6    17    30    1
     7    22    15    1
     8    15    14    1
     9    24     2    1
    10    30    13    1
    11    25     3    1
    12    14    13    1
    13    14    31    1
    14    28     9    1
    15    13    29    1
    16     2     3    1
    17     2     1    1
    18    29     8    1
    19     3     4    1
    20     9     8    1
    21     9    10    1
    22    27     1    1
    23    27    10    1
    24     8     7    1
    25     1    23    1
    26     7    21    1
    27     7    12    1
    28    10    11    1
    29     4    26    1
    30     4     5    1
    31    11    12    1
    32    11    20    1
    33    23     5    1
    34     5     6    1
    35     6    19    1
