@<TRIPOS>MOLECULE
4few_PP2_A_1.pdb
 21 23 0 0 0
SMALL
GASTEIGER

@<TRIPOS>ATOM
      1  C1       -21.3120  -27.3190  -17.9070 C.2   302  PP2302      0.3404
      2  N2       -21.4630  -26.0450  -18.3030 N.2   302  PP2302     -0.0088
      3  C3       -21.7980  -25.7750  -19.5440 C.3   302  PP2302      0.5248
      4  N4       -21.9830  -26.7390  -20.4280 N.2   302  PP2302     -0.0027
      5  C5       -21.8410  -28.0290  -20.1120 C.2   302  PP2302      0.4081
      6  C6       -21.4900  -28.3660  -18.8030 C.3   302  PP2302      0.2639
      7  C8       -21.2480  -29.5130  -18.0280 C.2   302  PP2302      0.1226
      8  N9       -20.9500  -29.1030  -16.7960 N.2   302  PP2302     -0.0915
      9  N10      -20.9900  -27.8700  -16.7340 N.pl3 302  PP2302     -0.0877
     10  C11      -21.2940  -30.8560  -18.3990 C.ar  302  PP2302      0.0182
     11  C12      -21.6080  -31.2860  -19.6790 C.ar  302  PP2302      0.0022
     12  C13      -21.6520  -32.6310  -20.0010 C.ar  302  PP2302      0.0114
     13  C14      -21.3820  -33.5730  -19.0210 C.ar  302  PP2302      0.0577
     14  C15      -21.0710  -33.1640  -17.7290 C.ar  302  PP2302      0.0114
     15  C16      -21.0320  -31.8090  -17.4200 C.ar  302  PP2302      0.0022
     16  C22      -20.6860  -27.1140  -15.4890 C.3   302  PP2302      0.1509
     17  C23      -21.9360  -26.3730  -15.0330 C.3   302  PP2302      0.0491
     18  C24      -20.2340  -28.1320  -14.4450 C.3   302  PP2302      0.0491
     19  C25      -19.5410  -26.1240  -15.7610 C.3   302  PP2302      0.0491
     20  N25      -22.0540  -28.9110  -21.0800 N.pl3 302  PP2302      0.2118
     21 CL        -21.4320  -35.2520  -19.4220 Cl    302  PP2302     -0.0822
@<TRIPOS>BOND
     1    20     5    1
     2     4     5    2
     3     4     3    1
     4     5     6    1
     5    12    11   ar
     6    12    13   ar
     7    11    10   ar
     8     3     2    1
     9    21    13    1
    10    13    14   ar
    11     6     7    1
    12     6     1    1
    13    10     7    1
    14    10    15   ar
    15     2     1    2
    16     7     8    2
    17     1     9    1
    18    14    15   ar
    19     8     9    1
    20     9    16    1
    21    19    16    1
    22    16    17    1
    23    16    18    1
