@<TRIPOS>MOLECULE
4fex_KAN_A_1.pdb
 33 35 0 0 0
SMALL
GASTEIGER

@<TRIPOS>ATOM
      1  C1       -17.1370  -55.1310   25.6360 C.3   301  KAN301      0.2695
      2  C2       -17.9410  -55.5170   24.3810 C.3   301  KAN301      0.2406
      3  C3       -17.8770  -54.4290   23.3080 C.3   301  KAN301      0.2198
      4  C4       -18.4000  -53.1360   23.8770 C.3   301  KAN301      0.2133
      5  C5       -17.5240  -52.7480   25.0690 C.3   301  KAN301      0.1696
      6  C6       -17.9110  -51.3440   25.5460 C.3   301  KAN301      0.1415
      7  C7       -12.0390  -55.1950   27.3390 C.3   301  KAN301      0.1231
      8  C8       -13.1930  -55.9330   27.9640 C.3   301  KAN301      0.1680
      9  C9       -14.2350  -56.1170   26.8240 C.3   301  KAN301      0.2088
     10  C10      -14.7980  -54.7660   26.3520 C.3   301  KAN301      0.1680
     11  C11      -13.5910  -54.0510   25.7370 C.3   301  KAN301      0.1231
     12  C12      -12.5250  -53.8680   26.7770 C.3   301  KAN301      0.0432
     13  C13      -13.4410  -57.8300   29.3870 C.3   301  KAN301      0.2684
     14  C14      -12.4750  -58.6520   30.2440 C.3   301  KAN301      0.2279
     15  C15      -11.7320  -59.6800   29.4490 C.3   301  KAN301      0.1599
     16  C16      -12.7950  -60.6080   28.8640 C.3   301  KAN301      0.2017
     17  C17      -13.7170  -59.7930   27.9960 C.3   301  KAN301      0.1824
     18  C18      -14.7890  -60.7790   27.5070 C.3   301  KAN301      0.2142
     19  N1       -17.0340  -50.9800   26.6680 N.3   301  KAN301     -0.1286
     20  N2       -14.0240  -52.7020   25.3590 N.3   301  KAN301     -0.1302
     21  N3       -11.0160  -54.9570   28.3770 N.3   301  KAN301     -0.1302
     22  N4       -10.8010  -60.3590   30.3670 N.3   301  KAN301     -0.1272
     23  O5       -17.5980  -53.8260   26.0810 O.3   301  KAN301     -0.3268
     24  O6       -17.4300  -56.7110   23.7780 O.3   301  KAN301     -0.2149
     25  O7       -18.6750  -54.7850   22.1830 O.3   301  KAN301     -0.2174
     26  O8       -18.3470  -52.1350   22.8780 O.3   301  KAN301     -0.2176
     27  O9       -15.7730  -54.9030   25.2850 O.3   301  KAN301     -0.3269
     28  O10      -15.3000  -57.0420   27.1370 O.3   301  KAN301     -0.2178
     29  O11      -12.6140  -57.1390   28.4620 O.3   301  KAN301     -0.3269
     30  O12      -14.3560  -58.7600   28.7630 O.3   301  KAN301     -0.3257
     31  O13      -11.5910  -57.7040   30.8650 O.3   301  KAN301     -0.2161
     32  O14      -12.1850  -61.6270   28.0710 O.3   301  KAN301     -0.2188
     33  O15      -15.7210  -60.1040   26.6720 O.3   301  KAN301     -0.2176
@<TRIPOS>BOND
     1    25     3    1
     2    26     4    1
     3     3     4    1
     4     3     2    1
     5    24     2    1
     6     4     5    1
     7     2     1    1
     8     5     6    1
     9     5    23    1
    10    27     1    1
    11    27    10    1
    12    20    11    1
    13     6    19    1
    14     1    23    1
    15    11    10    1
    16    11    12    1
    17    10     9    1
    18    33    18    1
    19    12     7    1
    20     9    28    1
    21     9     8    1
    22     7     8    1
    23     7    21    1
    24    18    17    1
    25     8    29    1
    26    17    30    1
    27    17    16    1
    28    32    16    1
    29    29    13    1
    30    30    13    1
    31    16    15    1
    32    13    14    1
    33    15    14    1
    34    15    22    1
    35    14    31    1
