@<TRIPOS>MOLECULE
4fex_0TO_A_1.pdb
 22 24 0 0 0
SMALL
GASTEIGER

@<TRIPOS>ATOM
      1  C21      -28.0380  -54.8270   15.3900 C.ar  302  0TO302      0.0116
      2  C20      -28.1690  -56.0160   14.6850 C.ar  302  0TO302      0.0612
      3 CL        -28.2100  -56.0160   12.9570 Cl    302  0TO302     -0.0821
      4  C18      -28.2640  -57.2340   15.3580 C.ar  302  0TO302      0.0558
      5  C19      -28.0080  -54.9040   16.7780 C.ar  302  0TO302      0.0045
      6  C17      -28.0760  -56.1370   17.4430 C.ar  302  0TO302      0.0445
      7  C7       -28.3120  -57.3190   16.7470 C.ar  302  0TO302      0.1842
      8  N6       -28.2910  -58.4990   17.3850 N.pl3 302  0TO302     -0.0060
      9  C4       -28.5050  -59.7270   16.8550 C.2   302  0TO302      0.3643
     10  N5       -29.0340  -59.9530   15.6300 N.2   302  0TO302     -0.0327
     11  C8       -29.3050  -61.1810   15.1940 C.3   302  0TO302      0.3917
     12  N9       -29.1410  -62.2570   15.9550 N.2   302  0TO302     -0.2223
     13  C2       -28.4290  -60.8330   17.6880 C.2   302  0TO302      0.1027
     14  C1       -28.6870  -62.1090   17.1970 C.2   302  0TO302      0.0732
     15  C3       -27.9180  -60.6670   18.9620 C.2   302  0TO302      0.0484
     16  C10      -27.7370  -61.7710   19.7820 C.2   302  0TO302      0.1689
     17  O11      -27.2590  -61.5820   21.0450 O.2   302  0TO302     -0.4687
     18  C14      -25.8050  -61.5680   21.0090 C.3   302  0TO302      0.2526
     19  C12      -28.0350  -63.0510   19.3120 C.2   302  0TO302      0.1558
     20  C15      -28.5160  -63.2180   18.0070 C.3   302  0TO302      0.1127
     21  O13      -27.8540  -64.1290   20.1340 O.2   302  0TO302     -0.4723
     22  C16      -28.8600  -65.1150   19.8550 C.3   302  0TO302      0.2521
@<TRIPOS>BOND
     1     3     2    1
     2     2     4   ar
     3     2     1   ar
     4    11    10    1
     5    11    12    1
     6     4     7   ar
     7     1     5   ar
     8    10     9    2
     9    12    14    2
    10     7     8    1
    11     7     6   ar
    12     5     6   ar
    13     9     8    1
    14     9    13    1
    15    14    13    1
    16    14    20    1
    17    13    15    2
    18    20    19    1
    19    15    16    1
    20    19    16    2
    21    19    21    1
    22    16    17    1
    23    22    21    1
    24    18    17    1
