@<TRIPOS>MOLECULE
4fey_ADP_A_1.pdb
 27 29 0 0 0
SMALL
GASTEIGER

@<TRIPOS>ATOM
      1  PB        -6.7820   76.6230  -30.9750 P.3   401  ADP401      0.5373
      2  O1B       -6.9710   77.4840  -32.2060 O.2   401  ADP401     -0.2221
      3  O2B       -5.8260   75.4720  -31.1870 O.3   401  ADP401     -0.1143
      4  O3B       -6.4720   77.4500  -29.7560 O.3   401  ADP401     -0.1143
      5  PA        -8.4710   74.3470  -30.5720 P.3   401  ADP401      0.2231
      6  O1A       -7.8780   73.8520  -29.2720 O.3   401  ADP401     -0.4370
      7  O2A       -7.9770   73.7600  -31.8720 O.2   401  ADP401     -0.5169
      8  O3A       -8.2280   75.9490  -30.6440 O.3   401  ADP401     -0.2261
      9  O5'      -10.0740   74.1140  -30.5240 O.3   401  ADP401     -0.3111
     10  C5'      -10.9950   75.2100  -30.4830 C.3   401  ADP401      0.1813
     11  C4'      -12.2350   74.9590  -31.3380 C.3   401  ADP401      0.1821
     12  O4'      -13.4070   74.8200  -30.5210 O.3   401  ADP401     -0.3135
     13  C3'      -12.4870   76.1530  -32.2470 C.3   401  ADP401      0.2184
     14  O3'      -12.7930   75.6940  -33.5680 O.3   401  ADP401     -0.2174
     15  C2'      -13.6940   76.8540  -31.6530 C.3   401  ADP401      0.2570
     16  O2'      -14.5340   77.5050  -32.6160 O.3   401  ADP401     -0.2130
     17  C1'      -14.4280   75.7170  -30.9730 C.3   401  ADP401      0.3186
     18  N9       -15.2600   76.2440  -29.8640 N.pl3 401  ADP401     -0.1439
     19  C8       -15.2380   77.5000  -29.3780 C.3   401  ADP401      0.3377
     20  N7       -16.1480   77.6600  -28.3870 N.2   401  ADP401     -0.2095
     21  C5       -16.8270   76.5050  -28.2650 C.2   401  ADP401      0.2526
     22  C6       -17.9190   75.9840  -27.3970 C.2   401  ADP401      0.4393
     23  N6       -18.5500   76.7650  -26.4740 N.pl3 401  ADP401      0.2180
     24  N1       -18.2840   74.6900  -27.5840 N.2   401  ADP401      0.0021
     25  C2       -17.7380   73.9120  -28.5460 C.3   401  ADP401      0.5254
     26  N3       -16.7150   74.3030  -29.3340 N.2   401  ADP401     -0.0055
     27  C4       -16.2260   75.5680  -29.2440 C.2   401  ADP401      0.3518
@<TRIPOS>BOND
     1    14    13    1
     2    16    15    1
     3    13    15    1
     4    13    11    1
     5     2     1    2
     6     7     5    2
     7    15    17    1
     8    11    12    1
     9    11    10    1
    10     3     1    1
    11     1     8    1
    12     1     4    1
    13    17    12    1
    14    17    18    1
    15     8     5    1
    16     5     9    1
    17     5     6    1
    18     9    10    1
    19    18    19    1
    20    18    27    1
    21    19    20    1
    22    26    27    2
    23    26    25    1
    24    27    21    1
    25    25    24    1
    26    20    21    2
    27    21    22    1
    28    24    22    2
    29    22    23    1
