@<TRIPOS>MOLECULE
4ff2_ATP_A_1.pdb
 31 33 0 0 0
SMALL
GASTEIGER

@<TRIPOS>ATOM
      1  PG        11.9720  -24.7360  360.8860 P.3   1201  ATP1201     0.5373
      2  O1G       11.3750  -24.0090  359.7140 O.2   1201  ATP1201    -0.2221
      3  O2G       13.4720  -24.8590  360.8380 O.3   1201  ATP1201    -0.1143
      4  O3G       11.2690  -26.0180  361.2410 O.3   1201  ATP1201    -0.1143
      5  PB        11.2250  -24.3120  363.5660 P.3   1201  ATP1201     0.2277
      6  O1B       10.0080  -25.1750  363.3660 O.2   1201  ATP1201    -0.5168
      7  O2B       11.1520  -23.1390  364.5110 O.3   1201  ATP1201    -0.4368
      8  O3B       11.6800  -23.7530  362.1270 O.3   1201  ATP1201    -0.2258
      9  PA        12.4010  -26.6060  364.7840 P.3   1201  ATP1201     0.2189
     10  O1A       11.4320  -27.5150  364.0790 O.2   1201  ATP1201    -0.5170
     11  O2A       13.8010  -27.0890  365.0450 O.3   1201  ATP1201    -0.4371
     12  O3A       12.4960  -25.2150  363.9770 O.3   1201  ATP1201    -0.2700
     13  O5'       11.7630  -26.1740  366.1930 O.3   1201  ATP1201    -0.3112
     14  C5'       10.4120  -26.5080  366.4800 C.3   1201  ATP1201     0.1813
     15  C4'        9.8570  -25.6070  367.5740 C.3   1201  ATP1201     0.1821
     16  O4'       10.4210  -25.9400  368.8440 O.3   1201  ATP1201    -0.3135
     17  C3'       10.1800  -24.1400  367.3560 C.3   1201  ATP1201     0.2184
     18  O3'        9.1960  -23.4940  366.5480 O.3   1201  ATP1201    -0.2174
     19  C2'       10.1970  -23.5840  368.7610 C.3   1201  ATP1201     0.2570
     20  O2'        8.8820  -23.2120  369.1720 O.3   1201  ATP1201    -0.2130
     21  C1'       10.6720  -24.7520  369.5980 C.3   1201  ATP1201     0.3186
     22  N9        12.1240  -24.5570  369.7800 N.pl3 1201  ATP1201    -0.1439
     23  C8        13.0980  -25.0800  369.0170 C.3   1201  ATP1201     0.3377
     24  N7        14.3170  -24.6870  369.4550 N.2   1201  ATP1201    -0.2095
     25  C5        14.1270  -23.8890  370.5190 C.2   1201  ATP1201     0.2526
     26  C6        14.9850  -23.1340  371.4580 C.2   1201  ATP1201     0.4393
     27  N6        16.3310  -23.1520  371.3480 N.pl3 1201  ATP1201     0.2180
     28  N1        14.3730  -22.4250  372.4270 N.2   1201  ATP1201     0.0021
     29  C2        13.0370  -22.3950  372.5540 C.3   1201  ATP1201     0.5254
     30  N3        12.1990  -23.0540  371.7410 N.2   1201  ATP1201    -0.0055
     31  C4        12.6770  -23.8030  370.7240 C.2   1201  ATP1201     0.3518
@<TRIPOS>BOND
     1     2     1    2
     2     3     1    1
     3     1     4    1
     4     1     8    1
     5     8     5    1
     6     6     5    2
     7     5    12    1
     8     5     7    1
     9    12     9    1
    10    10     9    2
    11     9    11    1
    12     9    13    1
    13    13    14    1
    14    14    15    1
    15    18    17    1
    16    17    15    1
    17    17    19    1
    18    15    16    1
    19    19    20    1
    20    19    21    1
    21    16    21    1
    22    23    24    1
    23    23    22    1
    24    24    25    2
    25    21    22    1
    26    22    31    1
    27    25    31    1
    28    25    26    1
    29    31    30    2
    30    27    26    1
    31    26    28    2
    32    30    29    1
    33    28    29    1
