@<TRIPOS>MOLECULE
4ff2_5GP_C_1.pdb
 24 26 0 0 0
SMALL
GASTEIGER

@<TRIPOS>ATOM
      1  P         15.7640  -33.4530  366.2800 P.3   101  5GP101      0.5327
      2  O1P       15.4420  -34.0420  364.9290 O.2   101  5GP101     -0.2224
      3  O2P       16.3160  -34.3680  367.3430 O.3   101  5GP101     -0.1145
      4  O3P       16.6840  -32.2680  366.1060 O.3   101  5GP101     -0.1145
      5  O5'       14.4850  -32.6950  366.8460 O.3   101  5GP101     -0.2675
      6  C5'       14.5490  -31.3180  367.1960 C.3   101  5GP101      0.1859
      7  C4'       13.2150  -30.8050  367.6730 C.3   101  5GP101      0.1801
      8  O4'       13.2030  -30.7920  369.1240 O.3   101  5GP101     -0.3326
      9  C3'       12.8720  -29.3870  367.2420 C.3   101  5GP101      0.2158
     10  O3'       12.1030  -29.4310  366.0410 O.3   101  5GP101     -0.2175
     11  C2'       11.9950  -28.9040  368.3870 C.3   101  5GP101      0.2310
     12  O2'       10.6370  -29.2680  368.2760 O.3   101  5GP101     -0.2158
     13  C1'       12.6630  -29.5670  369.5910 C.3   101  5GP101      0.2293
     14  N9        13.7470  -28.7820  370.1820 N.pl3 101  5GP101     -0.2354
     15  C8        15.0470  -28.8510  369.8700 C.3   101  5GP101      0.2246
     16  N7        15.7310  -27.9720  370.6370 N.2   101  5GP101     -0.2322
     17  C5        14.8410  -27.3530  371.4340 C.2   101  5GP101      0.2182
     18  C6        14.9500  -26.3750  372.4100 C.1   101  5GP101      0.2372
     19  O6        16.0620  -25.8880  372.7000 O.2   101  5GP101     -0.2069
     20  N1        13.8500  -25.9570  373.0430 N.2   101  5GP101     -0.2485
     21  C2        12.6480  -26.4660  372.7480 C.1   101  5GP101      0.2531
     22  N2        11.5510  -26.0230  373.4020 N.pl3 101  5GP101     -0.0226
     23  N3        12.5120  -27.4170  371.8030 N.2   101  5GP101     -0.3074
     24  C4        13.5960  -27.8700  371.1400 C.2   101  5GP101      0.2300
@<TRIPOS>BOND
     1     2     1    2
     2    10     9    1
     3     4     1    1
     4     1     5    1
     5     1     3    1
     6     5     6    1
     7     6     7    1
     8     9     7    1
     9     9    11    1
    10     7     8    1
    11    12    11    1
    12    11    13    1
    13     8    13    1
    14    13    14    1
    15    15    14    1
    16    15    16    1
    17    14    24    1
    18    16    17    2
    19    24    17    1
    20    24    23    2
    21    17    18    1
    22    23    21    2
    23    18    19    2
    24    18    20    2
    25    21    20    2
    26    21    22    1
