@<TRIPOS>MOLECULE
4ff3_ATP_A_1.pdb
 31 33 0 0 0
SMALL
GASTEIGER

@<TRIPOS>ATOM
      1  PG        12.0240  -24.7550  361.3100 P.3   1201  ATP1201     0.5373
      2  O1G       11.4250  -26.0740  361.7090 O.3   1201  ATP1201    -0.1143
      3  O2G       13.5120  -24.8420  361.0530 O.3   1201  ATP1201    -0.1143
      4  O3G       11.2360  -24.0560  360.2280 O.2   1201  ATP1201    -0.2221
      5  PB        11.3310  -24.2480  364.0450 P.3   1201  ATP1201     0.2277
      6  O1B       11.2590  -23.0200  364.9380 O.3   1201  ATP1201    -0.4368
      7  O2B       10.0360  -24.9940  363.8350 O.2   1201  ATP1201    -0.5168
      8  O3B       11.8850  -23.7750  362.5960 O.3   1201  ATP1201    -0.2258
      9  PA        12.4580  -26.6370  365.3070 P.3   1201  ATP1201     0.2189
     10  O1A       13.8440  -27.1740  365.5510 O.3   1201  ATP1201    -0.4371
     11  O2A       11.4530  -27.5010  364.5900 O.2   1201  ATP1201    -0.5170
     12  O3A       12.5520  -25.1860  364.5810 O.3   1201  ATP1201    -0.2700
     13  O5'       11.8260  -26.2480  366.7390 O.3   1201  ATP1201    -0.3112
     14  C5'       10.4550  -26.5230  366.9930 C.3   1201  ATP1201     0.1813
     15  C4'        9.9240  -25.6300  368.1070 C.3   1201  ATP1201     0.1821
     16  O4'       10.5190  -26.0050  369.3500 O.3   1201  ATP1201    -0.3135
     17  C3'       10.2570  -24.1470  367.9470 C.3   1201  ATP1201     0.2184
     18  O3'        9.3490  -23.4430  367.0910 O.3   1201  ATP1201    -0.2174
     19  C2'       10.2120  -23.6610  369.3820 C.3   1201  ATP1201     0.2570
     20  O2'        8.8670  -23.3940  369.7920 O.3   1201  ATP1201    -0.2130
     21  C1'       10.7420  -24.8480  370.1640 C.3   1201  ATP1201     0.3186
     22  N9        12.1980  -24.6000  370.3120 N.pl3 1201  ATP1201    -0.1439
     23  C8        13.1720  -25.0520  369.4970 C.3   1201  ATP1201     0.3377
     24  N7        14.3950  -24.6200  369.9100 N.2   1201  ATP1201    -0.2095
     25  C5        14.2060  -23.8620  371.0120 C.2   1201  ATP1201     0.2526
     26  C6        15.0670  -23.1020  371.9490 C.2   1201  ATP1201     0.4393
     27  N6        16.4070  -23.0700  371.7860 N.pl3 1201  ATP1201     0.2180
     28  N1        14.4720  -22.4480  372.9700 N.2   1201  ATP1201     0.0021
     29  C2        13.1350  -22.4750  373.1470 C.3   1201  ATP1201     0.5254
     30  N3        12.2910  -23.1470  372.3320 N.2   1201  ATP1201    -0.0055
     31  C4        12.7610  -23.8480  371.2690 C.2   1201  ATP1201     0.3518
@<TRIPOS>BOND
     1     4     1    2
     2     3     1    1
     3     1     2    1
     4     1     8    1
     5     8     5    1
     6     7     5    2
     7     5    12    1
     8     5     6    1
     9    12     9    1
    10    11     9    2
    11     9    10    1
    12     9    13    1
    13    13    14    1
    14    14    15    1
    15    18    17    1
    16    17    15    1
    17    17    19    1
    18    15    16    1
    19    16    21    1
    20    19    20    1
    21    19    21    1
    22    23    24    1
    23    23    22    1
    24    24    25    2
    25    21    22    1
    26    22    31    1
    27    25    31    1
    28    25    26    1
    29    31    30    2
    30    27    26    1
    31    26    28    2
    32    30    29    1
    33    28    29    1
