@<TRIPOS>MOLECULE
4ff3_5GP_C_1.pdb
 24 26 0 0 0
SMALL
GASTEIGER

@<TRIPOS>ATOM
      1  P         15.6440  -33.4460  366.5610 P.3   101  5GP101      0.5327
      2  O1P       15.1430  -33.7750  365.1740 O.2   101  5GP101     -0.2224
      3  O2P       16.2170  -34.5660  367.3960 O.3   101  5GP101     -0.1145
      4  O3P       16.6500  -32.3140  366.4800 O.3   101  5GP101     -0.1145
      5  O5'       14.4820  -32.7380  367.3770 O.3   101  5GP101     -0.2675
      6  C5'       14.6450  -31.4330  367.8920 C.3   101  5GP101      0.1859
      7  C4'       13.3330  -30.8680  368.3620 C.3   101  5GP101      0.1801
      8  O4'       13.3210  -30.7930  369.8130 O.3   101  5GP101     -0.3326
      9  C3'       13.0240  -29.4520  367.8920 C.3   101  5GP101      0.2158
     10  O3'       12.4080  -29.4220  366.6220 O.3   101  5GP101     -0.2175
     11  C2'       12.1480  -28.9000  369.0020 C.3   101  5GP101      0.2310
     12  O2'       10.8090  -29.3500  368.8530 O.3   101  5GP101     -0.2158
     13  C1'       12.7550  -29.5700  370.2320 C.3   101  5GP101      0.2293
     14  N9        13.8210  -28.7450  370.8380 N.pl3 101  5GP101     -0.2354
     15  C8        15.1280  -28.7600  370.5070 C.3   101  5GP101      0.2246
     16  N7        15.8020  -27.8790  371.2840 N.2   101  5GP101     -0.2322
     17  C5        14.9130  -27.3150  372.1200 C.2   101  5GP101      0.2182
     18  C6        15.0330  -26.3590  373.1180 C.1   101  5GP101      0.2372
     19  O6        16.1550  -25.8630  373.3650 O.2   101  5GP101     -0.2069
     20  N1        13.9460  -25.9830  373.8040 N.2   101  5GP101     -0.2485
     21  C2        12.7460  -26.5140  373.5340 C.1   101  5GP101      0.2531
     22  N2        11.6590  -26.1190  374.2410 N.pl3 101  5GP101     -0.0226
     23  N3        12.5990  -27.4460  372.5620 N.2   101  5GP101     -0.3074
     24  C4        13.6690  -27.8700  371.8440 C.2   101  5GP101      0.2300
@<TRIPOS>BOND
     1     2     1    2
     2     4     1    1
     3     1     5    1
     4     1     3    1
     5    10     9    1
     6     5     6    1
     7     6     7    1
     8     9     7    1
     9     9    11    1
    10     7     8    1
    11    12    11    1
    12    11    13    1
    13     8    13    1
    14    13    14    1
    15    15    14    1
    16    15    16    1
    17    14    24    1
    18    16    17    2
    19    24    17    1
    20    24    23    2
    21    17    18    1
    22    23    21    2
    23    18    19    2
    24    18    20    2
    25    21    20    2
    26    21    22    1
