@<TRIPOS>MOLECULE
4ff4_AMP_A_1.pdb
 22 24 0 0 0
SMALL
GASTEIGER

@<TRIPOS>ATOM
      1  P         12.6580  -27.4150  366.8340 P.3   1201  AMP1201     0.3942
      2  O1P       11.9840  -27.5170  365.5200 O.3   1201  AMP1201    -0.1425
      3  O2P       14.1240  -27.1570  366.8640 O.3   1201  AMP1201    -0.1425
      4  O5'       11.8960  -26.3580  367.7580 O.3   1201  AMP1201    -0.2926
      5  C5'       10.5100  -26.5080  368.0420 C.3   1201  AMP1201     0.1831
      6  C4'       10.0550  -25.5800  369.1440 C.3   1201  AMP1201     0.1822
      7  O4'       10.7170  -25.9270  370.3900 O.3   1201  AMP1201    -0.3135
      8  C3'       10.3900  -24.1040  368.9670 C.3   1201  AMP1201     0.2184
      9  O3'        9.5410  -23.4340  368.0500 O.3   1201  AMP1201    -0.2174
     10  C2'       10.3060  -23.5880  370.3990 C.3   1201  AMP1201     0.2570
     11  O2'        8.9560  -23.4750  370.8330 O.3   1201  AMP1201    -0.2130
     12  C1'       10.9510  -24.7510  371.1480 C.3   1201  AMP1201     0.3186
     13  N9        12.4000  -24.5580  371.2710 N.pl3 1201  AMP1201    -0.1439
     14  C8        13.3860  -25.0100  370.4290 C.3   1201  AMP1201     0.3377
     15  N7        14.5860  -24.6370  370.8000 N.2   1201  AMP1201    -0.2095
     16  C5        14.3600  -23.8900  371.9570 C.2   1201  AMP1201     0.2526
     17  C6        15.2300  -23.2270  372.8350 C.2   1201  AMP1201     0.4393
     18  N6        16.5530  -23.2090  372.6800 N.pl3 1201  AMP1201     0.2180
     19  N1        14.6830  -22.5810  373.8770 N.2   1201  AMP1201     0.0021
     20  C2        13.3500  -22.6010  374.0260 C.3   1201  AMP1201     0.5254
     21  N3        12.4250  -23.1930  373.2750 N.2   1201  AMP1201    -0.0055
     22  C4        13.0130  -23.8260  372.2510 C.2   1201  AMP1201     0.3518
@<TRIPOS>BOND
     1     2     1    1
     2     1     3    1
     3     1     4    1
     4     4     5    1
     5     5     6    1
     6     9     8    1
     7     8     6    1
     8     8    10    1
     9     6     7    1
    10     7    12    1
    11    10    11    1
    12    10    12    1
    13    14    15    1
    14    14    13    1
    15    15    16    2
    16    12    13    1
    17    13    22    1
    18    16    22    1
    19    16    17    1
    20    22    21    2
    21    18    17    1
    22    17    19    2
    23    21    20    1
    24    19    20    1
