@<TRIPOS>MOLECULE
4ff4_5GP_C_1.pdb
 24 26 0 0 0
SMALL
GASTEIGER

@<TRIPOS>ATOM
      1  P         15.7100  -33.3690  367.8250 P.3   101  5GP101      0.5327
      2  O1P       15.0770  -33.5800  366.4590 O.2   101  5GP101     -0.2224
      3  O2P       16.1160  -34.5950  368.6210 O.3   101  5GP101     -0.1145
      4  O3P       16.8970  -32.4200  367.7000 O.3   101  5GP101     -0.1145
      5  O5'       14.7600  -32.4510  368.7220 O.3   101  5GP101     -0.2675
      6  C5'       14.5390  -31.0900  368.3900 C.3   101  5GP101      0.1859
      7  C4'       13.3120  -30.5470  369.0740 C.3   101  5GP101      0.1801
      8  O4'       13.4650  -30.6500  370.5210 O.3   101  5GP101     -0.3326
      9  C3'       13.0270  -29.0700  368.8440 C.3   101  5GP101      0.2158
     10  O3'       12.3990  -28.8120  367.6020 O.3   101  5GP101     -0.2175
     11  C2'       12.1760  -28.7170  370.0530 C.3   101  5GP101      0.2310
     12  O2'       10.8680  -29.2410  369.9100 O.3   101  5GP101     -0.2158
     13  C1'       12.8910  -29.5150  371.1440 C.3   101  5GP101      0.2293
     14  N9        13.9690  -28.7300  371.7830 N.pl3 101  5GP101     -0.2354
     15  C8        15.2720  -28.7740  371.4630 C.3   101  5GP101      0.2246
     16  N7        15.9660  -27.9220  372.2620 N.2   101  5GP101     -0.2322
     17  C5        15.0840  -27.3410  373.0940 C.2   101  5GP101      0.2182
     18  C6        15.2160  -26.4010  374.1160 C.1   101  5GP101      0.2372
     19  O6        16.3430  -25.9250  374.4170 O.2   101  5GP101     -0.2069
     20  N1        14.1190  -26.0090  374.7870 N.2   101  5GP101     -0.2485
     21  C2        12.9040  -26.5020  374.4810 C.1   101  5GP101      0.2531
     22  N2        11.8210  -26.0690  375.1870 N.pl3 101  5GP101     -0.0226
     23  N3        12.7460  -27.4200  373.4850 N.2   101  5GP101     -0.3074
     24  C4        13.8250  -27.8580  372.7890 C.2   101  5GP101      0.2300
@<TRIPOS>BOND
     1     2     1    2
     2    10     9    1
     3     4     1    1
     4     1     3    1
     5     1     5    1
     6     6     5    1
     7     6     7    1
     8     9     7    1
     9     9    11    1
    10     7     8    1
    11    12    11    1
    12    11    13    1
    13     8    13    1
    14    13    14    1
    15    15    14    1
    16    15    16    1
    17    14    24    1
    18    16    17    2
    19    24    17    1
    20    24    23    2
    21    17    18    1
    22    23    21    2
    23    18    19    2
    24    18    20    2
    25    21    20    2
    26    21    22    1
