@<TRIPOS>MOLECULE
4ff6_0T4_A_1.pdb
 23 24 0 0 0
SMALL
GASTEIGER

@<TRIPOS>ATOM
      1  O15       12.3390  -20.1840   36.0650 O.2   502  0T4502     -0.2684
      2  C14       12.9990  -20.0360   37.0780 C.2   502  0T4502      0.2651
      3  C4        14.2720  -19.2550   36.9940 C.ar  502  0T4502      0.0566
      4  C5        14.7880  -18.9110   35.7460 C.ar  502  0T4502      0.0085
      5  C6        15.9890  -18.1830   35.7030 C.ar  502  0T4502      0.0731
      6  C7        16.5620  -17.7820   34.3510 C.3   502  0T4502      0.4186
      7  F29       16.9690  -18.8510   33.6850 F     502  0T4502     -0.1659
      8  F27       17.5810  -16.9250   34.4720 F     502  0T4502     -0.1659
      9  F28       15.5790  -17.2320   33.6600 F     502  0T4502     -0.1659
     10  C1        16.6410  -17.8210   36.9050 C.ar  502  0T4502      0.0253
     11  C3        14.9280  -18.9010   38.1730 C.ar  502  0T4502      0.0260
     12  C2        16.1100  -18.1780   38.1580 C.ar  502  0T4502      0.1108
     13  N8        16.7030  -17.8580   39.3560 N.4   502  0T4502     -0.0964
     14  O10       18.0250  -17.4950   39.2340 O.3   502  0T4502     -0.0605
     15  N13       12.6490  -20.5570   38.2610 N.am  502  0T4502     -0.1989
     16  C12       11.4250  -21.3010   38.4930 C.3   502  0T4502      0.1178
     17  C13       10.9590  -21.1440   39.9370 C.3   502  0T4502      0.0283
     18  C20       11.6800  -22.7330   38.2470 C.ar  502  0T4502     -0.0026
     19  C21       12.2430  -23.5050   39.2640 C.ar  502  0T4502     -0.0026
     20  C22       12.4820  -24.8530   39.0440 C.ar  502  0T4502     -0.0003
     21  C23       12.1480  -25.4050   37.8090 C.ar  502  0T4502     -0.0000
     22  C24       11.5970  -24.6350   36.7850 C.ar  502  0T4502     -0.0003
     23  C25       11.3580  -23.2850   37.0060 C.ar  502  0T4502     -0.0026
@<TRIPOS>BOND
     1     9     6    1
     2     7     6    1
     3     6     8    1
     4     6     5    1
     5     5     4   ar
     6     5    10   ar
     7     4     3   ar
     8     1     2    2
     9    22    23   ar
    10    22    21   ar
    11    10    12   ar
    12     3     2    1
    13     3    11   ar
    14    23    18   ar
    15     2    15   am
    16    21    20   ar
    17    12    11   ar
    18    12    13    1
    19    18    16    1
    20    18    19   ar
    21    15    16    1
    22    16    17    1
    23    20    19   ar
    24    14    13    1
