@<TRIPOS>MOLECULE
4ffb_GTP_A_1.pdb
 32 34 0 0 0
SMALL
GASTEIGER

@<TRIPOS>ATOM
      1  PG        16.9380    0.3430   37.7910 P.3   502  GTP502      0.5373
      2  O1G       15.9790   -0.7920   37.5370 O.3   502  GTP502     -0.1143
      3  O2G       16.4920    1.0980   39.0210 O.3   502  GTP502     -0.1143
      4  O3G       16.9230    1.2390   36.5750 O.2   502  GTP502     -0.2221
      5  O3B       18.4140   -0.2770   38.0040 O.3   502  GTP502     -0.2258
      6  PB        19.5190    0.4830   38.8970 P.3   502  GTP502      0.2277
      7  O1B       20.2760    1.4540   38.0350 O.2   502  GTP502     -0.5168
      8  O2B       18.8580    1.1780   40.0650 O.3   502  GTP502     -0.4368
      9  O3A       20.5480   -0.6290   39.4490 O.3   502  GTP502     -0.2700
     10  PA        20.0860   -1.7880   40.4660 P.3   502  GTP502      0.2189
     11  O1A       20.9590   -1.7140   41.6930 O.3   502  GTP502     -0.4371
     12  O2A       18.6300   -1.6370   40.8440 O.2   502  GTP502     -0.5170
     13  O5'       20.3590   -3.1680   39.6760 O.3   502  GTP502     -0.3112
     14  C5'       20.1140   -4.4240   40.2770 C.3   502  GTP502      0.1813
     15  C4'       21.3980   -5.1030   40.7410 C.3   502  GTP502      0.1799
     16  O4'       22.1630   -4.2010   41.5110 O.3   502  GTP502     -0.3326
     17  C3'       21.1050   -6.3030   41.6280 C.3   502  GTP502      0.2158
     18  O3'       21.5320   -7.4870   40.9950 O.3   502  GTP502     -0.2175
     19  C2'       21.9250   -6.1000   42.8820 C.3   502  GTP502      0.2310
     20  O2'       22.7590   -7.2130   43.0930 O.3   502  GTP502     -0.2158
     21  C1'       22.7580   -4.8590   42.6110 C.3   502  GTP502      0.2293
     22  N9        22.7670   -3.9780   43.7910 N.pl3 502  GTP502     -0.2354
     23  C8        21.7530   -3.1670   44.2260 C.3   502  GTP502      0.2246
     24  N7        22.1700   -2.5180   45.3370 N.2   502  GTP502     -0.2322
     25  C5        23.4380   -2.8980   45.6120 C.2   502  GTP502      0.2182
     26  C6        24.3270   -2.5480   46.6200 C.1   502  GTP502      0.2372
     27  O6        24.0010   -1.7370   47.4840 O.2   502  GTP502     -0.2069
     28  N1        25.5840   -3.1160   46.6460 N.2   502  GTP502     -0.2485
     29  C2        25.9480   -4.0250   45.6740 C.1   502  GTP502      0.2531
     30  N2        27.1580   -4.5740   45.6960 N.pl3 502  GTP502     -0.0226
     31  N3        25.0600   -4.3690   44.6780 N.2   502  GTP502     -0.3074
     32  C4        23.8240   -3.8170   44.6480 C.2   502  GTP502      0.2300
@<TRIPOS>BOND
     1     4     1    2
     2     2     1    1
     3     1     5    1
     4     1     3    1
     5     5     6    1
     6     7     6    2
     7     6     9    1
     8     6     8    1
     9     9    10    1
    10    13    14    1
    11    13    10    1
    12    14    15    1
    13    10    12    2
    14    10    11    1
    15    15    16    1
    16    15    17    1
    17    18    17    1
    18    16    21    1
    19    17    19    1
    20    21    19    1
    21    21    22    1
    22    19    20    1
    23    22    23    1
    24    22    32    1
    25    23    24    1
    26    32    31    2
    27    32    25    1
    28    31    29    2
    29    24    25    2
    30    25    26    1
    31    29    30    1
    32    29    28    2
    33    26    28    2
    34    26    27    2
