@<TRIPOS>MOLECULE
4ffg_0U8_A_1.pdb
 22 24 0 0 0
SMALL
GASTEIGER

@<TRIPOS>ATOM
      1  O1'       -0.1320   -9.2250   53.8260 O.3   602  0U8602     -0.2149
      2  C1'       -0.0630  -10.6480   53.9050 C.3   602  0U8602      0.2406
      3  C2'        1.3630  -11.3720   53.9200 C.3   602  0U8602      0.2499
      4  O6         2.0660  -10.4510   54.8740 O.3   602  0U8602     -0.3275
      5  C6         1.8830  -10.7820   56.2390 C.3   602  0U8602      0.1770
      6  C5         2.9680  -11.6780   56.7870 C.3   602  0U8602      0.1802
      7  O5         2.7370  -13.1240   56.5620 O.3   602  0U8602     -0.3274
      8  C2         3.9730  -13.6930   56.1940 C.3   602  0U8602      0.2499
      9  C1         4.0970  -15.0640   56.9230 C.3   602  0U8602      0.2406
     10  O1         3.1770  -16.0550   56.5490 O.3   602  0U8602     -0.2149
     11  O2         4.1380  -13.7850   54.8120 O.3   602  0U8602     -0.3275
     12  C6'        3.0420  -14.4280   54.1380 C.3   602  0U8602      0.1770
     13  C5'        2.1290  -13.4490   53.4740 C.3   602  0U8602      0.1802
     14  O5'        1.4010  -12.7720   54.4450 O.3   602  0U8602     -0.3274
     15  C4'        2.7210  -12.3250   52.5380 C.3   602  0U8602      0.2166
     16  O4'        3.1990  -12.7160   51.3140 O.3   602  0U8602     -0.2175
     17  C3'        1.6010  -11.3690   52.4580 C.3   602  0U8602      0.2381
     18  O3'        1.9720  -10.0980   52.0120 O.3   602  0U8602     -0.2150
     19  C3         4.9730  -12.7510   56.7200 C.3   602  0U8602      0.2381
     20  O3         6.1810  -12.9420   56.1190 O.3   602  0U8602     -0.2150
     21  C4         4.3890  -11.4440   56.4160 C.3   602  0U8602      0.2166
     22  O4         4.9900  -10.4530   57.2550 O.3   602  0U8602     -0.2175
@<TRIPOS>BOND
     1    16    15    1
     2    18    17    1
     3    17    15    1
     4    17     3    1
     5    15    13    1
     6    13    12    1
     7    13    14    1
     8     1     2    1
     9     2     3    1
    10     3    14    1
    11     3     4    1
    12    12    11    1
    13    11     8    1
    14     4     5    1
    15    20    19    1
    16     8     7    1
    17     8    19    1
    18     8     9    1
    19     5     6    1
    20    21    19    1
    21    21     6    1
    22    21    22    1
    23    10     9    1
    24     7     6    1
