@<TRIPOS>MOLECULE
4ffg_LBS_A_1.pdb
 23 24 0 0 0
SMALL
GASTEIGER

@<TRIPOS>ATOM
      1  O6        -8.3230   18.7310   26.9770 O.3   601  LBS601     -0.2176
      2  C6        -9.3270   17.8200   27.2910 C.3   601  LBS601      0.2142
      3  C5       -10.6220   18.3490   27.8290 C.3   601  LBS601      0.1835
      4  O5       -11.1100   19.4070   27.0410 O.3   601  LBS601     -0.3273
      5  C2       -12.4860   19.1600   26.7730 C.3   601  LBS601      0.2499
      6  C1       -13.2300   20.4390   27.0090 C.3   601  LBS601      0.2406
      7  O1       -14.5270   20.3440   27.4260 O.3   601  LBS601     -0.2149
      8  O2       -12.6490   18.7330   25.4510 O.3   601  LBS601     -0.3275
      9  C6'      -11.5590   18.8700   24.5730 C.3   601  LBS601      0.1770
     10  C5'      -11.5240   18.0780   23.2870 C.3   601  LBS601      0.1803
     11  O5'      -12.7920   17.7560   22.7570 O.3   601  LBS601     -0.3254
     12  C2'      -12.5930   17.4930   21.3630 C.3   601  LBS601      0.2807
     13  O2'      -13.3060   18.3860   20.5950 O.3   601  LBS601     -0.1896
     14  C1'      -13.0380   16.0980   21.0090 C.3   601  LBS601      0.2434
     15  O1'      -12.2050   15.0450   21.3110 O.3   601  LBS601     -0.2148
     16  C3'      -11.1270   17.7420   21.1420 C.3   601  LBS601      0.2409
     17  O3'      -10.8310   18.2020   19.8770 O.3   601  LBS601     -0.2149
     18  C4'      -10.8130   18.7150   22.1580 C.3   601  LBS601      0.2167
     19  O4'       -9.4510   18.6870   22.3960 O.3   601  LBS601     -0.2175
     20  C3       -12.9300   18.1120   27.7480 C.3   601  LBS601      0.2381
     21  O3       -13.9470   17.3330   27.2390 O.3   601  LBS601     -0.2150
     22  C4       -11.7200   17.3540   27.9750 C.3   601  LBS601      0.2167
     23  O4       -11.7180   16.9250   29.2910 O.3   601  LBS601     -0.2175
@<TRIPOS>BOND
     1    17    16    1
     2    13    12    1
     3    14    15    1
     4    14    12    1
     5    16    12    1
     6    16    18    1
     7    12    11    1
     8    18    19    1
     9    18    10    1
    10    11    10    1
    11    10     9    1
    12     9     8    1
    13     8     5    1
    14     5     6    1
    15     5     4    1
    16     5    20    1
    17     1     2    1
    18     6     7    1
    19     4     3    1
    20    21    20    1
    21     2     3    1
    22    20    22    1
    23     3    22    1
    24    22    23    1
