@<TRIPOS>MOLECULE
4ffh_SUC_D_1.pdb
 23 24 0 0 0
SMALL
GASTEIGER

@<TRIPOS>ATOM
      1  C1         6.9330  -64.9010   25.2440 C.3   606  SUC606      0.2713
      2  C2         7.3290  -66.2610   24.6740 C.3   606  SUC606      0.2406
      3  C3         8.7160  -66.5290   25.0490 C.3   606  SUC606      0.2198
      4  C4         9.5650  -65.5570   24.4690 C.3   606  SUC606      0.2144
      5  C5         9.1190  -64.1520   24.8080 C.3   606  SUC606      0.1835
      6  C6         9.9600  -63.1320   24.0860 C.3   606  SUC606      0.2142
      7  O1         7.2320  -64.7630   26.6300 O.3   606  SUC606     -0.3033
      8  O2         6.5440  -67.2480   25.1680 O.3   606  SUC606     -0.2149
      9  O3         9.0940  -67.8350   24.5810 O.3   606  SUC606     -0.2174
     10  O4        10.8870  -65.7480   24.9590 O.3   606  SUC606     -0.2176
     11  O5         7.6630  -63.9320   24.5840 O.3   606  SUC606     -0.3256
     12  O6        10.8810  -62.4770   24.8430 O.3   606  SUC606     -0.2176
     13  C1'        4.9610  -64.9170   27.4240 C.3   606  SUC606      0.2406
     14  C2'        6.2230  -64.1180   27.4020 C.3   606  SUC606      0.2516
     15  C3'        6.7700  -63.9140   28.7790 C.3   606  SUC606      0.2381
     16  C4'        7.6750  -62.8310   28.5430 C.3   606  SUC606      0.2167
     17  C5'        6.8480  -61.9430   27.6710 C.3   606  SUC606      0.1835
     18  C6'        7.6370  -61.0130   26.7840 C.3   606  SUC606      0.2142
     19  O1'        5.0910  -66.2850   27.4880 O.3   606  SUC606     -0.2149
     20  O2'        6.0340  -62.7700   26.9200 O.3   606  SUC606     -0.3272
     21  O3'        7.5980  -64.9550   29.1690 O.3   606  SUC606     -0.2150
     22  O4'        8.0280  -62.1720   29.6930 O.3   606  SUC606     -0.2175
     23  O6'        6.9380  -59.9240   26.3390 O.3   606  SUC606     -0.2176
@<TRIPOS>BOND
     1     6     5    1
     2     6    12    1
     3     4     5    1
     4     4    10    1
     5     4     3    1
     6     9     3    1
     7    11     5    1
     8    11     1    1
     9     2     3    1
    10     2     8    1
    11     2     1    1
    12     1     7    1
    13    23    18    1
    14     7    14    1
    15    18    17    1
    16    20    14    1
    17    20    17    1
    18    14    13    1
    19    14    15    1
    20    13    19    1
    21    17    16    1
    22    16    15    1
    23    16    22    1
    24    15    21    1
