@<TRIPOS>MOLECULE
4ffi_LBS_A_1.pdb
 23 24 0 0 0
SMALL
GASTEIGER

@<TRIPOS>ATOM
      1  O6       -49.7050  -20.4920  -20.2630 O.3   601  LBS601     -0.2176
      2  C6       -50.6110  -19.4520  -20.3440 C.3   601  LBS601      0.2142
      3  C5       -52.0010  -19.7590  -20.8090 C.3   601  LBS601      0.1835
      4  O5       -52.7060  -20.6060  -19.9270 O.3   601  LBS601     -0.3273
      5  C2       -53.9850  -20.0110  -19.6910 C.3   601  LBS601      0.2499
      6  C1       -55.1110  -21.0130  -19.6380 C.3   601  LBS601      0.2406
      7  O1       -55.1740  -21.9750  -20.6190 O.3   601  LBS601     -0.2149
      8  O2       -53.9320  -19.3590  -18.4570 O.3   601  LBS601     -0.3275
      9  C6'      -52.7400  -19.4240  -17.7240 C.3   601  LBS601      0.1770
     10  C5'      -52.6340  -18.5360  -16.5130 C.3   601  LBS601      0.1803
     11  O5'      -53.8790  -18.2260  -15.9300 O.3   601  LBS601     -0.3254
     12  C2'      -53.6110  -17.8810  -14.5740 C.3   601  LBS601      0.2807
     13  O2'      -54.1870  -18.8150  -13.7500 O.3   601  LBS601     -0.1896
     14  C1'      -54.1460  -16.5190  -14.2630 C.3   601  LBS601      0.2434
     15  O1'      -53.7700  -15.5090  -15.1140 O.3   601  LBS601     -0.2148
     16  C3'      -52.1200  -17.9580  -14.4500 C.3   601  LBS601      0.2409
     17  O3'      -51.6900  -18.2270  -13.1720 O.3   601  LBS601     -0.2149
     18  C4'      -51.8010  -19.0150  -15.3820 C.3   601  LBS601      0.2167
     19  O4'      -50.4570  -18.9330  -15.7280 O.3   601  LBS601     -0.2175
     20  C3       -54.1680  -19.0830  -20.8530 C.3   601  LBS601      0.2381
     21  O3       -55.1250  -18.1180  -20.6410 O.3   601  LBS601     -0.2150
     22  C4       -52.8430  -18.5520  -20.9940 C.3   601  LBS601      0.2167
     23  O4       -52.6650  -18.1110  -22.2960 O.3   601  LBS601     -0.2175
@<TRIPOS>BOND
     1    23    22    1
     2    22    20    1
     3    22     3    1
     4    20    21    1
     5    20     5    1
     6     3     2    1
     7     3     4    1
     8     7     6    1
     9     2     1    1
    10     4     5    1
    11     5     6    1
    12     5     8    1
    13     8     9    1
    14     9    10    1
    15    10    11    1
    16    10    18    1
    17    11    12    1
    18    19    18    1
    19    18    16    1
    20    15    14    1
    21    12    16    1
    22    12    14    1
    23    12    13    1
    24    16    17    1
