@<TRIPOS>MOLECULE
4ffi_0UB_B_1.pdb
 34 36 0 0 0
SMALL
GASTEIGER

@<TRIPOS>ATOM
      1  O6A      -48.1430   23.9600   59.4700 O.3   602  0UB602     -0.2176
      2  C6A      -47.6260   23.0770   58.5250 C.3   602  0UB602      0.2142
      3  C5A      -47.9780   23.2200   57.0720 C.3   602  0UB602      0.1835
      4  O5A      -46.9180   22.7980   56.2460 O.3   602  0UB602     -0.3273
      5  C2A      -47.3830   21.7250   55.4200 C.3   602  0UB602      0.2499
      6  C1A      -46.8240   21.8990   54.0260 C.3   602  0UB602      0.2406
      7  O1A      -47.1030   23.0810   53.3460 O.3   602  0UB602     -0.2149
      8  O2A      -46.9200   20.4970   55.9410 O.3   602  0UB602     -0.3275
      9  C6       -45.8550   20.5310   56.8990 C.3   602  0UB602      0.1770
     10  C5       -45.8470   19.4480   57.9670 C.3   602  0UB602      0.1802
     11  O5       -46.4840   18.2520   57.5230 O.3   602  0UB602     -0.3274
     12  C2       -45.7500   17.1570   58.1440 C.3   602  0UB602      0.2499
     13  C1       -46.8000   16.2900   58.7440 C.3   602  0UB602      0.2406
     14  O1       -46.3580   15.2830   59.5590 O.3   602  0UB602     -0.2149
     15  O2       -44.9270   16.4100   57.2710 O.3   602  0UB602     -0.3275
     16  C6'      -45.3110   16.1340   55.9300 C.3   602  0UB602      0.1770
     17  C5'      -44.2430   15.5360   55.0410 C.3   602  0UB602      0.1803
     18  O5'      -43.2140   14.8910   55.7720 O.3   602  0UB602     -0.3254
     19  C2'      -43.1190   13.5880   55.3190 C.3   602  0UB602      0.2807
     20  O2'      -43.9720   12.7250   55.9780 O.3   602  0UB602     -0.1896
     21  C1'      -41.6470   13.1650   55.4280 C.3   602  0UB602      0.2434
     22  O1'      -41.4140   11.8170   55.1710 O.3   602  0UB602     -0.2148
     23  C3'      -43.5570   13.7280   53.9090 C.3   602  0UB602      0.2409
     24  O3'      -43.8560   12.5320   53.2620 O.3   602  0UB602     -0.2149
     25  C4'      -44.7030   14.5500   54.0220 C.3   602  0UB602      0.2167
     26  O4'      -44.8710   15.2440   52.8790 O.3   602  0UB602     -0.2175
     27  C3       -44.8730   17.8050   59.1620 C.3   602  0UB602      0.2381
     28  O3       -43.7930   16.9900   59.5430 O.3   602  0UB602     -0.2150
     29  C4       -44.5070   19.0390   58.4500 C.3   602  0UB602      0.2166
     30  O4       -44.0710   19.9320   59.3660 O.3   602  0UB602     -0.2175
     31  C3A      -48.8870   21.7970   55.4290 C.3   602  0UB602      0.2381
     32  O3A      -49.4040   20.5200   55.3890 O.3   602  0UB602     -0.2150
     33  C4A      -49.1990   22.4540   56.6720 C.3   602  0UB602      0.2167
     34  O4A      -50.2610   23.3970   56.5250 O.3   602  0UB602     -0.2175
@<TRIPOS>BOND
     1    26    25    1
     2    24    23    1
     3     7     6    1
     4    23    25    1
     5    23    19    1
     6    25    17    1
     7     6     5    1
     8    17    18    1
     9    17    16    1
    10    22    21    1
    11    19    21    1
    12    19    18    1
    13    19    20    1
    14    32    31    1
    15     5    31    1
    16     5     8    1
    17     5     4    1
    18    31    33    1
    19    16    15    1
    20     8     9    1
    21     4     3    1
    22    34    33    1
    23    33     3    1
    24     9    10    1
    25     3     2    1
    26    15    12    1
    27    11    10    1
    28    11    12    1
    29    10    29    1
    30    12    13    1
    31    12    27    1
    32    29    27    1
    33    29    30    1
    34     2     1    1
    35    13    14    1
    36    27    28    1
