@<TRIPOS>MOLECULE
4ffl_ADP_A_1.pdb
 27 29 0 0 0
SMALL
GASTEIGER

@<TRIPOS>ATOM
      1  PB        14.5980   12.5500   32.8140 P.3   902  ADP902      0.5373
      2  O1B       13.2920   12.1390   33.3890 O.3   902  ADP902     -0.1143
      3  O2B       14.0070   13.8730   32.3630 O.3   902  ADP902     -0.1143
      4  O3B       15.2660   12.3370   31.5110 O.2   902  ADP902     -0.2221
      5  PA        16.8200   13.4070   34.5680 P.3   902  ADP902      0.2231
      6  O1A       16.7820   13.4390   36.0750 O.3   902  ADP902     -0.4370
      7  O2A       17.6640   12.3410   33.9580 O.2   902  ADP902     -0.5169
      8  O3A       15.3060   13.3490   34.0390 O.3   902  ADP902     -0.2261
      9  O5'       17.3680   14.8290   34.0670 O.3   902  ADP902     -0.3111
     10  C5'       17.4750   15.1070   32.6730 C.3   902  ADP902      0.1813
     11  C4'       18.8650   15.6320   32.3430 C.3   902  ADP902      0.1821
     12  O4'       19.1370   16.8020   33.1240 O.3   902  ADP902     -0.3135
     13  C3'       19.9760   14.6490   32.6850 C.3   902  ADP902      0.2184
     14  O3'       20.2680   13.7320   31.6270 O.3   902  ADP902     -0.2174
     15  C2'       21.1480   15.5560   32.9830 C.3   902  ADP902      0.2570
     16  O2'       21.7740   15.9630   31.7610 O.3   902  ADP902     -0.2130
     17  C1'       20.4890   16.7770   33.5880 C.3   902  ADP902      0.3186
     18  N9        20.4650   16.7540   35.0720 N.pl3 902  ADP902     -0.1439
     19  C8        19.5140   16.2060   35.8580 C.3   902  ADP902      0.3377
     20  N7        19.7930   16.3980   37.1700 N.2   902  ADP902     -0.2095
     21  C5        20.9480   17.0820   37.2330 C.2   902  ADP902      0.2526
     22  C6        21.8140   17.6150   38.3060 C.2   902  ADP902      0.4393
     23  N6        21.4910   17.4470   39.6080 N.pl3 902  ADP902      0.2180
     24  N1        22.9360   18.2800   37.9370 N.2   902  ADP902      0.0021
     25  C2        23.2750   18.4600   36.6450 C.3   902  ADP902      0.5254
     26  N3        22.5370   18.0030   35.6190 N.2   902  ADP902     -0.0055
     27  C4        21.3850   17.3230   35.8480 C.2   902  ADP902      0.3518
@<TRIPOS>BOND
     1     4     1    2
     2    14    13    1
     3    16    15    1
     4    11    10    1
     5    11    13    1
     6    11    12    1
     7     3     1    1
     8    10     9    1
     9    13    15    1
    10     1     2    1
    11     1     8    1
    12    15    17    1
    13    12    17    1
    14    17    18    1
    15     7     5    2
    16     8     5    1
    17     9     5    1
    18     5     6    1
    19    18    27    1
    20    18    19    1
    21    26    27    2
    22    26    25    1
    23    27    21    1
    24    19    20    1
    25    25    24    1
    26    20    21    2
    27    21    22    1
    28    24    22    2
    29    22    23    1
