@<TRIPOS>MOLECULE
4ffl_LYS_A_1.pdb
 10 9 0 0 0
SMALL
GASTEIGER

@<TRIPOS>ATOM
      1  N          7.1620    8.0800   26.6130 N.3   901  LYS901     -0.1208
      2  CA         7.6680    9.0180   25.5800 C.3   901  LYS901      0.1943
      3  C          7.7250    8.3550   24.2200 C.2   901  LYS901      0.3819
      4  O          7.9180    9.0060   23.2060 O.co2 901  LYS901     -0.2441
      5  CB         9.0520    9.5830   26.0170 C.3   901  LYS901      0.0307
      6  CG        10.1600    8.5000   26.1320 C.3   901  LYS901      0.0036
      7  CD        11.5320    9.1560   26.4460 C.3   901  LYS901      0.0206
      8  CE        12.5770    8.0970   26.8680 C.3   901  LYS901      0.1093
      9  NZ        13.9400    8.6670   26.7840 N.3   901  LYS901     -0.1314
     10  OXT        7.5710    7.0270   24.2060 O.co2 901  LYS901     -0.2441
@<TRIPOS>BOND
     1     4     3   ar
     2    10     3   ar
     3     3     2    1
     4     2     5    1
     5     2     1    1
     6     5     6    1
     7     6     7    1
     8     7     8    1
     9     9     8    1
