@<TRIPOS>MOLECULE
4ffl_ATP_A_1.pdb
 31 33 0 0 0
SMALL
GASTEIGER

@<TRIPOS>ATOM
      1  PG         1.4360   12.4380   23.5130 P.3   908  ATP908      0.5373
      2  O1G        1.8350   13.7440   24.1590 O.3   908  ATP908     -0.1143
      3  O2G        1.5790   12.4160   22.0070 O.2   908  ATP908     -0.2221
      4  O3G        0.1240   11.8770   24.0130 O.3   908  ATP908     -0.1143
      5  PB         3.8410   11.6780   24.8860 P.3   908  ATP908      0.2277
      6  O1B        4.9110   12.2600   23.9950 O.2   908  ATP908     -0.5168
      7  O2B        3.4830   12.4100   26.1510 O.3   908  ATP908     -0.4368
      8  O3B        2.5220   11.3540   24.0120 O.3   908  ATP908     -0.2258
      9  PA         3.4570    9.0760   26.0600 P.3   908  ATP908      0.2189
     10  O1A        2.4030    9.7090   26.9300 O.3   908  ATP908     -0.4371
     11  O2A        4.4610    8.1450   26.6880 O.2   908  ATP908     -0.5170
     12  O3A        4.3140   10.1800   25.2540 O.3   908  ATP908     -0.2700
     13  O5'        2.6900    8.2620   24.9100 O.3   908  ATP908     -0.3112
     14  C5'        3.4130    7.5120   23.9370 C.3   908  ATP908      0.1813
     15  C4'        2.4100    6.9200   22.9590 C.3   908  ATP908      0.1821
     16  O4'        1.5120    6.0460   23.6560 O.3   908  ATP908     -0.3135
     17  C3'        1.5750    8.0090   22.2940 C.3   908  ATP908      0.2184
     18  O3'        1.6400    7.8600   20.8730 O.3   908  ATP908     -0.2174
     19  C2'        0.1740    7.7780   22.8290 C.3   908  ATP908      0.2570
     20  O2'       -0.8530    8.1170   21.8900 O.3   908  ATP908     -0.2130
     21  C1'        0.1880    6.2990   23.2110 C.3   908  ATP908      0.3186
     22  N9        -0.7990    6.0500   24.2790 N.pl3 908  ATP908     -0.1439
     23  C8        -0.8350    6.6330   25.4960 C.3   908  ATP908      0.3377
     24  N7        -1.9000    6.1880   26.2120 N.2   908  ATP908     -0.2095
     25  C5        -2.5630    5.3070   25.4400 C.2   908  ATP908      0.2526
     26  C6        -3.7750    4.4720   25.5780 C.2   908  ATP908      0.4393
     27  N6        -4.5050    4.4980   26.7180 N.pl3 908  ATP908      0.2180
     28  N1        -4.1220    3.6840   24.5310 N.2   908  ATP908      0.0021
     29  C2        -3.4030    3.6560   23.3870 C.3   908  ATP908      0.5254
     30  N3        -2.2890    4.3910   23.1910 N.2   908  ATP908     -0.0055
     31  C4        -1.8350    5.2210   24.1650 C.2   908  ATP908      0.3518
@<TRIPOS>BOND
     1    18    17    1
     2    20    19    1
     3     3     1    2
     4    17    19    1
     5    17    15    1
     6    19    21    1
     7    15    16    1
     8    15    14    1
     9    30    29    1
    10    30    31    2
    11    21    16    1
    12    21    22    1
    13    29    28    1
    14     1     8    1
    15     1     4    1
    16     1     2    1
    17    14    13    1
    18     6     5    2
    19     8     5    1
    20    31    22    1
    21    31    25    1
    22    22    23    1
    23    28    26    2
    24     5    12    1
    25     5     7    1
    26    13     9    1
    27    12     9    1
    28    25    26    1
    29    25    24    2
    30    23    24    1
    31    26    27    1
    32     9    11    2
    33     9    10    1
