@<TRIPOS>MOLECULE
4ffm_0TF_A_1.pdb
 18 17 0 0 0
SMALL
GASTEIGER

@<TRIPOS>ATOM
      1  O18       15.0280    6.8470   27.3100 O.2   901  0TF901     -0.2718
      2  C11       15.0580    8.0600   27.1870 C.2   901  0TF901      0.2588
      3  C12       16.4080    8.7540   27.1780 C.3   901  0TF901      0.1693
      4  C14       17.2900    8.4080   28.4180 C.3   901  0TF901      0.0300
      5  C15       17.8530    6.9640   28.2330 C.3   901  0TF901      0.0225
      6  C16       19.0840    6.5340   29.0610 C.3   901  0TF901      0.1094
      7  N17       19.0290    5.0540   29.1210 N.3   901  0TF901     -0.1314
      8  N13       17.1000    8.2120   26.0010 N.3   901  0TF901     -0.1231
      9  N6        13.9450    8.7930   26.9500 N.am  901  0TF901     -0.2042
     10  C5        12.6390    8.1830   26.7010 C.3   901  0TF901      0.1152
     11  C4        11.6320    9.3200   26.3980 C.3   901  0TF901      0.0235
     12  C3        10.3040    8.7590   25.8370 C.3   901  0TF901      0.0039
     13  C2         9.1800    9.8340   25.8890 C.3   901  0TF901      0.0307
     14  C1         7.7800    9.2310   25.6020 C.3   901  0TF901      0.1943
     15  N7         7.3540    8.3090   26.6700 N.3   901  0TF901     -0.1208
     16  C8         7.7770    8.5310   24.2620 C.2   901  0TF901      0.3819
     17  O10        7.6980    7.2800   24.2210 O.co2 901  0TF901     -0.2441
     18  O9         7.8850    9.2290   23.2230 O.co2 901  0TF901     -0.2441
@<TRIPOS>BOND
     1    18    16   ar
     2    17    16   ar
     3    16    14    1
     4    14    13    1
     5    14    15    1
     6    12    13    1
     7    12    11    1
     8     8     3    1
     9    11    10    1
    10    10     9    1
    11     9     2   am
    12     3     2    1
    13     3     4    1
    14     2     1    2
    15     5     4    1
    16     5     6    1
    17     6     7    1
