@<TRIPOS>MOLECULE
4ffm_ATP_A_1.pdb
 31 33 0 0 0
SMALL
GASTEIGER

@<TRIPOS>ATOM
      1  PG         1.4180   12.8690   24.1860 P.3   905  ATP905      0.5373
      2  O1G        1.5390   13.8220   23.0150 O.2   905  ATP905     -0.2221
      3  O2G        1.4090   13.5710   25.5270 O.3   905  ATP905     -0.1143
      4  O3G        0.3080   11.8520   24.0080 O.3   905  ATP905     -0.1143
      5  PB         4.0580   12.0540   25.1220 P.3   905  ATP905      0.2277
      6  O1B        5.2200   12.6250   24.3380 O.2   905  ATP905     -0.5168
      7  O2B        3.7020   12.6210   26.4750 O.3   905  ATP905     -0.4368
      8  O3B        2.7710   11.9620   24.1360 O.3   905  ATP905     -0.2258
      9  PA         3.5940    9.3970   26.2030 P.3   905  ATP905      0.2189
     10  O1A        4.6160    8.4580   26.8100 O.2   905  ATP905     -0.5170
     11  O2A        2.4530    9.9270   27.0320 O.3   905  ATP905     -0.4371
     12  O3A        4.4280   10.5020   25.3690 O.3   905  ATP905     -0.2700
     13  O5'        2.9120    8.5180   25.0480 O.3   905  ATP905     -0.3112
     14  C5'        3.6840    7.8940   24.0220 C.3   905  ATP905      0.1813
     15  C4'        2.7390    7.2520   23.0230 C.3   905  ATP905      0.1821
     16  O4'        1.8760    6.3600   23.7410 O.3   905  ATP905     -0.3135
     17  C3'        1.8720    8.3140   22.3600 C.3   905  ATP905      0.2184
     18  O3'        1.9670    8.1540   20.9440 O.3   905  ATP905     -0.2174
     19  C2'        0.4750    8.0310   22.8920 C.3   905  ATP905      0.2570
     20  O2'       -0.5830    8.3630   21.9690 O.3   905  ATP905     -0.2130
     21  C1'        0.5270    6.5610   23.3400 C.3   905  ATP905      0.3186
     22  N9        -0.4840    6.3320   24.4130 N.pl3 905  ATP905     -0.1439
     23  C8        -0.5400    6.9520   25.6120 C.3   905  ATP905      0.3377
     24  N7        -1.6180    6.5400   26.3200 N.2   905  ATP905     -0.2095
     25  C5        -2.2850    5.6400   25.5650 C.2   905  ATP905      0.2526
     26  C6        -3.5080    4.8120   25.7120 C.2   905  ATP905      0.4393
     27  N6        -4.2830    4.8850   26.8300 N.pl3 905  ATP905      0.2180
     28  N1        -3.8240    4.0010   24.6700 N.2   905  ATP905      0.0021
     29  C2        -3.0980    3.9250   23.5350 C.3   905  ATP905      0.5254
     30  N3        -1.9780    4.6460   23.3410 N.2   905  ATP905     -0.0055
     31  C4        -1.5300    5.5020   24.3050 C.2   905  ATP905      0.3518
@<TRIPOS>BOND
     1    18    17    1
     2    20    19    1
     3    17    19    1
     4    17    15    1
     5    19    21    1
     6     2     1    2
     7    15    16    1
     8    15    14    1
     9    21    16    1
    10    21    22    1
    11    30    29    1
    12    30    31    2
    13    29    28    1
    14     4     1    1
    15    14    13    1
    16     8     1    1
    17     8     5    1
    18     1     3    1
    19    31    22    1
    20    31    25    1
    21     6     5    2
    22    22    23    1
    23    28    26    2
    24    13     9    1
    25     5    12    1
    26     5     7    1
    27    12     9    1
    28    25    26    1
    29    25    24    2
    30    23    24    1
    31    26    27    1
    32     9    10    2
    33     9    11    1
