@<TRIPOS>MOLECULE
4ffm_ADP_A_1.pdb
 27 29 0 0 0
SMALL
GASTEIGER

@<TRIPOS>ATOM
      1  PB        14.8770   12.7870   33.0180 P.3   902  ADP902      0.5373
      2  O1B       15.5780   12.2380   31.7830 O.2   902  ADP902     -0.2221
      3  O2B       14.0490   13.9550   32.5200 O.3   902  ADP902     -0.1143
      4  O3B       14.0770   12.1180   34.0520 O.3   902  ADP902     -0.1143
      5  PA        17.3610   13.6040   34.3260 P.3   902  ADP902      0.2231
      6  O1A       18.2230   12.6170   33.7000 O.2   902  ADP902     -0.5169
      7  O2A       17.4750   13.5070   35.8280 O.3   902  ADP902     -0.4370
      8  O3A       15.8320   13.8210   33.8410 O.3   902  ADP902     -0.2261
      9  O5'       18.0380   15.0420   33.9730 O.3   902  ADP902     -0.3111
     10  C5'       18.2650   15.4990   32.6270 C.3   902  ADP902      0.1813
     11  C4'       19.6940   15.9970   32.4440 C.3   902  ADP902      0.1821
     12  O4'       19.9730   17.0670   33.3520 O.3   902  ADP902     -0.3135
     13  C3'       20.7420   14.9230   32.7510 C.3   902  ADP902      0.2184
     14  O3'       21.0270   14.0370   31.6540 O.3   902  ADP902     -0.2174
     15  C2'       21.9320   15.7250   33.1830 C.3   902  ADP902      0.2570
     16  O2'       22.5690   16.1840   31.9910 O.3   902  ADP902     -0.2130
     17  C1'       21.2990   16.9150   33.8700 C.3   902  ADP902      0.3186
     18  N9        21.1840   16.7910   35.3400 N.pl3 902  ADP902     -0.1439
     19  C8        20.1360   16.2320   35.9960 C.3   902  ADP902      0.3377
     20  N7        20.3400   16.3430   37.3280 N.2   902  ADP902     -0.2095
     21  C5        21.5320   16.9510   37.5170 C.2   902  ADP902      0.2526
     22  C6        22.3330   17.3640   38.6820 C.2   902  ADP902      0.4393
     23  N6        21.9280   17.1460   39.9520 N.pl3 902  ADP902      0.2180
     24  N1        23.4980   17.9850   38.4280 N.2   902  ADP902      0.0021
     25  C2        23.9720   18.2310   37.2000 C.3   902  ADP902      0.5254
     26  N3        23.3010   17.8970   36.0720 N.2   902  ADP902     -0.0055
     27  C4        22.0980   17.2550   36.1940 C.2   902  ADP902      0.3518
@<TRIPOS>BOND
     1    14    13    1
     2     2     1    2
     3    16    15    1
     4    11    10    1
     5    11    13    1
     6    11    12    1
     7     3     1    1
     8    10     9    1
     9    13    15    1
    10     1     8    1
    11     1     4    1
    12    15    17    1
    13    12    17    1
    14     6     5    2
    15     8     5    1
    16    17    18    1
    17     9     5    1
    18     5     7    1
    19    18    19    1
    20    18    27    1
    21    19    20    1
    22    26    27    2
    23    26    25    1
    24    27    21    1
    25    25    24    1
    26    20    21    2
    27    21    22    1
    28    24    22    2
    29    22    23    1
