@<TRIPOS>MOLECULE
4ffn_ATP_A_1.pdb
 31 33 0 0 0
SMALL
GASTEIGER

@<TRIPOS>ATOM
      1  PG         1.1210   12.0740   23.4590 P.3   905  ATP905      0.5373
      2  O1G        1.4430   12.3050   21.9960 O.2   905  ATP905     -0.2221
      3  O2G        1.4340   13.2470   24.3690 O.3   905  ATP905     -0.1143
      4  O3G       -0.2550   11.4720   23.6690 O.3   905  ATP905     -0.1143
      5  PB         3.3400   11.3430   24.9970 P.3   905  ATP905      0.2277
      6  O1B        4.4020   12.1080   24.2450 O.2   905  ATP905     -0.5168
      7  O2B        2.7120   11.9660   26.2190 O.3   905  ATP905     -0.4368
      8  O3B        2.1730   10.9450   23.9560 O.3   905  ATP905     -0.2258
      9  PA         3.1100    8.8000   26.1930 P.3   905  ATP905      0.2189
     10  O1A        4.1570    7.9510   26.8670 O.2   905  ATP905     -0.5170
     11  O2A        2.0180    9.4500   27.0060 O.3   905  ATP905     -0.4371
     12  O3A        3.9490    9.9110   25.3900 O.3   905  ATP905     -0.2700
     13  O5'        2.4130    7.8930   25.0660 O.3   905  ATP905     -0.3112
     14  C5'        3.2100    7.2880   24.0570 C.3   905  ATP905      0.1813
     15  C4'        2.3060    6.6140   23.0390 C.3   905  ATP905      0.1821
     16  O4'        1.4320    5.6680   23.6730 O.3   905  ATP905     -0.3135
     17  C3'        1.4390    7.6450   22.3420 C.3   905  ATP905      0.2184
     18  O3'        1.4360    7.3520   20.9460 O.3   905  ATP905     -0.2174
     19  C2'        0.0740    7.4080   22.9430 C.3   905  ATP905      0.2570
     20  O2'       -0.9730    7.6790   22.0220 O.3   905  ATP905     -0.2130
     21  C1'        0.0950    5.9310   23.2710 C.3   905  ATP905      0.3186
     22  N9        -0.8880    5.7280   24.3440 N.pl3 905  ATP905     -0.1439
     23  C8        -0.8950    6.3700   25.5250 C.3   905  ATP905      0.3377
     24  N7        -1.9550    5.9640   26.2800 N.2   905  ATP905     -0.2095
     25  C5        -2.6440    5.0500   25.5660 C.2   905  ATP905      0.2526
     26  C6        -3.8680    4.2310   25.7600 C.2   905  ATP905      0.4393
     27  N6        -4.5800    4.3140   26.9080 N.pl3 905  ATP905      0.2180
     28  N1        -4.2410    3.3990   24.7560 N.2   905  ATP905      0.0021
     29  C2        -3.5390    3.3110   23.6030 C.3   905  ATP905      0.5254
     30  N3        -2.4200    4.0290   23.3560 N.2   905  ATP905     -0.0055
     31  C4        -1.9360    4.9000   24.2800 C.2   905  ATP905      0.3518
@<TRIPOS>BOND
     1    18    17    1
     2     2     1    2
     3    20    19    1
     4    17    19    1
     5    17    15    1
     6    19    21    1
     7    15    16    1
     8    15    14    1
     9    21    16    1
    10    21    22    1
    11    30    29    1
    12    30    31    2
    13     1     4    1
    14     1     8    1
    15     1     3    1
    16    29    28    1
    17     8     5    1
    18    14    13    1
    19     6     5    2
    20    31    22    1
    21    31    25    1
    22    22    23    1
    23    28    26    2
    24     5    12    1
    25     5     7    1
    26    13     9    1
    27    12     9    1
    28    23    24    1
    29    25    26    1
    30    25    24    2
    31    26    27    1
    32     9    10    2
    33     9    11    1
