@<TRIPOS>MOLECULE
4ffn_ANP_A_1.pdb
 31 33 0 0 0
SMALL
GASTEIGER

@<TRIPOS>ATOM
      1  PG        14.8430   10.3220   31.1620 P.3   902  ANP902      0.4884
      2  O1G       14.7530   10.6120   29.5800 O.2   902  ANP902     -0.2331
      3  O2G       13.6320    9.4690   31.3190 O.3   902  ANP902     -0.1240
      4  O3G       16.2900    9.7450   31.5490 O.3   902  ANP902     -0.1240
      5  PB        14.0800   12.4630   32.9650 P.3   902  ANP902      0.4669
      6  O1B       13.5120   13.7340   32.4330 O.2   902  ANP902     -0.2351
      7  O2B       12.8330   11.7430   33.6790 O.3   902  ANP902     -0.1253
      8  N3B       14.8470   11.9730   31.5450 N.3   902  ANP902     -0.0163
      9  PA        16.7060   13.1300   34.4280 P.3   902  ANP902      0.2220
     10  O1A       17.6330   12.0470   33.9410 O.2   902  ANP902     -0.5170
     11  O2A       16.5890   13.3660   35.9180 O.3   902  ANP902     -0.4370
     12  O3A       15.2070   12.6800   34.0850 O.3   902  ANP902     -0.2360
     13  O5'       17.1500   14.6090   33.9310 O.3   902  ANP902     -0.3111
     14  C5'       17.2470   14.9790   32.5720 C.3   902  ANP902      0.1813
     15  C4'       18.6680   15.4290   32.2610 C.3   902  ANP902      0.1821
     16  O4'       18.9850   16.6270   32.9680 O.3   902  ANP902     -0.3135
     17  C3'       19.7150   14.4090   32.6770 C.3   902  ANP902      0.2184
     18  O3'       19.9600   13.4710   31.6340 O.3   902  ANP902     -0.2174
     19  C2'       20.9290   15.2560   32.9820 C.3   902  ANP902      0.2570
     20  O2'       21.6390   15.6380   31.7990 O.3   902  ANP902     -0.2130
     21  C1'       20.3010   16.5200   33.5190 C.3   902  ANP902      0.3186
     22  N9        20.2230   16.4870   34.9960 N.pl3 902  ANP902     -0.1439
     23  C8        19.2580   15.9190   35.7430 C.3   902  ANP902      0.3377
     24  N7        19.5250   16.1230   37.0600 N.2   902  ANP902     -0.2095
     25  C5        20.6700   16.8060   37.1730 C.2   902  ANP902      0.2526
     26  C6        21.5010   17.3470   38.2810 C.2   902  ANP902      0.4393
     27  N6        21.1580   17.1750   39.5810 N.pl3 902  ANP902      0.2180
     28  N1        22.6260   18.0150   37.9340 N.2   902  ANP902      0.0021
     29  C2        22.9820   18.1910   36.6500 C.3   902  ANP902      0.5254
     30  N3        22.2740   17.7390   35.6020 N.2   902  ANP902     -0.0055
     31  C4        21.1280   17.0480   35.7990 C.2   902  ANP902      0.3518
@<TRIPOS>BOND
     1     2     1    2
     2     1     3    1
     3     1     8    1
     4     1     4    1
     5     8     5    1
     6    18    17    1
     7    20    19    1
     8    15    14    1
     9    15    17    1
    10    15    16    1
    11     6     5    2
    12    14    13    1
    13    17    19    1
    14     5     7    1
    15     5    12    1
    16    16    21    1
    17    19    21    1
    18    21    22    1
    19    13     9    1
    20    10     9    2
    21    12     9    1
    22     9    11    1
    23    22    23    1
    24    22    31    1
    25    30    31    2
    26    30    29    1
    27    23    24    1
    28    31    25    1
    29    29    28    1
    30    24    25    2
    31    25    26    1
    32    28    26    2
    33    26    27    1
