@<TRIPOS>MOLECULE
4ffo_ADP_A_1.pdb
 27 29 0 0 0
SMALL
GASTEIGER

@<TRIPOS>ATOM
      1  PB        14.5220   12.3890   32.9350 P.3   902  ADP902      0.5373
      2  O1B       15.2750   11.8200   31.7600 O.2   902  ADP902     -0.2221
      3  O2B       14.0190   13.7220   32.4290 O.3   902  ADP902     -0.1143
      4  O3B       13.3490   11.7810   33.6520 O.3   902  ADP902     -0.1143
      5  PA        16.9390   13.1200   34.5070 P.3   902  ADP902      0.2231
      6  O1A       17.9520   12.1480   33.9730 O.2   902  ADP902     -0.5169
      7  O2A       16.8690   13.2710   36.0080 O.3   902  ADP902     -0.4370
      8  O3A       15.3960   13.1270   34.0620 O.3   902  ADP902     -0.2261
      9  O5'       17.3900   14.6030   34.0690 O.3   902  ADP902     -0.3111
     10  C5'       17.5190   14.9750   32.6930 C.3   902  ADP902      0.1813
     11  C4'       18.9280   15.4810   32.3940 C.3   902  ADP902      0.1821
     12  O4'       19.2320   16.6460   33.1710 O.3   902  ADP902     -0.3135
     13  C3'       20.0100   14.4720   32.7530 C.3   902  ADP902      0.2184
     14  O3'       20.2920   13.5640   31.6810 O.3   902  ADP902     -0.2174
     15  C2'       21.2010   15.3490   33.0730 C.3   902  ADP902      0.2570
     16  O2'       21.8390   15.7360   31.8510 O.3   902  ADP902     -0.2130
     17  C1'       20.5740   16.5940   33.6650 C.3   902  ADP902      0.3186
     18  N9        20.5410   16.5820   35.1560 N.pl3 902  ADP902     -0.1439
     19  C8        19.5780   16.0390   35.9280 C.3   902  ADP902      0.3377
     20  N7        19.8380   16.2240   37.2450 N.2   902  ADP902     -0.2095
     21  C5        20.9950   16.9060   37.3350 C.2   902  ADP902      0.2526
     22  C6        21.8510   17.4350   38.4270 C.2   902  ADP902      0.4393
     23  N6        21.5200   17.2760   39.7320 N.pl3 902  ADP902      0.2180
     24  N1        22.9840   18.0880   38.0740 N.2   902  ADP902      0.0021
     25  C2        23.3390   18.2680   36.7850 C.3   902  ADP902      0.5254
     26  N3        22.6120   17.8200   35.7470 N.2   902  ADP902     -0.0055
     27  C4        21.4520   17.1430   35.9530 C.2   902  ADP902      0.3518
@<TRIPOS>BOND
     1    14    13    1
     2     2     1    2
     3    16    15    1
     4    11    10    1
     5    11    13    1
     6    11    12    1
     7     3     1    1
     8    10     9    1
     9    13    15    1
    10     1     4    1
    11     1     8    1
    12    15    17    1
    13    12    17    1
    14    17    18    1
    15     6     5    2
    16     8     5    1
    17     9     5    1
    18     5     7    1
    19    18    19    1
    20    18    27    1
    21    26    27    2
    22    26    25    1
    23    19    20    1
    24    27    21    1
    25    25    24    1
    26    20    21    2
    27    21    22    1
    28    24    22    2
    29    22    23    1
