@<TRIPOS>MOLECULE
4ffo_ATP_A_1.pdb
 31 33 0 0 0
SMALL
GASTEIGER

@<TRIPOS>ATOM
      1  PG         1.1680   12.4560   23.5300 P.3   905  ATP905      0.5373
      2  O1G        1.6100   12.3770   22.0850 O.2   905  ATP905     -0.2221
      3  O2G        1.4550   13.7740   24.2140 O.3   905  ATP905     -0.1143
      4  O3G       -0.2240   11.9230   23.7750 O.3   905  ATP905     -0.1143
      5  PB         3.5220   11.7860   24.9710 P.3   905  ATP905      0.2277
      6  O1B        4.4310   12.4160   23.9480 O.2   905  ATP905     -0.5168
      7  O2B        3.2470   12.4850   26.2810 O.3   905  ATP905     -0.4368
      8  O3B        2.1200   11.3930   24.2770 O.3   905  ATP905     -0.2258
      9  PA         3.3130    9.1790   26.0750 P.3   905  ATP905      0.2189
     10  O1A        4.3670    8.3380   26.7570 O.2   905  ATP905     -0.5170
     11  O2A        2.1840    9.7560   26.8870 O.3   905  ATP905     -0.4371
     12  O3A        4.1170   10.3240   25.2770 O.3   905  ATP905     -0.2700
     13  O5'        2.6550    8.2850   24.9160 O.3   905  ATP905     -0.3112
     14  C5'        3.4500    7.6600   23.9080 C.3   905  ATP905      0.1813
     15  C4'        2.4980    7.0430   22.8940 C.3   905  ATP905      0.1821
     16  O4'        1.6260    6.1120   23.5510 O.3   905  ATP905     -0.3135
     17  C3'        1.6330    8.1140   22.2460 C.3   905  ATP905      0.2184
     18  O3'        1.6670    7.9500   20.8260 O.3   905  ATP905     -0.2174
     19  C2'        0.2440    7.8520   22.7870 C.3   905  ATP905      0.2570
     20  O2'       -0.7580    8.1630   21.8180 O.3   905  ATP905     -0.2130
     21  C1'        0.2790    6.3670   23.1640 C.3   905  ATP905      0.3186
     22  N9        -0.7060    6.1280   24.2440 N.pl3 905  ATP905     -0.1439
     23  C8        -0.7210    6.6960   25.4690 C.3   905  ATP905      0.3377
     24  N7        -1.7910    6.2680   26.1830 N.2   905  ATP905     -0.2095
     25  C5        -2.4820    5.4100   25.4050 C.2   905  ATP905      0.2526
     26  C6        -3.7160    4.5950   25.5280 C.2   905  ATP905      0.4393
     27  N6        -4.4560    4.6100   26.6610 N.pl3 905  ATP905      0.2180
     28  N1        -4.0820    3.8300   24.4720 N.2   905  ATP905      0.0021
     29  C2        -3.3770    3.7950   23.3250 C.3   905  ATP905      0.5254
     30  N3        -2.2520    4.5140   23.1460 N.2   905  ATP905     -0.0055
     31  C4        -1.7640    5.3230   24.1260 C.2   905  ATP905      0.3518
@<TRIPOS>BOND
     1    18    17    1
     2    20    19    1
     3     2     1    2
     4    17    19    1
     5    17    15    1
     6    19    21    1
     7    15    16    1
     8    15    14    1
     9    30    29    1
    10    30    31    2
    11    21    16    1
    12    21    22    1
    13    29    28    1
    14     1     4    1
    15     1     3    1
    16     1     8    1
    17    14    13    1
    18     6     5    2
    19    31    22    1
    20    31    25    1
    21    22    23    1
    22     8     5    1
    23    28    26    2
    24    13     9    1
    25     5    12    1
    26     5     7    1
    27    12     9    1
    28    25    26    1
    29    25    24    2
    30    23    24    1
    31    26    27    1
    32     9    10    2
    33     9    11    1
