@<TRIPOS>MOLECULE
4ffo_0TK_A_1.pdb
 13 12 0 0 0
SMALL
GASTEIGER

@<TRIPOS>ATOM
      1  C1        16.3640    8.8110   27.6280 C.3   901  0TK901      0.1904
      2  C2        17.7360    8.4220   28.2460 C.3   901  0TK901      0.0320
      3  C3        18.1070    6.9280   28.0080 C.3   901  0TK901      0.0226
      4  O12       13.7090    9.7690   31.2710 O.3   901  0TK901     -0.1039
      5  P11       14.9170    9.7430   30.3700 P.3   901  0TK901      0.5907
      6  O13       16.2230    9.9880   31.3160 O.3   901  0TK901     -0.1039
      7  O14       14.7950   10.9600   29.3360 O.2   901  0TK901     -0.2114
      8  O10       14.9280    8.3230   29.5790 O.3   901  0TK901     -0.3668
      9  C8        15.1660    8.1190   28.2510 C.2   901  0TK901      0.3414
     10  O9        14.4850    7.3610   27.5560 O.2   901  0TK901     -0.2481
     11  N7        16.3880    8.5900   26.1610 N.3   901  0TK901     -0.1210
     12  C4        19.1700    6.4470   29.0260 C.3   901  0TK901      0.1094
     13  N5        19.0540    4.9810   29.2090 N.3   901  0TK901     -0.1314
@<TRIPOS>BOND
     1    11     1    1
     2    10     9    2
     3     1     2    1
     4     1     9    1
     5     3     2    1
     6     3    12    1
     7     9     8    1
     8    12    13    1
     9     7     5    2
    10     8     5    1
    11     5     4    1
    12     5     6    1
