@<TRIPOS>MOLECULE
4ffp_ADP_A_1.pdb
 27 29 0 0 0
SMALL
GASTEIGER

@<TRIPOS>ATOM
      1  PB        14.6410   12.8280   32.7480 P.3   902  ADP902      0.5373
      2  O1B       13.8070   11.8380   33.4350 O.3   902  ADP902     -0.1143
      3  O2B       13.9360   13.7910   32.0700 O.3   902  ADP902     -0.1143
      4  O3B       15.6890   12.2960   32.0470 O.2   902  ADP902     -0.2221
      5  PA        16.9410   13.3100   34.4130 P.3   902  ADP902      0.2231
      6  O1A       17.0310   13.3640   35.9360 O.3   902  ADP902     -0.4370
      7  O2A       17.3960   12.3160   33.6160 O.2   902  ADP902     -0.5169
      8  O3A       15.3630   13.6540   33.9690 O.3   902  ADP902     -0.2261
      9  O5'       17.6880   14.6420   34.0760 O.3   902  ADP902     -0.3111
     10  C5'       17.6160   15.1560   32.7220 C.3   902  ADP902      0.1813
     11  C4'       19.0170   15.6270   32.2720 C.3   902  ADP902      0.1821
     12  O4'       19.3930   16.7790   33.0430 O.3   902  ADP902     -0.3135
     13  C3'       20.1240   14.6020   32.5820 C.3   902  ADP902      0.2184
     14  O3'       20.4450   13.7150   31.5230 O.3   902  ADP902     -0.2174
     15  C2'       21.3370   15.4290   32.8910 C.3   902  ADP902      0.2570
     16  O2'       21.8860   15.8880   31.6500 O.3   902  ADP902     -0.2130
     17  C1'       20.7280   16.6370   33.5490 C.3   902  ADP902      0.3186
     18  N9        20.6700   16.5850   35.0360 N.pl3 902  ADP902     -0.1439
     19  C8        19.6690   16.0360   35.7830 C.3   902  ADP902      0.3377
     20  N7        19.9140   16.2130   37.1070 N.2   902  ADP902     -0.2095
     21  C5        21.0900   16.9070   37.1850 C.2   902  ADP902      0.2526
     22  C6        21.9320   17.4340   38.2760 C.2   902  ADP902      0.4393
     23  N6        21.5660   17.2710   39.5690 N.pl3 902  ADP902      0.2180
     24  N1        23.0730   18.0770   37.9350 N.2   902  ADP902      0.0021
     25  C2        23.4490   18.2700   36.6500 C.3   902  ADP902      0.5254
     26  N3        22.7380   17.8380   35.6130 N.2   902  ADP902     -0.0055
     27  C4        21.5730   17.1480   35.8240 C.2   902  ADP902      0.3518
@<TRIPOS>BOND
     1    14    13    1
     2    16    15    1
     3     4     1    2
     4     3     1    1
     5    11    13    1
     6    11    10    1
     7    11    12    1
     8    13    15    1
     9    10     9    1
    10     1     2    1
    11     1     8    1
    12    15    17    1
    13    12    17    1
    14    17    18    1
    15     7     5    2
    16     8     5    1
    17     9     5    1
    18     5     6    1
    19    18    19    1
    20    18    27    1
    21    26    27    2
    22    26    25    1
    23    19    20    1
    24    27    21    1
    25    25    24    1
    26    20    21    2
    27    21    22    1
    28    24    22    2
    29    22    23    1
