@<TRIPOS>MOLECULE
4ffp_0TF_A_1.pdb
 18 17 0 0 0
SMALL
GASTEIGER

@<TRIPOS>ATOM
      1  O18       15.1560    6.6550   27.3440 O.2   901  0TF901     -0.2718
      2  C11       15.1410    7.8820   27.2010 C.2   901  0TF901      0.2588
      3  C12       16.4540    8.6720   27.2320 C.3   901  0TF901      0.1693
      4  C14       17.6440    8.1930   28.1410 C.3   901  0TF901      0.0300
      5  C15       17.6770    6.6590   28.3440 C.3   901  0TF901      0.0225
      6  C16       19.0550    6.1250   28.8030 C.3   901  0TF901      0.1094
      7  N17       18.9330    4.6560   28.9670 N.3   901  0TF901     -0.1314
      8  N13       16.8850    8.6940   25.8250 N.3   901  0TF901     -0.1231
      9  N6        14.0140    8.6260   26.9080 N.am  901  0TF901     -0.2042
     10  C5        12.6030    8.1520   26.9510 C.3   901  0TF901      0.1152
     11  C4        11.5780    9.2030   26.4090 C.3   901  0TF901      0.0235
     12  C3        10.2240    8.5850   25.9200 C.3   901  0TF901      0.0039
     13  C2         9.0270    9.5800   26.0160 C.3   901  0TF901      0.0307
     14  C1         7.6510    8.9990   25.5810 C.3   901  0TF901      0.1943
     15  N7         7.2170    8.0330   26.6020 N.3   901  0TF901     -0.1208
     16  C8         7.7240    8.3400   24.2130 C.2   901  0TF901      0.3819
     17  O10        7.6330    7.0840   24.1570 O.co2 901  0TF901     -0.2441
     18  O9         7.9030    9.0500   23.1720 O.co2 901  0TF901     -0.2441
@<TRIPOS>BOND
     1    18    16   ar
     2    17    16   ar
     3    16    14    1
     4    14    13    1
     5    14    15    1
     6     8     3    1
     7    12    13    1
     8    12    11    1
     9    11    10    1
    10     9    10    1
    11     9     2   am
    12     2     3    1
    13     2     1    2
    14     3     4    1
    15     4     5    1
    16     5     6    1
    17     6     7    1
