@<TRIPOS>MOLECULE
4ffr_ATP_A_1.pdb
 31 33 0 0 0
SMALL
GASTEIGER

@<TRIPOS>ATOM
      1  PG        15.1240   10.6260   31.0790 P.3   401  ATP401      0.5373
      2  O1G       15.0360   11.3080   29.7350 O.2   401  ATP401     -0.2221
      3  O2G       16.3590    9.7550   31.1490 O.3   401  ATP401     -0.1143
      4  O3G       13.7780    9.9650   31.2930 O.3   401  ATP401     -0.1143
      5  PB        14.4100   12.6620   33.0070 P.3   401  ATP401      0.2277
      6  O1B       13.8980   13.8100   32.1690 O.2   401  ATP401     -0.5168
      7  O2B       13.4310   11.9140   33.8460 O.3   401  ATP401     -0.4368
      8  O3B       15.4290   11.8680   32.0660 O.3   401  ATP401     -0.2258
      9  PA        16.8680   13.4630   34.4700 P.3   401  ATP401      0.2189
     10  O1A       17.4970   12.2910   33.7450 O.2   401  ATP401     -0.5170
     11  O2A       16.8930   13.5080   35.9820 O.3   401  ATP401     -0.4371
     12  O3A       15.3260   13.6100   33.9750 O.3   401  ATP401     -0.2700
     13  O5'       17.5660   14.8240   33.9730 O.3   401  ATP401     -0.3112
     14  C5'       17.7680   15.0900   32.5820 C.3   401  ATP401      0.1813
     15  C4'       19.1780   15.6160   32.3350 C.3   401  ATP401      0.1821
     16  O4'       19.4540   16.7600   33.1500 O.3   401  ATP401     -0.3135
     17  C3'       20.2570   14.6010   32.6980 C.3   401  ATP401      0.2184
     18  O3'       20.5490   13.6880   31.6370 O.3   401  ATP401     -0.2174
     19  C2'       21.4410   15.4800   33.0340 C.3   401  ATP401      0.2570
     20  O2'       22.0890   15.9240   31.8350 O.3   401  ATP401     -0.2130
     21  C1'       20.7920   16.6970   33.6560 C.3   401  ATP401      0.3186
     22  N9        20.7290   16.6510   35.1420 N.pl3 401  ATP401     -0.1439
     23  C8        19.7270   16.1310   35.8870 C.3   401  ATP401      0.3377
     24  N7        19.9650   16.2860   37.2150 N.2   401  ATP401     -0.2095
     25  C5        21.1480   16.9230   37.3270 C.2   401  ATP401      0.2526
     26  C6        22.0020   17.4030   38.4390 C.2   401  ATP401      0.4393
     27  N6        21.6330   17.2270   39.7320 N.pl3 401  ATP401      0.2180
     28  N1        23.1620   18.0230   38.1210 N.2   401  ATP401      0.0021
     29  C2        23.5470   18.2160   36.8440 C.3   401  ATP401      0.5254
     30  N3        22.8280   17.8070   35.7860 N.2   401  ATP401     -0.0055
     31  C4        21.6410   17.1700   35.9600 C.2   401  ATP401      0.3518
@<TRIPOS>BOND
     1     2     1    2
     2     1     3    1
     3     1     4    1
     4     1     8    1
     5    18    17    1
     6    20    19    1
     7     8     5    1
     8     6     5    2
     9    15    14    1
    10    15    17    1
    11    15    16    1
    12    14    13    1
    13    17    19    1
    14     5     7    1
    15     5    12    1
    16    19    21    1
    17    16    21    1
    18    21    22    1
    19    10     9    2
    20    13     9    1
    21    12     9    1
    22     9    11    1
    23    22    23    1
    24    22    31    1
    25    30    31    2
    26    30    29    1
    27    23    24    1
    28    31    25    1
    29    29    28    1
    30    24    25    2
    31    25    26    1
    32    28    26    2
    33    26    27    1
