@<TRIPOS>MOLECULE
4ffs_BIG_A_1.pdb
 23 25 0 0 0
SMALL
GASTEIGER

@<TRIPOS>ATOM
      1  C2       -37.0930  -48.8680    7.9830 C.3   301  BIG301      0.3922
      2  C5       -35.8960  -50.3090   10.0380 C.2   301  BIG301      0.1884
      3  C4       -35.3800  -49.0400    9.5550 C.2   301  BIG301      0.1045
      4  C8       -34.0790  -49.8340   11.2590 C.2   301  BIG301      0.0978
      5  O3'      -34.1020  -43.4680   10.9790 O.3   301  BIG301     -0.2216
      6  C3'      -35.1100  -44.4760   10.8480 C.3   301  BIG301      0.1700
      7  C4'      -35.2790  -45.2390   12.1550 C.3   301  BIG301      0.0586
      8  C5'      -36.5980  -46.0030   12.2470 C.3   301  BIG301      0.0615
      9  S5'      -37.9710  -44.9410   12.4930 S.3   301  BIG301     -0.1401
     10  C20      -37.9830  -44.7410   14.2550 C.3   301  BIG301      0.0576
     11  C21      -39.0650  -43.7270   14.6220 C.3   301  BIG301      0.0116
     12  C22      -39.3460  -43.6470   16.1130 C.3   301  BIG301      0.0009
     13  C23      -38.1010  -43.3510   16.9000 C.3   301  BIG301      0.0000
     14  C1'      -34.1440  -46.2470   12.1290 C.3   301  BIG301      0.0759
     15  N1'      -33.6470  -46.2480   10.7260 N.3   301  BIG301     -0.2666
     16  C2'      -34.6180  -45.5370    9.8810 C.3   301  BIG301      0.1057
     17  C10      -33.2640  -47.5500   10.2280 C.3   301  BIG301      0.1023
     18  N7       -35.0930  -50.7390   11.0340 N.2   301  BIG301     -0.2350
     19  C6       -37.0980  -50.8070    9.3660 C.2   301  BIG301      0.4315
     20  N6       -37.6330  -51.9990    9.7830 N.pl3 301  BIG301      0.2177
     21  N3       -35.9740  -48.3510    8.5570 N.2   301  BIG301     -0.2171
     22  C9       -34.1950  -48.7370   10.3740 C.2   301  BIG301      0.0321
     23  N1       -37.6440  -50.0510    8.3820 N.2   301  BIG301     -0.0278
@<TRIPOS>BOND
     1     1    23    1
     2     1    21    1
     3    23    19    2
     4    21     3    2
     5    19    20    1
     6    19     2    1
     7     3     2    1
     8     3    22    1
     9    16    15    1
    10    16     6    1
    11     2    18    2
    12    17    22    1
    13    17    15    1
    14    22     4    2
    15    15    14    1
    16     6     5    1
    17     6     7    1
    18    18     4    1
    19    14     7    1
    20     7     8    1
    21     8     9    1
    22     9    10    1
    23    10    11    1
    24    11    12    1
    25    12    13    1
