@<TRIPOS>MOLECULE
4fft_BGC_B_1.pdb
 12 12 0 0 0
SMALL
GASTEIGER

@<TRIPOS>ATOM
      1  C2         0.3910  -48.4350  -29.1500 C.3   301  BGC301      0.2434
      2  C3         0.3580  -48.5840  -27.6330 C.3   301  BGC301      0.2199
      3  C4         1.1090  -47.4430  -26.9310 C.3   301  BGC301      0.2144
      4  C5         0.7910  -46.0870  -27.5640 C.3   301  BGC301      0.1836
      5  C6         1.7660  -45.0320  -27.0530 C.3   301  BGC301      0.2142
      6  C1        -0.0370  -47.0350  -29.5600 C.3   301  BGC301      0.3024
      7  O1         0.0090  -46.9140  -30.9660 O.3   301  BGC301     -0.1869
      8  O2        -0.4570  -49.3940  -29.7420 O.3   301  BGC301     -0.2148
      9  O3         0.9100  -49.8490  -27.3460 O.3   301  BGC301     -0.2174
     10  O4         0.7810  -47.3270  -25.5500 O.3   301  BGC301     -0.2176
     11  O5         0.8600  -46.1190  -28.9760 O.3   301  BGC301     -0.3236
     12  O6         1.2160  -43.7450  -27.2330 O.3   301  BGC301     -0.2176
@<TRIPOS>BOND
     1     7     6    1
     2     8     1    1
     3     6     1    1
     4     6    11    1
     5     1     2    1
     6    11     4    1
     7     2     9    1
     8     2     3    1
     9     4     5    1
    10     4     3    1
    11    12     5    1
    12     3    10    1
