@<TRIPOS>MOLECULE
4ffw_715_A_1.pdb
 28 30 0 0 0
SMALL
GASTEIGER

@<TRIPOS>ATOM
      1  C1        26.2310  -11.0030   50.9740 C.ar  801  715801      0.0612
      2  C2        24.9970  -11.0960   51.6130 C.ar  801  715801      0.1386
      3  C3        24.4590   -9.9820   52.2440 C.ar  801  715801      0.0091
      4  C4        25.1610   -8.7770   52.2360 C.ar  801  715801      0.0300
      5  C5        26.3950   -8.6880   51.5990 C.ar  801  715801      0.1672
      6  C6        26.9280   -9.7980   50.9680 C.ar  801  715801      0.1696
      7  F9        27.0710   -7.5290   51.5910 F     801  715801     -0.2018
      8  F10       24.3350  -12.2660   51.6060 F     801  715801     -0.2044
      9  C11       23.1170  -10.0560   52.9400 C.3   801  715801      0.0482
     10  C12       22.1190   -9.1620   52.1990 C.3   801  715801      0.1053
     11  C15       20.7100   -9.2070   52.7910 C.3   801  715801      0.1046
     12  C16       20.6750   -8.8670   54.2710 C.2   801  715801      0.2275
     13  N19       19.6550   -9.3140   55.0190 N.am  801  715801     -0.2705
     14  N20       22.0460   -9.6000   50.8170 N.3   801  715801     -0.1320
     15  O22       21.5600   -8.1730   54.7470 O.2   801  715801     -0.2748
     16  C25       18.8100  -10.4720   54.7100 C.3   801  715801      0.1183
     17  C26       17.4720   -9.9030   54.2280 C.3   801  715801      0.1301
     18  N27       17.0040   -8.9130   55.2030 N.ar  801  715801     -0.2924
     19  C28       17.7850   -8.3390   56.1250 C.ar  801  715801      0.1635
     20  C29       19.2530   -8.6520   56.2580 C.3   801  715801      0.1596
     21  C39       15.7920   -8.3910   55.3930 C.ar  801  715801      0.2383
     22  N40       15.7310   -7.5000   56.3940 N.ar  801  715801     -0.1249
     23  N41       17.0520   -7.4740   56.8730 N.ar  801  715801     -0.1316
     24  C42       14.5860   -8.7510   54.5730 C.3   801  715801      0.4524
     25  F43       14.2690  -10.0130   54.7960 F     801  715801     -0.1632
     26  F44       14.8560   -8.5760   53.2930 F     801  715801     -0.1632
     27  F45       13.5680   -7.9780   54.9060 F     801  715801     -0.1632
     28  F46       28.1220   -9.7080   50.3570 F     801  715801     -0.2017
@<TRIPOS>BOND
     1    28     6    1
     2    14    10    1
     3     6     1   ar
     4     6     5   ar
     5     1     2   ar
     6     7     5    1
     7     5     4   ar
     8     8     2    1
     9     2     3   ar
    10    10    11    1
    11    10     9    1
    12     4     3   ar
    13     3     9    1
    14    11    12    1
    15    26    24    1
    16    17    16    1
    17    17    18    1
    18    12    15    2
    19    12    13   am
    20    24    25    1
    21    24    27    1
    22    24    21    1
    23    16    13    1
    24    13    20    1
    25    18    21   ar
    26    18    19   ar
    27    21    22   ar
    28    19    20    1
    29    19    23   ar
    30    22    23   ar
