@<TRIPOS>MOLECULE
4fg2_CTT_A_1.pdb
 45 48 0 0 0
SMALL
GASTEIGER

@<TRIPOS>ATOM
      1  O1B      -15.2990   -7.0650   22.5440 O.3   303  CTT303     -0.1869
      2  C1B      -15.3050   -5.9320   21.7600 C.3   303  CTT303      0.3023
      3  C2B      -13.9160   -5.5210   21.2950 C.3   303  CTT303      0.2433
      4  O2B      -12.9850   -5.5100   22.3760 O.3   303  CTT303     -0.2148
      5  C3B      -14.0160   -4.2370   20.6290 C.3   303  CTT303      0.2168
      6  O3B      -12.6760   -3.7300   20.2430 O.3   303  CTT303     -0.2175
      7  O5B      -16.0870   -6.1400   20.6290 O.3   303  CTT303     -0.3237
      8  C5B      -16.1650   -4.9670   19.7660 C.3   303  CTT303      0.1804
      9  C6B      -16.8040   -5.3180   18.4690 C.3   303  CTT303      0.2141
     10  O6B      -17.7090   -6.3890   18.4920 O.3   303  CTT303     -0.2176
     11  C4B      -14.8370   -4.3090   19.4750 C.3   303  CTT303      0.1804
     12  O4B      -15.1170   -2.9860   18.9520 O.3   303  CTT303     -0.3257
     13  C1C      -14.3130   -2.6600   17.8300 C.3   303  CTT303      0.2695
     14  C2C      -15.0790   -1.7100   16.9030 C.3   303  CTT303      0.2404
     15  O2C      -16.1330   -2.3890   16.2820 O.3   303  CTT303     -0.2149
     16  C3C      -14.2610   -1.0580   15.8660 C.3   303  CTT303      0.2167
     17  O3C      -15.1150   -0.0720   15.1660 O.3   303  CTT303     -0.2175
     18  O5C      -13.1160   -2.1170   18.2890 O.3   303  CTT303     -0.3257
     19  C5C      -12.2750   -1.4490   17.2500 C.3   303  CTT303      0.1803
     20  C6C      -11.1430   -0.8330   17.9200 C.3   303  CTT303      0.2141
     21  O6C      -10.4270    0.1290   17.2960 O.3   303  CTT303     -0.2176
     22  C4C      -13.0140   -0.5020   16.3120 C.3   303  CTT303      0.1804
     23  O4C      -12.1580   -0.2820   15.2100 O.3   303  CTT303     -0.3257
     24  C1D      -12.3410    0.9090   14.5170 C.3   303  CTT303      0.2695
     25  C2D      -11.0990    1.2390   13.7260 C.3   303  CTT303      0.2404
     26  O2D       -9.9720    1.1680   14.4980 O.3   303  CTT303     -0.2149
     27  C3D      -11.2260    2.5600   13.0560 C.3   303  CTT303      0.2167
     28  O3D      -10.0080    2.8770   12.3550 O.3   303  CTT303     -0.2175
     29  O5D      -13.4010    0.8040   13.5970 O.3   303  CTT303     -0.3257
     30  C5D      -13.5930    2.0390   12.7810 C.3   303  CTT303      0.1803
     31  C6D      -14.5680    1.7760   11.7050 C.3   303  CTT303      0.2141
     32  O6D      -15.9070    2.0950   11.9500 O.3   303  CTT303     -0.2176
     33  C4D      -12.3320    2.6080   12.1720 C.3   303  CTT303      0.1804
     34  O4D      -12.5890    3.9950   11.8270 O.3   303  CTT303     -0.3257
     35  C1E      -12.3360    4.2780   10.4700 C.3   303  CTT303      0.2695
     36  C2E      -13.0830    5.5240   10.1020 C.3   303  CTT303      0.2406
     37  O2E      -14.4660    5.2940   10.1780 O.3   303  CTT303     -0.2149
     38  C3E      -12.7290    6.0640    8.7670 C.3   303  CTT303      0.2198
     39  O3E      -13.4790    7.2650    8.4750 O.3   303  CTT303     -0.2174
     40  C4E      -11.2800    6.2340    8.5790 C.3   303  CTT303      0.2144
     41  O4E      -11.0440    6.4670    7.2040 O.3   303  CTT303     -0.2176
     42  O5E      -10.9400    4.3560   10.2510 O.3   303  CTT303     -0.3256
     43  C5E      -10.4950    5.0610    8.9780 C.3   303  CTT303      0.1835
     44  C6E       -9.0520    5.3640    9.0600 C.3   303  CTT303      0.2142
     45  O6E       -8.5480    5.7610   10.2510 O.3   303  CTT303     -0.2176
@<TRIPOS>BOND
     1    41    40    1
     2    39    38    1
     3    40    38    1
     4    40    43    1
     5    38    36    1
     6    43    44    1
     7    43    42    1
     8    44    45    1
     9    36    37    1
    10    36    35    1
    11    42    35    1
    12    35    34    1
    13    31    32    1
    14    31    30    1
    15    34    33    1
    16    33    30    1
    17    33    27    1
    18    28    27    1
    19    30    29    1
    20    27    25    1
    21    29    24    1
    22    25    26    1
    23    25    24    1
    24    24    23    1
    25    17    16    1
    26    23    22    1
    27    16    22    1
    28    16    14    1
    29    15    14    1
    30    22    19    1
    31    14    13    1
    32    19    20    1
    33    19    18    1
    34    21    20    1
    35    13    18    1
    36    13    12    1
    37     9    10    1
    38     9     8    1
    39    12    11    1
    40    11     8    1
    41    11     5    1
    42     8     7    1
    43     6     5    1
    44     7     2    1
    45     5     3    1
    46     3     2    1
    47     3     4    1
    48     2     1    1
