@<TRIPOS>MOLECULE
4fg7_ATP_A_1.pdb
 31 33 0 0 0
SMALL
GASTEIGER

@<TRIPOS>ATOM
      1  PG       141.2760  -25.1340   21.8800 P.3   301  ATP301      0.5373
      2  O1G      140.4690  -24.2490   22.7700 O.3   301  ATP301     -0.1143
      3  O2G      142.7200  -24.5290   21.3570 O.2   301  ATP301     -0.2221
      4  O3G      141.6410  -26.4900   22.6720 O.3   301  ATP301     -0.1143
      5  PB       139.3540  -24.6500   20.0900 P.3   301  ATP301      0.2277
      6  O1B      139.5150  -23.2460   20.5250 O.3   301  ATP301     -0.4368
      7  O2B      139.1810  -24.9510   18.6550 O.2   301  ATP301     -0.5168
      8  O3B      140.5590  -25.5290   20.5530 O.3   301  ATP301     -0.2258
      9  PA       137.9140  -26.8780   20.8410 P.3   301  ATP301      0.2189
     10  O1A      139.0150  -27.6070   21.4470 O.3   301  ATP301     -0.4371
     11  O2A      136.5450  -27.1130   21.3250 O.2   301  ATP301     -0.5170
     12  O3A      138.1810  -25.3110   20.9460 O.3   301  ATP301     -0.2700
     13  O5'      138.0460  -27.0820   19.2910 O.3   301  ATP301     -0.3112
     14  C5'      138.2180  -28.3220   18.7380 C.3   301  ATP301      0.1813
     15  C4'      137.2430  -28.5520   17.6250 C.3   301  ATP301      0.1821
     16  O4'      137.3200  -29.9600   17.5870 O.3   301  ATP301     -0.3135
     17  C3'      135.7940  -28.2290   17.9670 C.3   301  ATP301      0.2184
     18  O3'      135.3760  -27.0730   17.2910 O.3   301  ATP301     -0.2174
     19  C2'      135.0460  -29.4030   17.3870 C.3   301  ATP301      0.2570
     20  O2'      134.8660  -29.2750   15.9830 O.3   301  ATP301     -0.2130
     21  C1'      136.0160  -30.5480   17.6710 C.3   301  ATP301      0.3186
     22  N9       135.7060  -31.1450   19.0260 N.pl3 301  ATP301     -0.1439
     23  C8       136.0730  -30.6580   20.2040 C.3   301  ATP301      0.3377
     24  N7       135.6180  -31.4370   21.1770 N.2   301  ATP301     -0.2095
     25  C5       134.9370  -32.4310   20.6250 C.2   301  ATP301      0.2526
     26  C6       134.2340  -33.5280   21.1230 C.2   301  ATP301      0.4393
     27  N6       134.1490  -33.7560   22.4140 N.pl3 301  ATP301      0.2180
     28  N1       133.6320  -34.3710   20.2730 N.2   301  ATP301      0.0021
     29  C2       133.7070  -34.1690   18.9690 C.3   301  ATP301      0.5254
     30  N3       134.3590  -33.1370   18.4480 N.2   301  ATP301     -0.0055
     31  C4       134.9870  -32.2460   19.2520 C.2   301  ATP301      0.3518
@<TRIPOS>BOND
     1    20    19    1
     2    18    17    1
     3    19    21    1
     4    19    17    1
     5    16    15    1
     6    16    21    1
     7    15    17    1
     8    15    14    1
     9    21    22    1
    10    30    29    1
    11    30    31    2
    12     7     5    2
    13    14    13    1
    14    29    28    1
    15    22    31    1
    16    22    23    1
    17    31    25    1
    18    13     9    1
    19     5     6    1
    20     5     8    1
    21     5    12    1
    22    23    24    1
    23    28    26    2
    24     8     1    1
    25    25    26    1
    26    25    24    2
    27     9    12    1
    28     9    11    2
    29     9    10    1
    30    26    27    1
    31     3     1    2
    32     1     4    1
    33     1     2    1
