@<TRIPOS>MOLECULE
4fg8_ATP_A_1.pdb
 31 33 0 0 0
SMALL
GASTEIGER

@<TRIPOS>ATOM
      1  PG        18.6600   28.7500   20.4500 P.3   401  ATP401      0.5373
      2  O1G       19.8170   29.6590   20.6030 O.3   401  ATP401     -0.1143
      3  O2G       17.2950   29.4230   20.9690 O.3   401  ATP401     -0.1143
      4  O3G       18.3690   28.4220   18.8930 O.2   401  ATP401     -0.2221
      5  PB        19.8500   26.1910   20.7510 P.3   401  ATP401      0.2277
      6  O1B       19.1220   24.9070   20.7570 O.3   401  ATP401     -0.4368
      7  O2B       20.5640   26.6210   19.5290 O.2   401  ATP401     -0.5168
      8  O3B       18.8280   27.3470   21.2370 O.3   401  ATP401     -0.2258
      9  PA        20.4570   26.4210   23.4660 P.3   401  ATP401      0.2189
     10  O1A       19.8390   25.2800   24.2110 O.3   401  ATP401     -0.4371
     11  O2A       20.9580   27.6670   24.0790 O.2   401  ATP401     -0.5170
     12  O3A       20.9360   26.1380   21.9400 O.3   401  ATP401     -0.2700
     13  O5'       21.8360   25.6780   23.8930 O.3   401  ATP401     -0.3112
     14  C5'       23.1580   26.2140   23.6800 C.3   401  ATP401      0.1813
     15  C4'       24.1850   25.7380   24.7410 C.3   401  ATP401      0.1821
     16  O4'       24.0430   26.5910   25.9220 O.3   401  ATP401     -0.3135
     17  C3'       24.0550   24.3130   25.2890 C.3   401  ATP401      0.2184
     18  O3'       24.6940   23.3790   24.4260 O.3   401  ATP401     -0.2174
     19  C2'       24.8200   24.4320   26.6090 C.3   401  ATP401      0.2570
     20  O2'       26.2490   24.3360   26.4080 O.3   401  ATP401     -0.2130
     21  C1'       24.4100   25.8290   27.1070 C.3   401  ATP401      0.3186
     22  N9        23.2270   25.7960   28.0330 N.pl3 401  ATP401     -0.1439
     23  C8        21.9410   25.9090   27.6710 C.3   401  ATP401      0.3377
     24  N7        21.1540   25.8160   28.7360 N.2   401  ATP401     -0.2095
     25  C5        21.9260   25.6560   29.7920 C.2   401  ATP401      0.2526
     26  C6        21.6720   25.5040   31.1460 C.2   401  ATP401      0.4393
     27  N6        20.4520   25.5220   31.6340 N.pl3 401  ATP401      0.2180
     28  N1        22.7000   25.3550   31.9790 N.2   401  ATP401      0.0021
     29  C2        23.9450   25.3310   31.5180 C.3   401  ATP401      0.5254
     30  N3        24.2320   25.4620   30.2280 N.2   401  ATP401     -0.0055
     31  C4        23.2470   25.6400   29.3460 C.2   401  ATP401      0.3518
@<TRIPOS>BOND
     1     4     1    2
     2     7     5    2
     3     1     2    1
     4     1     3    1
     5     1     8    1
     6     5     6    1
     7     5     8    1
     8     5    12    1
     9    12     9    1
    10     9    13    1
    11     9    11    2
    12     9    10    1
    13    14    13    1
    14    14    15    1
    15    18    17    1
    16    15    17    1
    17    15    16    1
    18    17    19    1
    19    16    21    1
    20    20    19    1
    21    19    21    1
    22    21    22    1
    23    23    22    1
    24    23    24    1
    25    22    31    1
    26    24    25    2
    27    31    25    1
    28    31    30    2
    29    25    26    1
    30    30    29    1
    31    26    27    1
    32    26    28    2
    33    29    28    1
