@<TRIPOS>MOLECULE
4fg9_ATP_A_1.pdb
 31 33 0 0 0
SMALL
GASTEIGER

@<TRIPOS>ATOM
      1  PG        32.6990    3.5890   57.3610 P.3   401  ATP401      0.5373
      2  O1G       33.6620    2.9380   56.4360 O.2   401  ATP401     -0.2221
      3  O2G       31.6390    2.5320   57.9710 O.3   401  ATP401     -0.1143
      4  O3G       33.4290    4.2220   58.6610 O.3   401  ATP401     -0.1143
      5  PB        32.5470    6.1070   56.1350 P.3   401  ATP401      0.2277
      6  O1B       31.8480    7.2910   56.6750 O.3   401  ATP401     -0.4368
      7  O2B       34.0030    5.9900   56.3370 O.2   401  ATP401     -0.5168
      8  O3B       31.8320    4.7680   56.6700 O.3   401  ATP401     -0.2258
      9  PA        32.9300    4.7970   53.7320 P.3   401  ATP401      0.2189
     10  O1A       32.1140    4.0280   52.7350 O.2   401  ATP401     -0.5170
     11  O2A       34.3850    4.5370   53.8860 O.3   401  ATP401     -0.4371
     12  O3A       32.2630    6.0280   54.5400 O.3   401  ATP401     -0.2700
     13  O5'       33.3330    5.9800   52.6850 O.3   401  ATP401     -0.3112
     14  C5'       34.5010    6.8070   52.9560 C.3   401  ATP401      0.1813
     15  C4'       34.4960    8.1640   52.2420 C.3   401  ATP401      0.1821
     16  O4'       35.2070    8.0480   50.9690 O.3   401  ATP401     -0.3135
     17  C3'       33.1090    8.7070   51.8920 C.3   401  ATP401      0.2184
     18  O3'       32.6340    9.5160   52.9570 O.3   401  ATP401     -0.2174
     19  C2'       33.4070    9.5610   50.6640 C.3   401  ATP401      0.2570
     20  O2'       34.0210   10.7990   51.0390 O.3   401  ATP401     -0.2130
     21  C1'       34.4400    8.7130   49.9280 C.3   401  ATP401      0.3186
     22  N9        33.8090    7.7120   49.0020 N.pl3 401  ATP401     -0.1439
     23  C8        33.2700    6.5400   49.3580 C.3   401  ATP401      0.3377
     24  N7        32.7990    5.8970   48.2850 N.2   401  ATP401     -0.2095
     25  C5        33.0410    6.6570   47.2260 C.2   401  ATP401      0.2526
     26  C6        32.7900    6.5130   45.8610 C.2   401  ATP401      0.4393
     27  N6        32.1790    5.4330   45.3580 N.pl3 401  ATP401      0.2180
     28  N1        33.1680    7.4930   45.0310 N.2   401  ATP401      0.0021
     29  C2        33.7790    8.5790   45.4860 C.3   401  ATP401      0.5254
     30  N3        34.0380    8.7480   46.7830 N.2   401  ATP401     -0.0055
     31  C4        33.6840    7.8120   47.6770 C.2   401  ATP401      0.3518
@<TRIPOS>BOND
     1    28    29    1
     2    28    26    2
     3    27    26    1
     4    29    30    1
     5    26    25    1
     6    30    31    2
     7    25    31    1
     8    25    24    2
     9    31    22    1
    10    24    23    1
    11    22    23    1
    12    22    21    1
    13    21    19    1
    14    21    16    1
    15    19    20    1
    16    19    17    1
    17    16    15    1
    18    17    15    1
    19    17    18    1
    20    15    14    1
    21    13    14    1
    22    13     9    1
    23    10     9    2
    24     9    11    1
    25     9    12    1
    26    12     5    1
    27     5     7    2
    28     5     8    1
    29     5     6    1
    30     2     1    2
    31     8     1    1
    32     1     3    1
    33     1     4    1
