@<TRIPOS>MOLECULE
4fga_III_P_1.pdb
 27 27 0 0 0
SMALL
GASTEIGER

@<TRIPOS>ATOM
      1  N         36.5590    3.3080   -5.0920 N.3     3  ALA3       -0.1231
      2  CA        36.5010    4.5710   -5.8180 C.3     3  ALA3        0.1694
      3  C         35.1230    5.2080   -5.9680 C.2     3  ALA3        0.2592
      4  O         34.8060    6.1890   -5.2950 O.2     3  ALA3       -0.2718
      5  CB        37.0600    4.4010   -7.2220 C.3     3  ALA3        0.0304
      6  N         34.3090    4.6440   -6.8540 N.am    4  TYR4       -0.1962
      7  CA        32.8900    5.0900   -7.0230 C.3     4  TYR4        0.1771
      8  C         31.9310    5.2650   -5.8010 C.2     4  TYR4        0.2620
      9  O         32.3130    5.0730   -4.6250 O.2     4  TYR4       -0.2715
     10  CB        32.2190    4.3630   -8.2190 C.3     4  TYR4        0.0574
     11  CG        32.4480    5.1180   -9.5020 C.ar    4  TYR4       -0.0198
     12  CD1       31.5330    6.1050   -9.9170 C.ar    4  TYR4       -0.0009
     13  CD2       33.6130    4.9050  -10.2680 C.ar    4  TYR4       -0.0009
     14  CE1       31.7560    6.8410  -11.0700 C.ar    4  TYR4        0.0417
     15  CE2       33.8510    5.6320  -11.4260 C.ar    4  TYR4        0.0417
     16  CZ        32.9230    6.5970  -11.8220 C.ar    4  TYR4        0.1957
     17  OH        33.1360    7.3240  -12.9710 O.3     4  TYR4       -0.2866
     18  N         30.6850    5.6330   -6.1230 N.am    5  LYS5       -0.1941
     19  CA        29.7900    6.4120   -5.2300 C.3     5  LYS5        0.1978
     20  C         30.1660    7.9330   -5.1960 C.2     5  LYS5        0.3842
     21  O         29.3530    8.8470   -4.9530 O.co2   5  LYS5       -0.2437
     22  CB        29.7180    5.8340   -3.8070 C.3     5  LYS5        0.0333
     23  CG        28.3510    5.9480   -3.1440 C.3     5  LYS5        0.0039
     24  CD        27.3980    6.8140   -3.9560 C.3     5  LYS5        0.0206
     25  CE        27.1120    8.1610   -3.3190 C.3     5  LYS5        0.1093
     26  NZ        25.9410    8.7090   -4.0760 N.3     5  LYS5       -0.1314
     27  OXT       31.3190    8.3220   -5.4190 O.co2   5  LYS5       -0.2437
@<TRIPOS>BOND
     1    17    16    1
     2    16    15   ar
     3    16    14   ar
     4    15    13   ar
     5    14    12   ar
     6    13    11   ar
     7    12    11   ar
     8    11    10    1
     9    10     7    1
    10     5     2    1
    11     7     6    1
    12     7     8    1
    13     6     3   am
    14    18     8   am
    15    18    19    1
    16     3     2    1
    17     3     4    2
    18     2     1    1
    19     8     9    2
    20    27    20   ar
    21    19    20    1
    22    19    22    1
    23    20    21   ar
    24    26    25    1
    25    24    25    1
    26    24    23    1
    27    22    23    1
