@<TRIPOS>MOLECULE
4fgc_PQ0_B_1.pdb
 13 14 0 0 0
SMALL
GASTEIGER

@<TRIPOS>ATOM
      1  N1         2.7710   51.0230   22.0290 N.2   201  PQ0201     -0.2489
      2  C2         3.2300   52.2000   22.5070 C.1   201  PQ0201      0.2607
      3  N3         2.6720   53.3890   22.1560 N.2   201  PQ0201     -0.2698
      4  C4         1.6310   53.3780   21.2820 C.1   201  PQ0201      0.1096
      5  C5         1.1480   52.2000   20.7800 C.2   201  PQ0201      0.1769
      6  C6         1.7340   50.9900   21.1710 C.1   201  PQ0201      0.2267
      7  O6         1.3000   49.7820   20.7050 O.2   201  PQ0201     -0.2078
      8  C7         0.1120   52.6260   19.9690 C.2   201  PQ0201      0.0939
      9  C10       -0.6270   51.7810   19.2380 C.1   201  PQ0201      0.0996
     10  N11       -1.2430   50.9780   18.6560 N.1   201  PQ0201     -0.1911
     11  C8        -0.0370   53.9980   19.9450 C.3   201  PQ0201      0.1753
     12  N9         0.9350   54.4410   20.7820 N.2   201  PQ0201     -0.2031
     13  N2         4.2720   52.1480   23.3620 N.pl3 201  PQ0201     -0.0220
@<TRIPOS>BOND
     1    10     9    3
     2     9     8    1
     3    11     8    1
     4    11    12    1
     5     8     5    2
     6     7     6    2
     7     5     6    1
     8     5     4    1
     9    12     4    2
    10     6     1    2
    11     4     3    2
    12     1     2    2
    13     3     2    2
    14     2    13    1
