@<TRIPOS>MOLECULE
4fgg_NAP_A_1.pdb
 48 52 0 0 0
SMALL
GASTEIGER

@<TRIPOS>ATOM
      1  PA         6.6410   31.5570   -6.3730 P.3   201  NAP201      0.2189
      2  O1A        6.7770   30.2510   -5.5590 O.3   201  NAP201     -0.4371
      3  O2A        5.3100   32.2540   -6.1840 O.2   201  NAP201     -0.5170
      4  O5B        7.7380   32.5150   -5.7930 O.3   201  NAP201     -0.3112
      5  C5B        9.0200   32.5360   -6.3620 C.3   201  NAP201      0.1813
      6  C4B        9.9720   33.2150   -5.4340 C.3   201  NAP201      0.1820
      7  O4B        9.7530   33.0440   -3.9670 O.3   201  NAP201     -0.3136
      8  C3B       11.4560   33.2160   -5.6450 C.3   201  NAP201      0.2157
      9  O3B       12.0090   33.5300   -6.8600 O.3   201  NAP201     -0.2175
     10  C2B       11.8540   33.9470   -4.4390 C.3   201  NAP201      0.2314
     11  O2B       11.6300   35.2950   -4.4380 O.3   201  NAP201     -0.2630
     12  C1B       11.1410   33.0580   -3.4450 C.3   201  NAP201      0.3158
     13  N9A       11.5480   32.0510   -2.5110 N.pl3 201  NAP201     -0.1439
     14  C8A       11.2180   30.7650   -2.6100 C.3   201  NAP201      0.3377
     15  N7A       11.9420   30.0620   -1.6060 N.2   201  NAP201     -0.2095
     16  C5A       12.7340   30.9860   -0.9220 C.2   201  NAP201      0.2526
     17  C6A       13.6310   30.8410    0.1490 C.2   201  NAP201      0.4393
     18  N6A       13.8800   29.5530    0.7310 N.pl3 201  NAP201      0.2180
     19  N1A       14.2490   31.9140    0.6170 N.2   201  NAP201      0.0021
     20  C2A       14.0360   33.1580    0.0680 C.3   201  NAP201      0.5254
     21  N3A       13.1480   33.3020   -0.9920 N.2   201  NAP201     -0.0055
     22  C4A       12.5210   32.2130   -1.4590 C.2   201  NAP201      0.3518
     23  O3         7.0180   31.3670   -7.9100 O.3   201  NAP201     -0.2703
     24  PN         6.7730   30.0850   -8.8190 P.3   201  NAP201      0.2189
     25  O1N        7.4100   30.3830  -10.2100 O.2   201  NAP201     -0.5170
     26  O2N        7.4560   28.8940   -8.2140 O.3   201  NAP201     -0.4371
     27  O5D        5.2250   29.8050   -9.0530 O.3   201  NAP201     -0.3112
     28  C5D        4.4320   30.7830   -9.6720 C.3   201  NAP201      0.1813
     29  C4D        3.1470   30.2720  -10.2710 C.3   201  NAP201      0.1799
     30  O4D        2.2620   29.5070   -9.3780 O.3   201  NAP201     -0.3324
     31  C3D        2.2300   31.1140  -11.1590 C.3   201  NAP201      0.2158
     32  O3D        2.1090   30.7740  -12.4960 O.3   201  NAP201     -0.2175
     33  C2D        0.9510   31.2570  -10.4000 C.3   201  NAP201      0.2312
     34  O2D       -0.2040   31.6160  -11.0460 O.3   201  NAP201     -0.2158
     35  C1D        0.9070   30.0150   -9.5430 C.3   201  NAP201      0.2299
     36  N1N       -0.0220   29.6790   -8.5080 N.pl3 201  NAP201     -0.2608
     37  C2N       -1.1680   28.7970   -8.5680 C.2   201  NAP201      0.0678
     38  C3N       -1.7490   28.2620   -7.2610 C.2   201  NAP201      0.0537
     39  C7N       -2.8960   27.3430   -7.3650 C.2   201  NAP201      0.2818
     40  O7N       -3.5080   27.0450   -6.3600 O.2   201  NAP201     -0.2670
     41  N7N       -3.3210   26.9550   -8.6700 N.am  201  NAP201     -0.0839
     42  C4N       -1.2930   28.8090   -5.8900 C.3   201  NAP201      0.0597
     43  C5N       -0.4390   30.0930   -6.0080 C.2   201  NAP201     -0.0051
     44  C6N        0.2500   30.4500   -7.3250 C.2   201  NAP201      0.0630
     45  P2B       12.7660   36.2650   -4.9140 P.3   201  NAP201      0.5328
     46  O1X       13.2130   35.8690   -6.3570 O.2   201  NAP201     -0.2224
     47  O2X       12.1580   37.7080   -4.9780 O.3   201  NAP201     -0.1145
     48  O3X       13.8750   36.1310   -3.9020 O.3   201  NAP201     -0.1145
@<TRIPOS>BOND
     1    32    31    1
     2    31    33    1
     3    31    29    1
     4    34    33    1
     5    33    35    1
     6    29    28    1
     7    29    30    1
     8    25    24    2
     9    28    27    1
    10    35    30    1
    11    35    36    1
    12    27    24    1
    13    24    26    1
    14    24    23    1
    15    41    39   am
    16    37    36    1
    17    37    38    2
    18    36    44    1
    19    23     1    1
    20    39    38    1
    21    39    40    2
    22    44    43    2
    23    38    42    1
    24     9     8    1
    25     1     3    2
    26     1     4    1
    27     1     2    1
    28     5     4    1
    29     5     6    1
    30    46    45    2
    31    43    42    1
    32     8     6    1
    33     8    10    1
    34     6     7    1
    35    47    45    1
    36    45    11    1
    37    45    48    1
    38    10    11    1
    39    10    12    1
    40     7    12    1
    41    12    13    1
    42    14    13    1
    43    14    15    1
    44    13    22    1
    45    15    16    2
    46    22    21    2
    47    22    16    1
    48    21    20    1
    49    16    17    1
    50    20    19    1
    51    17    19    2
    52    17    18    1
