@<TRIPOS>MOLECULE
4fgg_0U5_A_1.pdb
 40 43 0 0 0
SMALL
GASTEIGER

@<TRIPOS>ATOM
      1  N01       -3.3500   28.6590   -3.0040 N.pl3 200  0U5200     -0.0920
      2  C02       -4.5490   28.6720   -3.8260 C.2   200  0U5200      0.2349
      3  C03       -4.8370   29.7350   -4.7360 C.2   200  0U5200      0.0743
      4  C04       -3.8080   30.8840   -4.7960 C.2   200  0U5200      0.0064
      5  C05       -4.1730   32.0860   -5.6860 C.ar  200  0U5200      0.0034
      6  C06       -3.4390   32.3470   -6.8600 C.ar  200  0U5200      0.0400
      7  C07       -3.7800   33.4440   -7.6650 C.ar  200  0U5200      0.1724
      8  O08       -3.0530   33.6790   -8.8280 O.3   200  0U5200     -0.4684
      9  C09       -1.7440   33.2070   -8.9420 C.3   200  0U5200      0.2526
     10  C10       -4.8420   34.2760   -7.2810 C.ar  200  0U5200      0.1723
     11  O11       -5.2270   35.3680   -8.0420 O.3   200  0U5200     -0.4684
     12  C12       -6.3480   35.2370   -8.8760 C.3   200  0U5200      0.2526
     13  C13       -5.5670   34.0180   -6.0980 C.ar  200  0U5200      0.0372
     14  C14       -6.7330   34.9510   -5.7260 C.2   200  0U5200      0.0078
     15  C15       -6.8550   35.6080   -4.4980 C.2   200  0U5200      0.0594
     16  C16       -8.1290   36.4520   -4.2750 C.2   200  0U5200      0.2636
     17  N17       -8.8020   36.4250   -3.0030 N.am  200  0U5200     -0.2008
     18  N18       -8.2460   35.6410   -2.0310 N.3   200  0U5200     -0.1227
     19  C19       -8.9180   35.5520   -0.7680 C.3   200  0U5200      0.1378
     20  C20      -10.0050   37.2120   -2.7720 C.3   200  0U5200      0.1155
     21  C21      -11.3030   36.4500   -3.1410 C.3   200  0U5200      0.0259
     22  C22      -12.4690   37.2410   -3.7530 C.3   200  0U5200      0.0020
     23  C23      -12.4920   37.9190   -5.0460 C.3   200  0U5200      0.0001
     24  C24      -10.1310   37.6440   -1.3400 C.ar  200  0U5200     -0.0053
     25  C25       -9.5930   36.8300   -0.3600 C.ar  200  0U5200     -0.0053
     26  C26       -9.6880   37.2060    1.0250 C.ar  200  0U5200     -0.0031
     27  C27      -10.3310   38.4060    1.3710 C.ar  200  0U5200     -0.0003
     28  C28      -10.8800   39.2370    0.3670 C.ar  200  0U5200     -0.0003
     29  C29      -10.7850   38.8680   -0.9890 C.ar  200  0U5200     -0.0029
     30  O30       -8.5570   37.1230   -5.1920 O.2   200  0U5200     -0.2686
     31  C31       -5.2320   32.9240   -5.3030 C.ar  200  0U5200      0.0032
     32  C32       -6.0500   29.5970   -5.5010 C.2   200  0U5200      0.1265
     33  N33       -6.8310   28.5020   -5.2980 N.2   200  0U5200     -0.3301
     34  C34       -6.5150   27.5420   -4.4180 C.1   200  0U5200      0.2424
     35  N35       -7.3880   26.4020   -4.2470 N.pl3 200  0U5200     -0.0232
     36  N36       -5.3800   27.6270   -3.6970 N.2   200  0U5200     -0.3072
     37  C37      -13.8530   36.9130   -3.1360 C.3   200  0U5200      0.0001
     38  C38       -6.6300   30.5840   -6.5290 C.3   200  0U5200      0.0601
     39  C39       -8.0650   31.0010   -6.2540 C.3   200  0U5200      0.0075
     40  C40       -8.7100   32.0720   -7.0920 C.3   200  0U5200      0.0004
@<TRIPOS>BOND
     1     9     8    1
     2    12    11    1
     3     8     7    1
     4    11    10    1
     5     7    10   ar
     6     7     6   ar
     7    10    13   ar
     8    40    39    1
     9     6     5   ar
    10    38    39    1
    11    38    32    1
    12    13    14    1
    13    13    31   ar
    14    14    15    2
    15     5    31   ar
    16     5     4    1
    17    32    33    2
    18    32     3    1
    19    33    34    2
    20    30    16    2
    21    23    22    1
    22     4     3    2
    23     3     2    1
    24    15    16    1
    25    34    35    1
    26    34    36    2
    27    16    17   am
    28     2    36    2
    29     2     1    1
    30    22    21    1
    31    22    37    1
    32    21    20    1
    33    17    20    1
    34    17    18    1
    35    20    24    1
    36    18    19    1
    37    24    29   ar
    38    24    25   ar
    39    29    28   ar
    40    19    25    1
    41    25    26   ar
    42    28    27   ar
    43    26    27   ar
