@<TRIPOS>MOLECULE
4fgh_NAP_A_1.pdb
 48 52 0 0 0
SMALL
GASTEIGER

@<TRIPOS>ATOM
      1  PA         6.6910   31.4180   -6.2160 P.3   201  NAP201      0.2189
      2  O1A        6.7860   30.0520   -5.4920 O.3   201  NAP201     -0.4371
      3  O2A        5.3290   32.0340   -6.0160 O.2   201  NAP201     -0.5170
      4  O5B        7.7180   32.3720   -5.5240 O.3   201  NAP201     -0.3112
      5  C5B        8.9010   32.7110   -6.1840 C.3   201  NAP201      0.1813
      6  C4B        9.8870   33.2750   -5.2120 C.3   201  NAP201      0.1820
      7  O4B        9.7020   33.0390   -3.7490 O.3   201  NAP201     -0.3136
      8  C3B       11.3610   33.1620   -5.4610 C.3   201  NAP201      0.2157
      9  O3B       11.9030   33.3660   -6.7030 O.3   201  NAP201     -0.2175
     10  C2B       11.8480   33.8670   -4.2720 C.3   201  NAP201      0.2314
     11  O2B       11.6850   35.2190   -4.2690 O.3   201  NAP201     -0.2630
     12  C1B       11.1090   33.0140   -3.2620 C.3   201  NAP201      0.3158
     13  N9A       11.5080   32.0050   -2.3310 N.pl3 201  NAP201     -0.1439
     14  C8A       11.1850   30.7130   -2.4410 C.3   201  NAP201      0.3377
     15  N7A       11.9080   30.0020   -1.4300 N.2   201  NAP201     -0.2095
     16  C5A       12.6920   30.9250   -0.7290 C.2   201  NAP201      0.2526
     17  C6A       13.5780   30.7830    0.3540 C.2   201  NAP201      0.4393
     18  N6A       13.8110   29.4980    0.9420 N.pl3 201  NAP201      0.2180
     19  N1A       14.1990   31.8540    0.8370 N.2   201  NAP201      0.0021
     20  C2A       13.9830   33.0960    0.2890 C.3   201  NAP201      0.5254
     21  N3A       13.1020   33.2420   -0.7810 N.2   201  NAP201     -0.0055
     22  C4A       12.4770   32.1600   -1.2630 C.2   201  NAP201      0.3518
     23  O3         7.0730   31.3050   -7.7660 O.3   201  NAP201     -0.2703
     24  PN         6.8000   30.0250   -8.6880 P.3   201  NAP201      0.2189
     25  O1N        7.4930   30.2810  -10.0700 O.2   201  NAP201     -0.5170
     26  O2N        7.3920   28.8070   -8.0350 O.3   201  NAP201     -0.4371
     27  O5D        5.2420   29.7920   -8.9280 O.3   201  NAP201     -0.3112
     28  C5D        4.5220   30.6420   -9.7820 C.3   201  NAP201      0.1813
     29  C4D        3.0950   30.2600  -10.1350 C.3   201  NAP201      0.1796
     30  O4D        2.2290   29.5840   -9.1510 O.3   201  NAP201     -0.3354
     31  C3D        2.1960   31.2070  -10.9330 C.3   201  NAP201      0.2155
     32  O3D        2.2360   31.1650  -12.3110 O.3   201  NAP201     -0.2176
     33  C2D        0.8760   31.2710  -10.2320 C.3   201  NAP201      0.2271
     34  O2D       -0.2750   31.6090  -10.9010 O.3   201  NAP201     -0.2161
     35  C1D        0.8550   30.0490   -9.3500 C.3   201  NAP201      0.2096
     36  N1N       -0.0930   29.7550   -8.3200 N.3   201  NAP201     -0.2482
     37  C2N       -1.2890   28.9370   -8.3800 C.3   201  NAP201      0.0834
     38  C3N       -1.7320   28.2100   -7.1100 C.3   201  NAP201      0.0959
     39  C7N       -2.9240   27.3470   -7.2000 C.2   201  NAP201      0.2616
     40  O7N       -3.4520   26.9580   -6.1710 O.2   201  NAP201     -0.2716
     41  N7N       -3.4180   26.9880   -8.4970 N.am  201  NAP201     -0.0878
     42  C4N       -1.1670   28.6250   -5.7300 C.3   201  NAP201      0.0120
     43  C5N       -0.3390   29.9330   -5.7710 C.3   201  NAP201      0.0179
     44  C6N        0.3420   30.3500   -7.0770 C.3   201  NAP201      0.0743
     45  P2B       12.8200   36.1810   -4.7630 P.3   201  NAP201      0.5328
     46  O1X       13.2640   35.8410   -6.2240 O.2   201  NAP201     -0.2224
     47  O2X       12.1830   37.6080   -4.7410 O.3   201  NAP201     -0.1145
     48  O3X       13.9830   36.0590   -3.7950 O.3   201  NAP201     -0.1145
@<TRIPOS>BOND
     1    32    31    1
     2    31    33    1
     3    31    29    1
     4    34    33    1
     5    33    35    1
     6    29    28    1
     7    29    30    1
     8    25    24    2
     9    28    27    1
    10    35    30    1
    11    35    36    1
    12    27    24    1
    13    24    26    1
    14    24    23    1
    15    41    39   am
    16    37    36    1
    17    37    38    1
    18    36    44    1
    19    23     1    1
    20    39    38    1
    21    39    40    2
    22    38    42    1
    23    44    43    1
    24     9     8    1
    25    46    45    2
    26     1     3    2
    27     1     4    1
    28     1     2    1
    29     5     4    1
    30     5     6    1
    31    43    42    1
    32     8     6    1
    33     8    10    1
    34     6     7    1
    35    45    47    1
    36    45    11    1
    37    45    48    1
    38    10    11    1
    39    10    12    1
    40     7    12    1
    41    12    13    1
    42    14    13    1
    43    14    15    1
    44    13    22    1
    45    15    16    2
    46    22    21    2
    47    22    16    1
    48    21    20    1
    49    16    17    1
    50    20    19    1
    51    17    19    2
    52    17    18    1
