@<TRIPOS>MOLECULE
4fgh_0U6_A_1.pdb
 39 42 0 0 0
SMALL
GASTEIGER

@<TRIPOS>ATOM
      1  N01       -3.3230   28.6040   -2.8470 N.pl3 202  0U6202     -0.0920
      2  C02       -4.4680   28.6250   -3.7000 C.2   202  0U6202      0.2349
      3  C03       -4.6770   29.6450   -4.6470 C.2   202  0U6202      0.0743
      4  C04       -3.6470   30.7550   -4.7470 C.2   202  0U6202      0.0064
      5  C05       -4.0580   31.9500   -5.5610 C.ar  202  0U6202      0.0034
      6  C06       -3.3150   32.2560   -6.6600 C.ar  202  0U6202      0.0400
      7  C07       -3.6590   33.3620   -7.4540 C.ar  202  0U6202      0.1724
      8  O08       -2.9110   33.6920   -8.6130 O.3   202  0U6202     -0.4684
      9  C09       -1.6690   33.0520   -8.8840 C.3   202  0U6202      0.2526
     10  C10       -4.7790   34.1490   -7.0930 C.ar  202  0U6202      0.1723
     11  O11       -5.1470   35.2770   -7.9010 O.3   202  0U6202     -0.4684
     12  C12       -6.2700   35.1950   -8.7190 C.3   202  0U6202      0.2526
     13  C13       -5.5290   33.8480   -5.9850 C.ar  202  0U6202      0.0372
     14  C14       -6.7780   34.7900   -5.6580 C.2   202  0U6202      0.0078
     15  C15       -7.1290   35.1470   -4.3880 C.2   202  0U6202      0.0594
     16  C16       -8.3940   35.9970   -4.2120 C.2   202  0U6202      0.2636
     17  N17       -9.2410   35.8610   -3.0640 N.am  202  0U6202     -0.2008
     18  N18       -8.9590   34.9840   -2.0540 N.3   202  0U6202     -0.1227
     19  C19       -8.9480   35.5600   -0.7370 C.3   202  0U6202      0.1378
     20  C20      -10.4190   36.6890   -2.9610 C.3   202  0U6202      0.1155
     21  C21      -11.6660   35.8570   -3.2850 C.3   202  0U6202      0.0259
     22  C22      -12.9060   36.5100   -3.9950 C.3   202  0U6202      0.0020
     23  C23      -12.8130   37.1680   -5.3040 C.3   202  0U6202      0.0001
     24  C24      -10.5520   37.3140   -1.6130 C.ar  202  0U6202     -0.0053
     25  C25       -9.8440   36.7760   -0.5420 C.ar  202  0U6202     -0.0053
     26  C26       -9.9630   37.3990    0.7950 C.ar  202  0U6202     -0.0031
     27  C27      -10.7680   38.5000    0.9790 C.ar  202  0U6202     -0.0003
     28  C28      -11.4930   39.0510   -0.1230 C.ar  202  0U6202     -0.0003
     29  C29      -11.3820   38.4570   -1.4230 C.ar  202  0U6202     -0.0029
     30  O30       -8.6750   36.7790   -5.0700 O.2   202  0U6202     -0.2686
     31  C31       -5.1960   32.7540   -5.1880 C.ar  202  0U6202      0.0032
     32  C32       -5.9040   29.5100   -5.4690 C.2   202  0U6202      0.1265
     33  N33       -6.7420   28.4710   -5.2600 N.2   202  0U6202     -0.3301
     34  C34       -6.4920   27.5470   -4.3450 C.1   202  0U6202      0.2424
     35  N35       -7.4210   26.4800   -4.1790 N.pl3 202  0U6202     -0.0232
     36  N36       -5.3570   27.6060   -3.5570 N.2   202  0U6202     -0.3072
     37  C37      -14.1870   36.1850   -3.3500 C.3   202  0U6202      0.0001
     38  C38       -6.3770   30.4600   -6.5360 C.3   202  0U6202      0.0602
     39  C39       -7.8670   30.9800   -6.3290 C.3   202  0U6202      0.0079
@<TRIPOS>BOND
     1     9     8    1
     2    12    11    1
     3     8     7    1
     4    11    10    1
     5     7    10   ar
     6     7     6   ar
     7    10    13   ar
     8     6     5   ar
     9    38    39    1
    10    38    32    1
    11    13    14    1
    12    13    31   ar
    13    14    15    2
    14     5    31   ar
    15     5     4    1
    16    32    33    2
    17    32     3    1
    18    23    22    1
    19    33    34    2
    20    30    16    2
    21     4     3    2
    22     3     2    1
    23    15    16    1
    24    34    35    1
    25    34    36    2
    26    16    17   am
    27    22    37    1
    28    22    21    1
    29     2    36    2
    30     2     1    1
    31    21    20    1
    32    17    20    1
    33    17    18    1
    34    20    24    1
    35    18    19    1
    36    24    29   ar
    37    24    25   ar
    38    29    28   ar
    39    19    25    1
    40    25    26   ar
    41    28    27   ar
    42    26    27   ar
