@<TRIPOS>MOLECULE
4fgt_III_D_1.pdb
 35 35 0 0 0
SMALL
GASTEIGER

@<TRIPOS>ATOM
      1  N         27.9040  -53.3130    9.5420 N.3    66  CYS66      -0.1221
      2  CA        28.5760  -52.3450   10.4670 C.3    66  CYS66       0.1808
      3  C         28.8290  -52.6450   11.9880 C.2    66  CYS66       0.2601
      4  O         29.0690  -51.6640   12.6840 O.2    66  CYS66      -0.2717
      5  CB        27.7350  -51.0890   10.5280 C.3    66  CYS66       0.0970
      6  SG        27.4590  -50.0620    9.1310 S.3    66  CYS66      -0.0800
      7  N         28.8660  -53.8460   12.5990 N.am   67  GLN67      -0.1965
      8  CA        28.9930  -55.1650   11.9930 C.3    67  GLN67       0.1733
      9  C         28.5320  -56.2700   12.9790 C.2    67  GLN67       0.2616
     10  O         28.2680  -55.9870   14.1420 O.2    67  GLN67      -0.2715
     11  CB        30.4650  -55.3880   11.6360 C.3    67  GLN67       0.0408
     12  CG        31.3390  -55.9430   12.7710 C.3    67  GLN67       0.0908
     13  CD        31.6210  -54.9370   13.8560 C.2    67  GLN67       0.2608
     14  OE1       31.0450  -53.8510   13.8870 O.2    67  GLN67      -0.2717
     15  NE2       32.5300  -55.2910   14.7540 N.am   67  GLN67      -0.0878
     16  N         28.5120  -57.5410   12.5440 N.am   68  LEU68      -0.1963
     17  CA        28.0250  -58.6660   13.4020 C.3    68  LEU68       0.1728
     18  C         28.4760  -58.5580   14.8540 C.2    68  LEU68       0.2616
     19  O         29.5830  -58.9950   15.1980 O.2    68  LEU68      -0.2715
     20  CB        28.2560  -60.0940   12.7940 C.3    68  LEU68       0.0311
     21  CG        29.3980  -60.6080   11.8970 C.3    68  LEU68       0.0022
     22  CD1       30.6130  -61.0850   12.7010 C.3    68  LEU68       0.0001
     23  CD2       28.8990  -61.7370   10.9860 C.3    68  LEU68       0.0001
     24  N         27.5980  -57.9640   15.6790 N.am   69  TYR69      -0.1974
     25  CA        27.9320  -57.4080   17.0140 C.3    69  TYR69       0.1639
     26  C         29.1500  -58.0190   17.7130 C.2    69  TYR69       0.2290
     27  O         30.2370  -57.4340   17.7190 O.2    69  TYR69      -0.2864
     28  CB        26.7220  -57.4380   17.9520 C.3    69  TYR69       0.0560
     29  CG        26.7530  -58.5670   18.9400 C.ar   69  TYR69      -0.0198
     30  CD1       26.8180  -58.3180   20.3130 C.ar   69  TYR69      -0.0009
     31  CD2       26.7510  -59.9020   18.5010 C.ar   69  TYR69      -0.0009
     32  CE1       26.8480  -59.3730   21.2230 C.ar   69  TYR69       0.0417
     33  CE2       26.7860  -60.9550   19.3960 C.ar   69  TYR69       0.0417
     34  CZ        26.8340  -60.6840   20.7480 C.ar   69  TYR69       0.1957
     35  OH        26.8690  -61.7430   21.6120 O.3    69  TYR69      -0.2866
@<TRIPOS>BOND
     1     6     5    1
     2     1     2    1
     3     2     5    1
     4     2     3    1
     5    23    21    1
     6    11     8    1
     7    11    12    1
     8    21    22    1
     9    21    20    1
    10     3     7   am
    11     3     4    2
    12     8     7    1
    13     8     9    1
    14    16     9   am
    15    16    17    1
    16    12    13    1
    17    20    17    1
    18     9    10    2
    19    17    18    1
    20    13    14    2
    21    13    15   am
    22    18    19    2
    23    18    24   am
    24    24    25    1
    25    25    26    1
    26    25    28    1
    27    26    27    2
    28    28    29    1
    29    31    29   ar
    30    31    33   ar
    31    29    30   ar
    32    33    34   ar
    33    30    32   ar
    34    34    32   ar
    35    34    35    1
