@<TRIPOS>MOLECULE
4fgz_SAH_A_1.pdb
 26 28 0 0 0
SMALL
GASTEIGER

@<TRIPOS>ATOM
      1  N         23.9560   27.1310   16.8890 N.3   303  SAH303     -0.1208
      2  CA        24.1540   28.5420   16.4890 C.3   303  SAH303      0.1952
      3  CB        22.7700   29.2230   16.1360 C.3   303  SAH303      0.0422
      4  CG        21.8280   29.4620   17.3360 C.3   303  SAH303      0.0597
      5  SD        20.1950   30.1360   16.8850 S.3   303  SAH303     -0.1375
      6  C         24.8970   29.2600   17.5450 C.2   303  SAH303      0.3819
      7  O         25.2530   30.4050   17.3400 O.co2 303  SAH303     -0.2441
      8  OXT       24.9410   28.7840   18.6740 O.co2 303  SAH303     -0.2441
      9  C5'       19.2510   28.7560   16.1740 C.3   303  SAH303      0.0899
     10  C4'       19.4130   28.4170   14.7960 C.3   303  SAH303      0.1630
     11  O4'       18.6210   27.2270   14.5140 O.3   303  SAH303     -0.3153
     12  C3'       18.8750   29.4920   13.9390 C.3   303  SAH303      0.2168
     13  O3'       19.9150   29.9650   13.1030 O.3   303  SAH303     -0.2175
     14  C2'       17.7590   28.8760   13.1830 C.3   303  SAH303      0.2569
     15  O2'       17.7000   29.2940   11.8390 O.3   303  SAH303     -0.2130
     16  C1'       18.0360   27.4120   13.2620 C.3   303  SAH303      0.3185
     17  N9        16.8280   26.5420   13.0090 N.pl3 303  SAH303     -0.1439
     18  C8        15.6090   26.6230   13.5920 C.3   303  SAH303      0.3377
     19  N7        14.8680   25.6230   13.1100 N.2   303  SAH303     -0.2095
     20  C5        15.5930   24.9180   12.2140 C.2   303  SAH303      0.2526
     21  C6        15.3250   23.7940   11.4000 C.2   303  SAH303      0.4393
     22  N6        14.0970   23.1860   11.4120 N.pl3 303  SAH303      0.2180
     23  N1        16.2900   23.3150   10.5920 N.2   303  SAH303      0.0021
     24  C2        17.4970   23.8900   10.5680 C.3   303  SAH303      0.5254
     25  N3        17.7920   24.9760   11.3240 N.2   303  SAH303     -0.0055
     26  C4        16.8680   25.5020   12.1560 C.2   303  SAH303      0.3518
@<TRIPOS>BOND
     1    24    23    1
     2    24    25    1
     3    23    21    2
     4    25    26    2
     5    21    22    1
     6    21    20    1
     7    15    14    1
     8    26    20    1
     9    26    17    1
    10    20    19    2
    11    17    16    1
    12    17    18    1
    13    13    12    1
    14    19    18    1
    15    14    16    1
    16    14    12    1
    17    16    11    1
    18    12    10    1
    19    11    10    1
    20    10     9    1
    21     3     2    1
    22     3     4    1
    23     9     5    1
    24     2     1    1
    25     2     6    1
    26     5     4    1
    27     7     6   ar
    28     6     8   ar
