@<TRIPOS>MOLECULE
4fgz_CQA_A_1.pdb
 25 27 0 0 0
SMALL
GASTEIGER

@<TRIPOS>ATOM
      1  C1        34.8920   33.0530   33.7470 C.2   301  CQA301      0.0414
      2  C2        34.6940   34.3690   33.2220 C.2   301  CQA301      0.0075
      3  C3        33.9390   34.5470   32.0610 C.2   301  CQA301      0.0032
      4  C4        33.3960   33.3950   31.4040 C.2   301  CQA301      0.0316
      5  C5        33.6020   32.1170   31.8980 C.2   301  CQA301      0.0657
      6  C6        34.3510   31.9400   33.0920 C.3   301  CQA301      0.0837
      7  C7        32.6200   33.5560   30.2110 C.2   301  CQA301      0.0839
      8  C8        32.0730   32.4050   29.5670 C.2   301  CQA301      0.0397
      9  C9        32.2990   31.1280   30.1170 C.2   301  CQA301      0.1000
     10  N1        33.0530   31.0080   31.2360 N.2   301  CQA301     -0.2477
     11 CL         35.8210   32.8670   35.2060 Cl    301  CQA301     -0.0865
     12  N2        32.4120   34.9200   29.6910 N.2   301  CQA301     -0.2453
     13  C10       31.4130   35.1600   28.6460 C.ar  301  CQA301      0.0812
     14  C11       30.0470   34.8890   28.9370 C.ar  301  CQA301      0.0224
     15  C12       29.0820   35.1210   27.9460 C.ar  301  CQA301      0.0433
     16  C13       29.4770   35.6250   26.6860 C.ar  301  CQA301      0.1931
     17  C14       30.8260   35.8970   26.4040 C.ar  301  CQA301      0.0343
     18  C15       31.8140   35.6660   27.4080 C.ar  301  CQA301      0.0194
     19  O         28.5280   35.8590   25.6890 O.3   301  CQA301     -0.2869
     20  C16       31.1970   36.4520   25.0140 C.3   301  CQA301      0.1024
     21  N3        31.3150   37.9300   24.8780 N.3   301  CQA301     -0.2689
     22  C17       30.3750   38.6930   25.6870 C.3   301  CQA301      0.0724
     23  C18       30.9470   39.3960   26.8730 C.3   301  CQA301      0.0188
     24  C19       31.4210   38.4360   23.4950 C.3   301  CQA301      0.0724
     25  C20       30.9920   39.8530   23.2100 C.3   301  CQA301      0.0188
@<TRIPOS>BOND
     1    25    24    1
     2    24    21    1
     3    21    20    1
     4    21    22    1
     5    20    17    1
     6    22    23    1
     7    19    16    1
     8    17    16   ar
     9    17    18   ar
    10    16    15   ar
    11    18    13   ar
    12    15    14   ar
    13    13    14   ar
    14    13    12    1
    15     8     9    2
    16     8     7    1
    17    12     7    2
    18     9    10    1
    19     7     4    1
    20    10     5    2
    21     4     5    1
    22     4     3    2
    23     5     6    1
    24     3     2    1
    25     6     1    1
    26     2     1    2
    27     1    11    1
