@<TRIPOS>MOLECULE
4fh2_0RN_A_1.pdb
 15 16 0 0 0
SMALL
GASTEIGER

@<TRIPOS>ATOM
      1  CG2       10.6240   34.2060    0.3590 C.3   303  0RN303      0.0260
      2  CB        10.5580   35.1840    1.5530 C.3   303  0RN303      0.1395
      3  CG1       11.6830   36.2270    1.4980 C.3   303  0RN303      0.0260
      4  SAO        8.9460   36.0340    1.5710 S.O2  303  0RN303      0.0051
      5  OAE        8.9940   37.2440    2.4710 O.2   303  0RN303     -0.1715
      6  OAF        8.4610   36.3840    0.1860 O.2   303  0RN303     -0.1715
      7  CAK        8.0230   34.6820    2.3480 C.3   303  0RN303      0.2153
      8  CAH        7.2610   35.1210    3.5780 C.3   303  0RN303      0.1296
      9  CAJ        8.4170   34.5070    4.3660 C.2   303  0RN303      0.2307
     10  OAD        8.6450   34.3970    5.5730 O.2   303  0RN303     -0.2747
     11  N          9.0590   34.1070    3.2480 N.am  303  0RN303     -0.2517
     12  CA        10.4910   34.4790    2.9430 C.3   303  0RN303      0.2005
     13  C         11.4240   33.2540    3.0150 C.2   303  0RN303      0.3842
     14  OXT       10.9000   32.1190    3.0010 O.co2 303  0RN303     -0.2438
     15  O         12.6580   33.4770    3.1020 O.co2 303  0RN303     -0.2438
@<TRIPOS>BOND
     1     6     4    2
     2     1     2    1
     3     3     2    1
     4     2     4    1
     5     2    12    1
     6     4     7    1
     7     4     5    2
     8     7    11    1
     9     7     8    1
    10    12    13    1
    11    12    11    1
    12    14    13   ar
    13    13    15   ar
    14    11     9   am
    15     8     9    1
    16     9    10    2
