@<TRIPOS>MOLECULE
4fh2_MA4_A_1.pdb
 35 37 0 0 0
SMALL
GASTEIGER

@<TRIPOS>ATOM
      1  C1        35.2200   25.1930    2.5640 C.3   301  MA4301      0.2695
      2  C2        35.8380   24.6230    1.2880 C.3   301  MA4301      0.2406
      3  C3        35.4650   23.1550    1.1090 C.3   301  MA4301      0.2198
      4  C4        35.7980   22.3340    2.3660 C.3   301  MA4301      0.2144
      5  C5        35.2550   23.0020    3.6600 C.3   301  MA4301      0.1835
      6  C6        35.7570   22.3440    4.9560 C.3   301  MA4301      0.2142
      7  O2        35.3520   25.3450    0.1610 O.3   301  MA4301     -0.2149
      8  O3        36.1560   22.6410   -0.0340 O.3   301  MA4301     -0.2174
      9  O5        35.6210   24.4130    3.7310 O.3   301  MA4301     -0.3256
     10  O6        37.1810   22.5080    5.0690 O.3   301  MA4301     -0.2176
     11  O1        33.7730   25.1980    2.3920 O.3   301  MA4301     -0.3257
     12  O4        35.2550   21.0170    2.2210 O.3   301  MA4301     -0.2176
     13  C10       30.6490   27.8520    2.7680 C.3   301  MA4301      0.2695
     14  C20       31.5050   28.0610    1.5200 C.3   301  MA4301      0.2404
     15  C30       32.4000   26.8330    1.2910 C.3   301  MA4301      0.2167
     16  C40       33.2020   26.4920    2.5580 C.3   301  MA4301      0.1804
     17  C50       32.3140   26.4230    3.8110 C.3   301  MA4301      0.1803
     18  C60       33.1120   26.3200    5.1270 C.3   301  MA4301      0.2141
     19  O10       29.9080   29.0700    2.9870 O.3   301  MA4301     -0.3286
     20  O20       30.6710   28.3000    0.3800 O.3   301  MA4301     -0.2149
     21  O30       33.2960   27.0690    0.2010 O.3   301  MA4301     -0.2175
     22  O50       31.4910   27.6130    3.9070 O.3   301  MA4301     -0.3257
     23  O60       34.0390   27.4180    5.2430 O.3   301  MA4301     -0.2176
     24  C11       28.8240   28.8230    3.9040 C.3   301  MA4301      0.1449
     25  C21       27.5330   28.5490    3.1470 C.3   301  MA4301      0.0322
     26  C31       26.6020   27.7100    4.0100 C.3   301  MA4301      0.0026
     27  C41       25.1540   27.9450    3.5980 C.3   301  MA4301      0.0001
     28  C51       24.3390   28.5550    4.7360 C.3   301  MA4301      0.0000
     29  C61       24.1340   27.5520    5.8720 C.3   301  MA4301      0.0000
     30  C12       22.6900   27.5960    6.3640 C.3   301  MA4301      0.0000
     31  C22       22.6000   28.2420    7.7640 C.3   301  MA4301      0.0000
     32  C32       23.0330   27.3050    8.9090 C.3   301  MA4301      0.0000
     33  C42       22.3340   25.9440    8.8320 C.3   301  MA4301      0.0000
     34  C52       22.6070   25.2880    7.4850 C.3   301  MA4301      0.0000
     35  C62       22.0960   26.1730    6.3410 C.3   301  MA4301      0.0000
@<TRIPOS>BOND
     1     8     3    1
     2     7     2    1
     3    21    15    1
     4    20    14    1
     5     3     2    1
     6     3     4    1
     7     2     1    1
     8    15    14    1
     9    15    16    1
    10    14    13    1
    11    12     4    1
    12     4     5    1
    13    11    16    1
    14    11     1    1
    15    16    17    1
    16     1     9    1
    17    13    19    1
    18    13    22    1
    19    19    24    1
    20    25    24    1
    21    25    26    1
    22    27    26    1
    23    27    28    1
    24     5     9    1
    25     5     6    1
    26    17    22    1
    27    17    18    1
    28    28    29    1
    29     6    10    1
    30    18    23    1
    31    29    30    1
    32    35    30    1
    33    35    34    1
    34    30    31    1
    35    34    33    1
    36    31    32    1
    37    33    32    1
