@<TRIPOS>MOLECULE
4fh4_MA4_A_1.pdb
 35 37 0 0 0
SMALL
GASTEIGER

@<TRIPOS>ATOM
      1  C1        35.9730   25.1500    2.3380 C.3   301  MA4301      0.2695
      2  C2        36.5440   24.5080    1.0940 C.3   301  MA4301      0.2406
      3  C3        36.1550   23.0690    0.9930 C.3   301  MA4301      0.2198
      4  C4        36.4660   22.3510    2.2870 C.3   301  MA4301      0.2144
      5  C5        35.9260   23.0890    3.5200 C.3   301  MA4301      0.1835
      6  C6        36.3550   22.4930    4.8270 C.3   301  MA4301      0.2142
      7  O2        35.9840   25.1870    0.0000 O.3   301  MA4301     -0.2149
      8  O3        36.8730   22.4770   -0.1000 O.3   301  MA4301     -0.2174
      9  O5        36.3030   24.4490    3.5630 O.3   301  MA4301     -0.3256
     10  O6        37.7930   22.4170    4.9140 O.3   301  MA4301     -0.2176
     11  O1        34.4820   25.1810    2.2130 O.3   301  MA4301     -0.3257
     12  O4        35.9010   21.0980    2.2620 O.3   301  MA4301     -0.2176
     13  C10       31.2660   27.5850    2.6670 C.3   301  MA4301      0.2695
     14  C20       32.0410   27.8000    1.3960 C.3   301  MA4301      0.2404
     15  C30       32.9400   26.6130    1.1790 C.3   301  MA4301      0.2167
     16  C40       33.7850   26.3870    2.4170 C.3   301  MA4301      0.1804
     17  C50       32.9490   26.3100    3.6640 C.3   301  MA4301      0.1803
     18  C60       33.7760   26.2270    4.9370 C.3   301  MA4301      0.2141
     19  O10       30.4670   28.7380    2.8880 O.3   301  MA4301     -0.3286
     20  O20       31.2010   28.0620    0.2910 O.3   301  MA4301     -0.2149
     21  O30       33.7630   26.8630    0.0550 O.3   301  MA4301     -0.2175
     22  O50       32.1480   27.4570    3.7800 O.3   301  MA4301     -0.3257
     23  O60       34.6940   27.3040    4.9310 O.3   301  MA4301     -0.2176
     24  C11       29.4720   28.4700    3.8910 C.3   301  MA4301      0.1449
     25  C21       28.1490   28.0130    3.2850 C.3   301  MA4301      0.0322
     26  C31       27.1830   27.5850    4.3420 C.3   301  MA4301      0.0026
     27  C41       25.8890   26.9990    3.8230 C.3   301  MA4301      0.0001
     28  C51       25.1620   26.2800    5.0030 C.3   301  MA4301      0.0003
     29  C61       24.4650   27.3120    5.8980 C.3   301  MA4301      0.0043
     30  C12       23.2390   26.9430    6.7040 C.3   301  MA4301      0.0217
     31  C22       23.2040   27.8600    7.9310 C.2   301  MA4301     -0.0310
     32  C32       22.4790   27.3620    9.1740 C.2   301  MA4301     -0.0307
     33  C42       21.6310   26.1430    9.0050 C.3   301  MA4301      0.0257
     34  C52       22.4370   25.0620    8.3150 C.3   301  MA4301      0.0050
     35  C62       23.0380   25.4600    6.9940 C.3   301  MA4301      0.0047
@<TRIPOS>BOND
     1     8     3    1
     2     7     2    1
     3    21    15    1
     4    20    14    1
     5     3     2    1
     6     3     4    1
     7     2     1    1
     8    15    14    1
     9    15    16    1
    10    14    13    1
    11    11     1    1
    12    11    16    1
    13    12     4    1
    14     4     5    1
    15     1     9    1
    16    16    17    1
    17    13    19    1
    18    13    22    1
    19    19    24    1
    20    25    24    1
    21    25    26    1
    22     5     9    1
    23     5     6    1
    24    17    22    1
    25    17    18    1
    26    27    26    1
    27    27    28    1
    28     6    10    1
    29    23    18    1
    30    28    29    1
    31    29    30    1
    32    30    35    1
    33    30    31    1
    34    35    34    1
    35    31    32    2
    36    34    33    1
    37    33    32    1
