@<TRIPOS>MOLECULE
4fh5_UTP_A_1.pdb
 29 30 0 0 0
SMALL
GASTEIGER

@<TRIPOS>ATOM
      1  PA       -14.4300    4.3880   -6.0450 P.3   401  UTP401      0.2189
      2  O1A      -14.2680    5.7450   -6.5910 O.2   401  UTP401     -0.5170
      3  O2A      -14.0260    4.1980   -4.6050 O.3   401  UTP401     -0.4371
      4  O3A      -13.7150    3.3170   -6.9780 O.3   401  UTP401     -0.2700
      5  O5'      -15.9430    3.9170   -6.2410 O.3   401  UTP401     -0.3112
      6  PB       -12.4520    2.4800   -6.4690 P.3   401  UTP401      0.2277
      7  O1B      -12.8790    1.3950   -5.5710 O.3   401  UTP401     -0.4368
      8  O2B      -11.8150    1.9180   -7.6910 O.2   401  UTP401     -0.5168
      9  O3B      -11.5550    3.4860   -5.8650 O.3   401  UTP401     -0.2258
     10  PG       -10.7000    3.2610   -4.5380 P.3   401  UTP401      0.5373
     11  O1G      -11.7990    3.1320   -3.4990 O.3   401  UTP401     -0.1143
     12  O2G       -9.9580    2.0180   -4.9240 O.2   401  UTP401     -0.2221
     13  O3G       -9.8660    4.5120   -4.4190 O.3   401  UTP401     -0.1143
     14  C5'      -16.2710    2.6020   -5.8350 C.3   401  UTP401      0.1813
     15  C4'      -17.4500    2.0880   -6.6440 C.3   401  UTP401      0.1799
     16  O4'      -18.5740    2.9530   -6.5170 O.3   401  UTP401     -0.3320
     17  C1'      -19.3300    2.9690   -7.7100 C.3   401  UTP401      0.2401
     18  C2'      -18.6200    1.9960   -8.6460 C.3   401  UTP401      0.2319
     19  O2'      -19.1350    0.6780   -8.4770 O.3   401  UTP401     -0.2157
     20  C3'      -17.1990    2.0530   -8.1430 C.3   401  UTP401      0.2158
     21  O3'      -16.4330    0.9470   -8.5480 O.3   401  UTP401     -0.2175
     22  N1       -19.3800    4.3530   -8.2570 N.am  401  UTP401     -0.1766
     23  C6       -18.5570    5.3680   -7.7780 C.2   401  UTP401      0.0929
     24  C2       -20.3830    4.6830   -9.1590 C.1   401  UTP401      0.2845
     25  O2       -21.2210    3.8510   -9.5180 O.2   401  UTP401     -0.1918
     26  N3       -20.4540    5.9530   -9.6860 N.2   401  UTP401     -0.2452
     27  C4       -19.5550    6.9260   -9.3220 C.1   401  UTP401      0.2182
     28  O4       -19.6860    8.0420   -9.8230 O.2   401  UTP401     -0.2085
     29  C5       -18.5390    6.6240   -8.4030 C.2   401  UTP401      0.1242
@<TRIPOS>BOND
     1    28    27    2
     2    26    27    2
     3    26    24    2
     4    25    24    2
     5    27    29    1
     6    24    22   am
     7    18    19    1
     8    18    20    1
     9    18    17    1
    10    21    20    1
    11    29    23    2
    12    22    23    1
    13    22    17    1
    14    20    15    1
    15    17    16    1
    16     8     6    2
    17     4     6    1
    18     4     1    1
    19    15    16    1
    20    15    14    1
    21     2     1    2
    22     6     9    1
    23     6     7    1
    24     5     1    1
    25     5    14    1
    26     1     3    1
    27     9    10    1
    28    12    10    2
    29    10    13    1
    30    10    11    1
