@<TRIPOS>MOLECULE
4fhc_EEM_A_1.pdb
 27 28 0 0 0
SMALL
GASTEIGER

@<TRIPOS>ATOM
      1  C2        -0.2340   33.9620  -44.4640 C.3   402  EEM402      0.0000
      2  N3        -0.5520   33.7920  -45.7940 N.2   402  EEM402      0.5000
      3  C4         0.1550   32.9240  -46.5540 C.2   402  EEM402      0.0000
      4  C1'       -0.9630   33.1520  -48.7750 C.3   402  EEM402      0.0000
      5  C2'       -0.4510   33.3490  -50.1930 C.3   402  EEM402      0.0000
      6  C3'       -1.7250   33.2270  -51.0040 C.3   402  EEM402      0.0000
      7  C4'       -2.6420   32.3400  -50.1620 C.3   402  EEM402      0.0000
      8  C5'       -2.8000   30.9070  -50.6790 C.3   402  EEM402      0.0000
      9  O          0.2700   32.1640  -53.8610 O.co2 402  EEM402      0.0000
     10  C         -0.8100   31.9660  -54.4260 C.2   402  EEM402      0.0000
     11  OXT       -1.5840   32.9140  -54.5560 O.co2 402  EEM402      0.0000
     12  CA        -1.1790   30.5820  -54.9510 C.3   402  EEM402      0.0000
     13  N          0.0350   29.7190  -55.0250 N.3   402  EEM402      0.0000
     14  CB        -2.2750   29.9560  -54.0830 C.3   402  EEM402      0.0000
     15  CG        -1.8100   29.0980  -52.9090 C.3   402  EEM402      0.0000
     16 SE         -1.1550   30.1380  -51.3960 Se    402  EEM402      0.0000
     17  CE        -0.6840   28.7160  -50.1570 C.3   402  EEM402      0.0000
     18  O4'       -2.0860   32.2970  -48.8630 O.3   402  EEM402      0.0000
     19  O3'       -2.2980   34.4980  -51.2070 O.3   402  EEM402      0.0000
     20  O2'        0.2060   34.5860  -50.3490 O.3   402  EEM402      0.0000
     21  N9         0.0470   32.5800  -47.8680 N.pl3 402  EEM402      0.5000
     22  C8         1.0120   31.6440  -48.1400 C.3   402  EEM402      0.0000
     23  N7         1.7090   31.4230  -47.0030 N.2   402  EEM402      0.0000
     24  C5         1.2040   32.1920  -46.0180 C.2   402  EEM402      0.0000
     25  N1         0.8090   33.2420  -43.9120 N.2   402  EEM402      0.5000
     26  C6         1.5370   32.3550  -44.6780 C.2   402  EEM402      0.0000
     27  N6         2.5370   31.6680  -44.1340 N.pl3 402  EEM402      0.5000
@<TRIPOS>BOND
     1    13    12    1
     2    12    10    1
     3    12    14    1
     4    11    10   ar
     5    10     9   ar
     6    14    15    1
     7    15    16    1
     8    16    17    1
     9    19     6    1
    10     6     5    1
    11     6     7    1
    12     8     7    1
    13    20     5    1
    14     5     4    1
    15     7    18    1
    16    18     4    1
    17     4    21    1
    18    22    21    1
    19    22    23    1
    20    21     3    1
    21    23    24    2
    22     3    24    1
    23     3     2    2
    24    24    26    1
    25     2     1    1
    26    26    27    1
    27    26    25    2
    28     1    25    1
