@<TRIPOS>MOLECULE
4fhd_EEM_A_1.pdb
 27 28 0 0 0
SMALL
GASTEIGER

@<TRIPOS>ATOM
      1  C2       -26.8950   -6.9330   24.7600 C.3   402  EEM402      0.0000
      2  N3       -26.6110   -6.5910   23.4600 N.2   402  EEM402      0.5000
      3  C4       -27.3450   -5.6200   22.8530 C.2   402  EEM402      0.0000
      4  C1'      -26.3000   -5.5450   20.6060 C.3   402  EEM402      0.0000
      5  C2'      -26.8300   -5.6000   19.1890 C.3   402  EEM402      0.0000
      6  C3'      -25.5310   -5.4470   18.4310 C.3   402  EEM402      0.0000
      7  C4'      -24.6380   -4.5870   19.3240 C.3   402  EEM402      0.0000
      8  C5'      -24.4660   -3.1070   18.9340 C.3   402  EEM402      0.0000
      9  O        -27.4790   -3.8290   15.8490 O.co2 402  EEM402      0.0000
     10  C        -26.3790   -3.5860   15.3310 C.2   402  EEM402      0.0000
     11  OXT      -25.5960   -4.5070   15.1350 O.co2 402  EEM402      0.0000
     12  CA       -26.0070   -2.1660   14.9080 C.3   402  EEM402      0.0000
     13  N        -27.2370   -1.3450   14.8180 N.3   402  EEM402      0.0000
     14  CB       -24.9650   -1.5590   15.8410 C.3   402  EEM402      0.0000
     15  CG       -25.4660   -0.9330   17.1270 C.3   402  EEM402      0.0000
     16 SE        -26.1240   -2.1930   18.4670 Se    402  EEM402      0.0000
     17  CE       -26.6120   -0.8510   19.7780 C.3   402  EEM402      0.0000
     18  O4'      -25.2250   -4.6330   20.6070 O.3   402  EEM402      0.0000
     19  O3'      -24.9520   -6.7210   18.2470 O.3   402  EEM402      0.0000
     20  O2'      -27.5350   -6.8030   18.9190 O.3   402  EEM402      0.0000
     21  N9       -27.2830   -5.1090   21.5970 N.pl3 402  EEM402      0.5000
     22  C8       -28.2460   -4.1440   21.4760 C.3   402  EEM402      0.0000
     23  N7       -28.9050   -4.0830   22.6410 N.2   402  EEM402      0.0000
     24  C5       -28.3790   -4.9710   23.5130 C.2   402  EEM402      0.0000
     25  N1       -27.9140   -6.3100   25.4350 N.2   402  EEM402      0.5000
     26  C6       -28.6680   -5.3230   24.8350 C.2   402  EEM402      0.0000
     27  N6       -29.6420   -4.7390   25.5350 N.pl3 402  EEM402      0.5000
@<TRIPOS>BOND
     1    13    12    1
     2    12    10    1
     3    12    14    1
     4    11    10   ar
     5    10     9   ar
     6    14    15    1
     7    19     6    1
     8     6     5    1
     9     6     7    1
    10    16     8    1
    11    16    17    1
    12    20     5    1
    13     8     7    1
    14     5     4    1
    15     7    18    1
    16     4    18    1
    17     4    21    1
    18    22    21    1
    19    22    23    1
    20    21     3    1
    21    23    24    2
    22     3     2    2
    23     3    24    1
    24     2     1    1
    25    24    26    1
    26     1    25    1
    27    26    25    2
    28    26    27    1
