@<TRIPOS>MOLECULE
4fhd_0TT_A_1.pdb
 34 37 0 0 0
SMALL
GASTEIGER

@<TRIPOS>ATOM
      1  O8       -19.4600   -3.9460   26.4910 O.3   408  0TT408     -0.2176
      2  C6       -19.7610   -2.5740   26.7420 C.3   408  0TT408      0.2141
      3  C5       -21.0940   -2.1970   26.1430 C.3   408  0TT408      0.1802
      4  O7       -20.9070   -2.0350   24.7230 O.3   408  0TT408     -0.3341
      5  C4       -22.2150   -3.2360   26.3110 C.3   408  0TT408      0.1858
      6  O9       -23.4570   -2.5250   26.4290 O.3   408  0TT408     -0.2203
      7  C3       -22.0720   -4.0390   25.0490 C.3   408  0TT408      0.0871
      8  C2       -21.7410   -2.9490   24.0050 C.3   408  0TT408      0.2048
      9  N3       -21.0180   -3.3320   22.7810 N.am  408  0TT408     -0.2018
     10  CJ       -21.5210   -2.9280   21.4550 C.3   408  0TT408      0.1228
     11  CK       -19.8610   -4.0790   22.8900 C.1   408  0TT408      0.2802
     12  O5       -19.3640   -4.4740   23.9440 O.2   408  0TT408     -0.1922
     13  N4       -19.1980   -4.3600   21.6960 N.2   408  0TT408     -0.2497
     14  CL       -19.2890   -3.6310   20.5350 C.1   408  0TT408      0.1921
     15  O6       -18.6260   -3.9570   19.5690 O.2   408  0TT408     -0.2134
     16  CI       -20.4120   -2.5950   20.4400 C.3   408  0TT408      0.1287
     17  C1       -20.9810   -2.6950   19.0080 C.3   408  0TT408      0.0198
     18  CH       -19.8890   -1.1240   20.5950 C.3   408  0TT408      0.0589
     19  CF       -19.7080   -0.5310   21.9580 C.2   408  0TT408      0.0899
     20  CE       -20.6000    0.3380   22.4950 C.2   408  0TT408      0.0877
     21  CG       -18.5400   -0.9000   22.7460 C.1   408  0TT408      0.2134
     22  O4       -17.6750   -1.6820   22.3890 O.2   408  0TT408     -0.2088
     23  N2       -18.4540   -0.3050   23.9860 N.2   408  0TT408     -0.2455
     24  CB       -19.3430    0.5820   24.5390 C.1   408  0TT408      0.2844
     25  O3       -19.1520    1.0420   25.6660 O.2   408  0TT408     -0.1918
     26  N1       -20.4390    0.9140   23.7650 N.am  408  0TT408     -0.1794
     27  CD       -21.3960    1.8590   24.3870 C.3   408  0TT408      0.2090
     28  OB       -22.2900    0.9930   25.0690 O.3   408  0TT408     -0.3338
     29  CM       -22.2830    2.7030   23.5200 C.3   408  0TT408      0.0874
     30  CA       -23.4480    2.9530   24.5070 C.3   408  0TT408      0.1858
     31  O1       -23.3330    4.2450   25.0790 O.3   408  0TT408     -0.2203
     32  C9       -23.3790    1.7930   25.5320 C.3   408  0TT408      0.1802
     33  C8       -24.5730    0.9000   25.6890 C.3   408  0TT408      0.2141
     34  OA       -24.3650    0.0890   26.8680 O.3   408  0TT408     -0.2176
@<TRIPOS>BOND
     1    17    16    1
     2    15    14    2
     3    16    14    1
     4    16    18    1
     5    16    10    1
     6    14    13    2
     7    18    19    1
     8    10     9    1
     9    13    11    2
    10    19    20    2
    11    19    21    1
    12    22    21    2
    13    20    26    1
    14    21    23    2
    15     9    11   am
    16     9     8    1
    17    11    12    2
    18    29    27    1
    19    29    30    1
    20    26    27    1
    21    26    24   am
    22    23    24    2
    23     8     4    1
    24     8     7    1
    25    27    28    1
    26    30    31    1
    27    30    32    1
    28    24    25    2
    29     4     3    1
    30     7     5    1
    31    28    32    1
    32    32    33    1
    33    33    34    1
    34     3     5    1
    35     3     2    1
    36     5     6    1
    37     1     2    1
