@<TRIPOS>MOLECULE
4fhe_EEM_A_1.pdb
 27 28 0 0 0
SMALL
GASTEIGER

@<TRIPOS>ATOM
      1  C2        -0.2240   34.2350  -44.4350 C.3   407  EEM407      0.0000
      2  N3        -0.5320   34.0330  -45.7630 N.2   407  EEM407      0.5000
      3  C4         0.1830   33.1490  -46.5010 C.2   407  EEM407      0.0000
      4  C1'       -0.9240   33.3220  -48.7300 C.3   407  EEM407      0.0000
      5  C2'       -0.4050   33.5530  -50.1400 C.3   407  EEM407      0.0000
      6  C3'       -1.6780   33.4260  -50.9500 C.3   407  EEM407      0.0000
      7  C4'       -2.5880   32.5170  -50.1270 C.3   407  EEM407      0.0000
      8  C5'       -2.7690   31.1110  -50.7040 C.3   407  EEM407      0.0000
      9  O          0.3040   32.3470  -53.7760 O.co2 407  EEM407      0.0000
     10  C         -0.7590   32.1080  -54.3540 C.2   407  EEM407      0.0000
     11  OXT       -1.5490   33.0350  -54.5150 O.co2 407  EEM407      0.0000
     12  CA        -1.0920   30.7060  -54.8600 C.3   407  EEM407      0.0000
     13  N          0.1370   29.8680  -54.9360 N.3   407  EEM407      0.0000
     14  CB        -2.1660   30.0610  -53.9800 C.3   407  EEM407      0.0000
     15  CG        -1.6870   29.2160  -52.7990 C.3   407  EEM407      0.0000
     16 SE         -1.1040   30.2440  -51.2440 Se    407  EEM407      0.0000
     17  CE        -0.9150   28.8040  -49.9500 C.3   407  EEM407      0.0000
     18  O4'       -2.0110   32.4220  -48.8410 O.3   407  EEM407      0.0000
     19  O3'       -2.2700   34.6930  -51.1150 O.3   407  EEM407      0.0000
     20  O2'        0.2240   34.8090  -50.2780 O.3   407  EEM407      0.0000
     21  N9         0.0850   32.7770  -47.8100 N.pl3 407  EEM407      0.5000
     22  C8         1.0530   31.8380  -48.0590 C.3   407  EEM407      0.0000
     23  N7         1.7440   31.6430  -46.9120 N.2   407  EEM407      0.0000
     24  C5         1.2310   32.4320  -45.9470 C.2   407  EEM407      0.0000
     25  N1         0.8190   33.5310  -43.8660 N.2   407  EEM407      0.5000
     26  C6         1.5540   32.6260  -44.6090 C.2   407  EEM407      0.0000
     27  N6         2.5550   31.9520  -44.0500 N.pl3 407  EEM407      0.5000
@<TRIPOS>BOND
     1    13    12    1
     2    12    10    1
     3    12    14    1
     4    11    10   ar
     5    10     9   ar
     6    14    15    1
     7    15    16    1
     8    16    17    1
     9    19     6    1
    10     6     5    1
    11     6     7    1
    12     8     7    1
    13    20     5    1
    14     5     4    1
    15     7    18    1
    16    18     4    1
    17     4    21    1
    18    22    21    1
    19    22    23    1
    20    21     3    1
    21    23    24    2
    22     3    24    1
    23     3     2    2
    24    24    26    1
    25     2     1    1
    26    26    27    1
    27    26    25    2
    28     1    25    1
