@<TRIPOS>MOLECULE
4fhf_0TT_A_1.pdb
 34 37 0 0 0
SMALL
GASTEIGER

@<TRIPOS>ATOM
      1  O8       -19.3170    4.1350  -26.2390 O.3   409  0TT409     -0.2176
      2  C6       -20.0630    3.1400  -26.9510 C.3   409  0TT409      0.2141
      3  C5       -20.9880    2.3500  -26.0530 C.3   409  0TT409      0.1802
      4  O7       -20.4160    2.2970  -24.7580 O.3   409  0TT409     -0.3341
      5  C4       -22.3950    2.9310  -25.8620 C.3   409  0TT409      0.1858
      6  O9       -23.2370    2.3360  -26.8680 O.3   409  0TT409     -0.2203
      7  C3       -22.8020    2.5210  -24.4670 C.3   409  0TT409      0.0871
      8  C2       -21.4580    2.2590  -23.7530 C.3   409  0TT409      0.2048
      9  N3       -21.1650    3.0840  -22.5730 N.am  409  0TT409     -0.2018
     10  CJ       -21.6270    2.6180  -21.2540 C.3   409  0TT409      0.1228
     11  CK       -20.0880    3.9460  -22.6480 C.1   409  0TT409      0.2802
     12  O5       -19.8220    4.6450  -23.6260 O.2   409  0TT409     -0.1922
     13  N4       -19.4680    4.2450  -21.4330 N.2   409  0TT409     -0.2497
     14  CL       -19.4240    3.4250  -20.3320 C.1   409  0TT409      0.1921
     15  O6       -18.6670    3.6770  -19.4090 O.2   409  0TT409     -0.2134
     16  CI       -20.4910    2.3320  -20.2480 C.3   409  0TT409      0.1287
     17  C1       -21.0870    2.3860  -18.8280 C.3   409  0TT409      0.0198
     18  CH       -19.8610    0.9010  -20.4140 C.3   409  0TT409      0.0589
     19  CF       -19.7100    0.2940  -21.7790 C.2   409  0TT409      0.0899
     20  CE       -20.5840   -0.6290  -22.2430 C.2   409  0TT409      0.0877
     21  CG       -18.6000    0.6920  -22.6440 C.1   409  0TT409      0.2134
     22  O4       -17.7470    1.5110  -22.3460 O.2   409  0TT409     -0.2088
     23  N2       -18.5510    0.0750  -23.8840 N.2   409  0TT409     -0.2455
     24  CB       -19.4360   -0.8620  -24.3620 C.1   409  0TT409      0.2844
     25  O3       -19.2850   -1.3400  -25.4860 O.2   409  0TT409     -0.1918
     26  N1       -20.4780   -1.2180  -23.5140 N.am  409  0TT409     -0.1794
     27  CD       -21.4470   -2.2250  -24.0190 C.3   409  0TT409      0.2090
     28  OB       -22.0510   -1.6690  -25.2060 O.3   409  0TT409     -0.3338
     29  CM       -22.6220   -2.5400  -23.1430 C.3   409  0TT409      0.0874
     30  CA       -23.5590   -3.1600  -24.1790 C.3   409  0TT409      0.1858
     31  O1       -23.2460   -4.5260  -24.3920 O.3   409  0TT409     -0.2203
     32  C9       -23.3750   -2.2290  -25.3930 C.3   409  0TT409      0.1802
     33  C8       -24.3670   -1.1190  -25.5750 C.3   409  0TT409      0.2141
     34  OA       -24.2440   -0.6130  -26.9190 O.3   409  0TT409     -0.2176
@<TRIPOS>BOND
     1     2     1    1
     2     2     3    1
     3    34    33    1
     4     6     5    1
     5     3     5    1
     6     3     4    1
     7     5     7    1
     8    33    32    1
     9    25    24    2
    10    32    28    1
    11    32    30    1
    12    28    27    1
    13     4     8    1
    14     7     8    1
    15    31    30    1
    16    24    23    2
    17    24    26   am
    18    30    29    1
    19    27    26    1
    20    27    29    1
    21    23    21    2
    22     8     9    1
    23    12    11    2
    24    26    20    1
    25    11     9   am
    26    11    13    2
    27    21    22    2
    28    21    19    1
    29     9    10    1
    30    20    19    2
    31    19    18    1
    32    13    14    2
    33    10    16    1
    34    18    16    1
    35    14    16    1
    36    14    15    2
    37    16    17    1
