@<TRIPOS>MOLECULE
4fhf_EEM_A_1.pdb
 27 28 0 0 0
SMALL
GASTEIGER

@<TRIPOS>ATOM
      1  C2       -26.9740    6.7690  -24.7610 C.3   402  EEM402      0.0000
      2  N3       -26.6750    6.4270  -23.4610 N.2   402  EEM402      0.5000
      3  C4       -27.3820    5.4510  -22.8400 C.2   402  EEM402      0.0000
      4  C1'      -26.2950    5.4060  -20.6110 C.3   402  EEM402      0.0000
      5  C2'      -26.8000    5.4280  -19.1810 C.3   402  EEM402      0.0000
      6  C3'      -25.5020    5.2490  -18.4270 C.3   402  EEM402      0.0000
      7  C4'      -24.6170    4.4170  -19.3490 C.3   402  EEM402      0.0000
      8  C5'      -24.5130    2.9300  -18.9980 C.3   402  EEM402      0.0000
      9  O        -27.4930    3.8550  -15.7240 O.co2 402  EEM402      0.0000
     10  C        -26.4220    3.4990  -15.2250 C.2   402  EEM402      0.0000
     11  OXT      -25.5690    4.3540  -14.9900 O.co2 402  EEM402      0.0000
     12  CA       -26.1650    2.0320  -14.8970 C.3   402  EEM402      0.0000
     13  N        -27.4500    1.2730  -14.9460 N.3   402  EEM402      0.0000
     14  CB       -25.1020    1.4420  -15.8240 C.3   402  EEM402      0.0000
     15  CG       -25.5820    0.7970  -17.1230 C.3   402  EEM402      0.0000
     16 SE        -26.1900    2.1000  -18.4410 Se    402  EEM402      0.0000
     17  CE       -26.7590    0.9490  -19.8980 C.3   402  EEM402      0.0000
     18  O4'      -25.1660    4.5560  -20.6430 O.3   402  EEM402      0.0000
     19  O3'      -24.9150    6.5090  -18.2060 O.3   402  EEM402      0.0000
     20  O2'      -27.4590    6.6370  -18.8730 O.3   402  EEM402      0.0000
     21  N9       -27.2890    4.9360  -21.5840 N.pl3 402  EEM402      0.5000
     22  C8       -28.2380    3.9560  -21.4510 C.3   402  EEM402      0.0000
     23  N7       -28.9150    3.8730  -22.6160 N.2   402  EEM402      0.0000
     24  C5       -28.4100    4.7800  -23.4810 C.2   402  EEM402      0.0000
     25  N1       -27.9980    6.1140  -25.4160 N.2   402  EEM402      0.5000
     26  C6       -28.7210    5.1190  -24.7910 C.2   402  EEM402      0.0000
     27  N6       -29.7020    4.4920  -25.4350 N.pl3 402  EEM402      0.5000
@<TRIPOS>BOND
     1    27    26    1
     2    25    26    2
     3    25     1    1
     4    26    24    1
     5     1     2    1
     6    24     3    1
     7    24    23    2
     8     2     3    2
     9     3    21    1
    10    23    22    1
    11    21    22    1
    12    21     4    1
    13    18     4    1
    14    18     7    1
    15     4     5    1
    16    17    16    1
    17     7     8    1
    18     7     6    1
    19     5    20    1
    20     5     6    1
    21    16    15    1
    22     6    19    1
    23    15    14    1
    24    14    12    1
    25     9    10   ar
    26    10    11   ar
    27    10    12    1
    28    13    12    1
