@<TRIPOS>MOLECULE
4fhg_EEM_A_1.pdb
 27 28 0 0 0
SMALL
GASTEIGER

@<TRIPOS>ATOM
      1  C2        -0.3050   34.2390  -44.3130 C.3   402  EEM402      0.0000
      2  N3        -0.5990   34.0550  -45.6460 N.2   402  EEM402      0.5000
      3  C4         0.1320   33.1930  -46.3890 C.2   402  EEM402      0.0000
      4  C1'       -0.9510   33.3710  -48.6360 C.3   402  EEM402      0.0000
      5  C2'       -0.4240   33.6470  -50.0350 C.3   402  EEM402      0.0000
      6  C3'       -1.7090   33.6150  -50.8330 C.3   402  EEM402      0.0000
      7  C4'       -2.6160   32.6650  -50.0600 C.3   402  EEM402      0.0000
      8  C5'       -2.8340   31.3320  -50.7660 C.3   402  EEM402      0.0000
      9  O          0.2270   32.4320  -53.6290 O.co2 402  EEM402      0.0000
     10  C         -0.8510   32.1440  -54.1730 C.2   402  EEM402      0.0000
     11  OXT       -1.7070   33.0270  -54.2800 O.co2 402  EEM402      0.0000
     12  CA        -1.1210   30.7370  -54.7070 C.3   402  EEM402      0.0000
     13  N          0.1350   29.9300  -54.7590 N.3   402  EEM402      0.0000
     14  CB        -2.1880   30.0280  -53.8730 C.3   402  EEM402      0.0000
     15  CG        -1.7130   29.2490  -52.6460 C.3   402  EEM402      0.0000
     16 SE         -1.1870   30.3330  -51.1090 Se    402  EEM402      0.0000
     17  CE        -1.2820   28.9580  -49.7470 C.3   402  EEM402      0.0000
     18  O4'       -2.0100   32.4410  -48.8040 O.3   402  EEM402      0.0000
     19  O3'       -2.2700   34.9080  -50.9080 O.3   402  EEM402      0.0000
     20  O2'        0.2630   34.8770  -50.1500 O.3   402  EEM402      0.0000
     21  N9         0.0510   32.8380  -47.7030 N.pl3 402  EEM402      0.5000
     22  C8         1.0380   31.9150  -47.9500 C.3   402  EEM402      0.0000
     23  N7         1.7190   31.7210  -46.7980 N.2   402  EEM402      0.0000
     24  C5         1.1840   32.4860  -45.8330 C.2   402  EEM402      0.0000
     25  N1         0.7430   33.5430  -43.7420 N.2   402  EEM402      0.5000
     26  C6         1.4960   32.6640  -44.4940 C.2   402  EEM402      0.0000
     27  N6         2.5050   31.9960  -43.9420 N.pl3 402  EEM402      0.5000
@<TRIPOS>BOND
     1    13    12    1
     2    12    10    1
     3    12    14    1
     4    11    10   ar
     5    10     9   ar
     6    14    15    1
     7    15    16    1
     8    16    17    1
     9    19     6    1
    10     6     7    1
    11     6     5    1
    12     8     7    1
    13    20     5    1
    14     7    18    1
    15     5     4    1
    16    18     4    1
    17     4    21    1
    18    22    21    1
    19    22    23    1
    20    21     3    1
    21    23    24    2
    22     3    24    1
    23     3     2    2
    24    24    26    1
    25     2     1    1
    26    26    27    1
    27    26    25    2
    28     1    25    1
