@<TRIPOS>MOLECULE
4fhh_0U3_A_1.pdb
 33 34 0 0 0
SMALL
GASTEIGER

@<TRIPOS>ATOM
      1  C1         2.4420   37.4690   37.5710 C.ar  501  0U3501      0.0363
      2  C2         1.5220   38.5270   37.8510 C.ar  501  0U3501      0.1351
      3  C3         0.1520   38.2090   38.4600 C.ar  501  0U3501      0.0118
      4  C4        -0.1620   36.8480   38.7340 C.ar  501  0U3501     -0.0052
      5  C5         0.7720   35.7310   38.4550 C.ar  501  0U3501     -0.0191
      6  C6         2.0770   36.1060   37.8660 C.ar  501  0U3501     -0.0009
      7  C7         0.3310   34.2240   38.8030 C.3   501  0U3501      0.0377
      8  C8         0.8590   32.9690   37.9550 C.ar  501  0U3501     -0.0191
      9  C9        -1.2950   34.0020   38.7560 C.3   501  0U3501      0.0081
     10  C10        0.7250   34.0950   40.3900 C.3   501  0U3501      0.0081
     11  C11        2.2050   34.2430   40.9270 C.3   501  0U3501      0.0007
     12  C12       -2.1550   34.0500   37.4330 C.3   501  0U3501      0.0007
     13  C13        1.1940   31.6450   38.6000 C.ar  501  0U3501     -0.0052
     14  C14        1.6460   30.5300   37.8420 C.ar  501  0U3501      0.0118
     15  C15        1.7740   30.7340   36.3080 C.ar  501  0U3501      0.1346
     16  C16        1.9770   29.2150   38.5190 C.3   501  0U3501      0.0342
     17  C17        1.4410   32.0410   35.7270 C.ar  501  0U3501      0.0363
     18  C18        1.0130   33.0830   36.5090 C.ar  501  0U3501     -0.0009
     19  O19        1.8540   39.7890   37.5830 O.3   501  0U3501     -0.4689
     20  O22        4.9900   42.0940   36.6310 O.3   501  0U3501     -0.4025
     21  C20        2.4610   40.4630   38.7050 C.3   501  0U3501      0.2561
     22  C21        3.5280   41.4430   38.2240 C.2   501  0U3501      0.1314
     23  N23        4.0330   41.2050   37.0390 N.am  501  0U3501     -0.1992
     24  O24        3.8990   42.3960   38.9000 O.2   501  0U3501     -0.5366
     25  C25        4.6560   29.5660   32.5910 C.3   501  0U3501      0.0318
     26  C26        4.7700   28.1320   32.0150 C.3   501  0U3501      0.0027
     27  C27        3.6030   30.2140   31.6080 C.3   501  0U3501      0.0027
     28  C28        5.9990   30.1910   32.4830 C.3   501  0U3501      0.0027
     29  C29        3.1260   30.1730   34.4570 C.3   501  0U3501      0.2380
     30  O30        2.2490   29.5330   35.4950 O.3   501  0U3501     -0.4730
     31  C31        4.4440   29.5550   34.1310 C.3   501  0U3501      0.1952
     32  O32        4.4090   28.2680   34.7550 O.3   501  0U3501     -0.2191
     33  C33       -0.9240   39.2520   38.8070 C.3   501  0U3501      0.0342
@<TRIPOS>BOND
     1    27    25    1
     2    26    25    1
     3    28    25    1
     4    25    31    1
     5    31    29    1
     6    31    32    1
     7    29    30    1
     8    30    15    1
     9    17    15   ar
    10    17    18   ar
    11    15    14   ar
    12    18     8   ar
    13    20    23    1
    14    23    22   am
    15    12     9    1
    16     1     2   ar
    17     1     6   ar
    18    19     2    1
    19    19    21    1
    20    14    16    1
    21    14    13   ar
    22     2     3   ar
    23     6     5   ar
    24     8    13   ar
    25     8     7    1
    26    22    21    1
    27    22    24    2
    28     5     4   ar
    29     5     7    1
    30     3     4   ar
    31     3    33    1
    32     9     7    1
    33     7    10    1
    34    10    11    1
