@<TRIPOS>MOLECULE
4fhi_0S4_A_1.pdb
 33 34 0 0 0
SMALL
GASTEIGER

@<TRIPOS>ATOM
      1  C1         2.4200   37.3040   37.9780 C.ar  501  0S4501      0.0363
      2  C2         1.4790   38.3660   38.1490 C.ar  501  0S4501      0.1351
      3  C3         0.0520   38.0780   38.5780 C.ar  501  0S4501      0.0118
      4  C4        -0.3160   36.7080   38.8060 C.ar  501  0S4501     -0.0052
      5  C5         0.6530   35.5850   38.6300 C.ar  501  0S4501     -0.0191
      6  C6         2.0210   35.9590   38.2110 C.ar  501  0S4501     -0.0009
      7  C7         0.1870   34.0650   38.9090 C.3   501  0S4501      0.0377
      8  C8         0.8700   32.8560   38.0660 C.ar  501  0S4501     -0.0191
      9  C9        -1.4280   33.8680   38.7150 C.3   501  0S4501      0.0081
     10  C10        0.4930   33.9080   40.5250 C.3   501  0S4501      0.0081
     11  C11        1.9680   34.0350   41.1440 C.3   501  0S4501      0.0007
     12  C12       -2.1200   33.9640   37.2840 C.3   501  0S4501      0.0007
     13  C13        1.1790   31.5010   38.6730 C.ar  501  0S4501     -0.0052
     14  C14        1.7830   30.4460   37.9040 C.ar  501  0S4501      0.0118
     15  C15        2.1090   30.7450   36.4170 C.ar  501  0S4501      0.1346
     16  C16        2.0930   29.0790   38.5240 C.3   501  0S4501      0.0342
     17  C17        1.7940   32.0730   35.8590 C.ar  501  0S4501      0.0363
     18  C18        1.2140   33.0510   36.6450 C.ar  501  0S4501     -0.0009
     19  O19        1.8510   39.6300   37.9320 O.3   501  0S4501     -0.4689
     20  O22        4.7580   41.9190   36.5890 O.3   501  0S4501     -0.4025
     21  C20        2.5720   40.2850   38.9640 C.3   501  0S4501      0.2561
     22  C21        3.6980   41.1550   38.4510 C.2   501  0S4501      0.1314
     23  N23        4.0850   40.9080   37.2210 N.am  501  0S4501     -0.1992
     24  O24        4.2070   42.0300   39.1410 O.2   501  0S4501     -0.5366
     25  C25        4.8400   29.2270   32.5080 C.3   501  0S4501      0.0318
     26  C26        4.0600   30.0400   31.4540 C.3   501  0S4501      0.0027
     27  C27        6.1250   30.0260   32.8060 C.3   501  0S4501      0.0027
     28  C28        5.1980   27.8560   31.9190 C.3   501  0S4501      0.0027
     29  C29        3.4810   30.1570   34.5010 C.3   501  0S4501      0.2380
     30  O30        2.6810   29.7770   35.6370 O.3   501  0S4501     -0.4730
     31  C31        3.9850   28.9220   33.7700 C.3   501  0S4501      0.1952
     32  O32        4.7420   28.1720   34.7600 O.3   501  0S4501     -0.2191
     33  C33       -1.0180   39.1640   38.7830 C.3   501  0S4501      0.0342
@<TRIPOS>BOND
     1    26    25    1
     2    28    25    1
     3    25    27    1
     4    25    31    1
     5    31    29    1
     6    31    32    1
     7    29    30    1
     8    30    15    1
     9    17    15   ar
    10    17    18   ar
    11    15    14   ar
    12    20    23    1
    13    18     8   ar
    14    23    22   am
    15    12     9    1
    16    14    16    1
    17    14    13   ar
    18    19     2    1
    19    19    21    1
    20     1     2   ar
    21     1     6   ar
    22     8    13   ar
    23     8     7    1
    24     2     3   ar
    25     6     5   ar
    26    22    21    1
    27    22    24    2
    28     3    33    1
    29     3     4   ar
    30     5     4   ar
    31     5     7    1
    32     9     7    1
    33     7    10    1
    34    10    11    1
