@<TRIPOS>MOLECULE
4fhj_0TZ_A_1.pdb
 23 26 0 0 0
SMALL
GASTEIGER

@<TRIPOS>ATOM
      1  N8        25.4920   13.4160   20.7260 N.ar  1205  0TZ1205    -0.1309
      2  N9        26.5870   12.8430   20.7340 N.ar  1205  0TZ1205    -0.1450
      3  C12       26.5920   11.9010   21.6790 C.ar  1205  0TZ1205     0.1252
      4  C13       25.4060   11.9200   22.2840 C.ar  1205  0TZ1205     0.0605
      5  C11       24.7250   12.8780   21.6730 C.ar  1205  0TZ1205     0.1770
      6  N7        23.4710   13.2310   21.9860 N.pl3 1205  0TZ1205    -0.1642
      7  C6        22.7670   14.1830   21.3530 C.2   1205  0TZ1205     0.2184
      8  N6        23.2310   15.0220   20.4240 N.2   1205  0TZ1205    -0.3715
      9  C5        22.2420   15.8290   20.0240 C.2   1205  0TZ1205     0.1896
     10  C10       22.2100   16.8620   19.0840 C.2   1205  0TZ1205     0.0481
     11  C9        21.0260   17.5630   18.8490 C.2   1205  0TZ1205     0.0053
     12  C8        19.8620   17.2390   19.5510 C.2   1205  0TZ1205     0.0163
     13  C7        19.8730   16.2080   20.4930 C.2   1205  0TZ1205     0.0686
     14  N5        21.0670   15.5000   20.7330 N.pl3 1205  0TZ1205    -0.2417
     15  C4        21.4240   14.4560   21.5790 C.3   1205  0TZ1205     0.2595
     16  C3        20.5970   13.7790   22.4750 C.1   1205  0TZ1205     0.1647
     17  N3        19.2990   14.1030   22.6230 N.2   1205  0TZ1205    -0.2601
     18  N1        21.1140   12.7720   23.1970 N.2   1205  0TZ1205    -0.2799
     19  C1        20.3450   12.0920   24.0540 C.1   1205  0TZ1205     0.1392
     20  C14       20.9690   10.9590   24.8500 C.3   1205  0TZ1205     0.1448
     21  N2        19.0500   12.4110   24.2090 N.2   1205  0TZ1205    -0.2621
     22  C2        18.5310   13.4190   23.4920 C.1   1205  0TZ1205     0.2606
     23  N4        17.2510   13.7390   23.6400 N.pl3 1205  0TZ1205    -0.0220
@<TRIPOS>BOND
     1    11    10    2
     2    11    12    1
     3    10     9    1
     4    12    13    2
     5     9     8    2
     6     9    14    1
     7     8     7    2
     8    13    14    1
     9     1     2   ar
    10     1     5   ar
    11    14    15    1
    12     2     3   ar
    13     7    15    1
    14     7     6    1
    15    15    16    1
    16     5     6    1
    17     5     4   ar
    18     3     4   ar
    19    16    17    2
    20    16    18    2
    21    17    22    2
    22    18    19    2
    23    22    23    1
    24    22    21    2
    25    19    21    2
    26    19    20    1
