@<TRIPOS>MOLECULE
4fhp_UTP_A_1.pdb
 29 30 0 0 0
SMALL
GASTEIGER

@<TRIPOS>ATOM
      1  PA       -14.3890    3.9420   -6.2000 P.3   401  UTP401      0.2189
      2  O1A      -14.2030    5.2700   -6.8310 O.2   401  UTP401     -0.5170
      3  O2A      -13.8960    3.9070   -4.8080 O.3   401  UTP401     -0.4371
      4  O3A      -13.7070    2.8110   -7.0980 O.3   401  UTP401     -0.2700
      5  O5'      -15.9480    3.5790   -6.2870 O.3   401  UTP401     -0.3112
      6  PB       -12.5740    1.8240   -6.5180 P.3   401  UTP401      0.2277
      7  O1B      -13.1230    1.0240   -5.3970 O.3   401  UTP401     -0.4368
      8  O2B      -12.1810    0.8980   -7.6100 O.2   401  UTP401     -0.5168
      9  O3B      -11.4180    2.7040   -6.1590 O.3   401  UTP401     -0.2258
     10  PG       -10.4290    2.5570   -4.8940 P.3   401  UTP401      0.5373
     11  O1G       -9.7160    3.8900   -4.7850 O.3   401  UTP401     -0.1143
     12  O2G       -9.5370    1.4070   -5.2890 O.2   401  UTP401     -0.2221
     13  O3G      -11.3480    2.2660   -3.7360 O.3   401  UTP401     -0.1143
     14  C5'      -16.3750    2.2890   -5.9040 C.3   401  UTP401      0.1813
     15  C4'      -17.5450    1.8110   -6.7450 C.3   401  UTP401      0.1799
     16  O4'      -18.6900    2.6310   -6.5740 O.3   401  UTP401     -0.3322
     17  C1'      -19.4170    2.7200   -7.7830 C.3   401  UTP401      0.2361
     18  C2'      -18.7140    1.8020   -8.7680 C.3   401  UTP401      0.2316
     19  O2'      -19.2570    0.4920   -8.6940 O.3   401  UTP401     -0.2157
     20  C3'      -17.2950    1.8030   -8.2440 C.3   401  UTP401      0.2158
     21  O3'      -16.6080    0.6520   -8.6690 O.3   401  UTP401     -0.2175
     22  N1       -19.4140    4.1140   -8.2990 N.am  401  UTP401     -0.1996
     23  C6       -18.6150    5.0880   -7.7430 C.3   401  UTP401      0.1249
     24  C2       -20.3960    4.5000   -9.2130 C.1   401  UTP401      0.2802
     25  O2       -21.2580    3.7080   -9.5980 O.2   401  UTP401     -0.1922
     26  N3       -20.4240    5.7870   -9.7050 N.2   401  UTP401     -0.2497
     27  C4       -19.4840    6.7100   -9.2990 C.1   401  UTP401      0.1941
     28  O4       -19.5430    7.8520   -9.7580 O.2   401  UTP401     -0.2133
     29  C5       -18.5020    6.3370   -8.3750 C.3   401  UTP401      0.1579
@<TRIPOS>BOND
     1    28    27    2
     2    26    27    2
     3    26    24    2
     4    25    24    2
     5    27    29    1
     6    24    22   am
     7    18    19    1
     8    18    20    1
     9    18    17    1
    10    21    20    1
    11    29    23    1
    12    22    17    1
    13    22    23    1
    14    20    15    1
    15    17    16    1
    16     8     6    2
    17     4     6    1
    18     4     1    1
    19     2     1    2
    20    15    16    1
    21    15    14    1
    22     6     9    1
    23     6     7    1
    24     5     1    1
    25     5    14    1
    26     1     3    1
    27     9    10    1
    28    12    10    2
    29    10    11    1
    30    10    13    1
