@<TRIPOS>MOLECULE
4fhv_CTP_A_1.pdb
 29 30 0 0 0
SMALL
GASTEIGER

@<TRIPOS>ATOM
      1  N1       -19.6660    4.1470   -7.9480 N.am  401  CTP401     -0.2009
      2  C2       -20.6380    4.3730   -8.9230 C.1   401  CTP401      0.2713
      3  N3       -20.6340    5.5660   -9.6370 N.2   401  CTP401     -0.3072
      4  C4       -19.7490    6.5670   -9.2810 C.2   401  CTP401      0.2123
      5  C5       -18.7530    6.3060   -8.3480 C.3   401  CTP401      0.1014
      6  C6       -18.8640    5.1840   -7.5430 C.3   401  CTP401      0.1151
      7  O2       -21.4990    3.5170   -9.1600 O.2   401  CTP401     -0.1929
      8  N4       -19.8340    7.7770   -9.8160 N.pl3 401  CTP401     -0.0969
      9  C1'      -19.3570    2.7670   -7.5070 C.3   401  CTP401      0.2360
     10  C2'      -18.5500    2.0580   -8.5830 C.3   401  CTP401      0.2316
     11  O2'      -19.0950    0.7720   -8.7680 O.3   401  CTP401     -0.2157
     12  C3'      -17.1470    2.0030   -8.0130 C.3   401  CTP401      0.2158
     13  C4'      -17.3700    2.0460   -6.5030 C.3   401  CTP401      0.1799
     14  O4'      -18.5770    2.7680   -6.3220 O.3   401  CTP401     -0.3322
     15  O3'      -16.4630    0.8430   -8.4210 O.3   401  CTP401     -0.2175
     16  C5'      -16.2330    2.6930   -5.7110 C.3   401  CTP401      0.1813
     17  O5'      -15.8900    3.9480   -6.2530 O.3   401  CTP401     -0.3112
     18  PA       -14.4350    4.6090   -6.0330 P.3   401  CTP401      0.2189
     19  O1A      -14.2270    5.7280   -7.0310 O.2   401  CTP401     -0.5170
     20  O2A      -14.3430    5.1280   -4.6170 O.3   401  CTP401     -0.4371
     21  O3A      -13.3700    3.4070   -6.2510 O.3   401  CTP401     -0.2700
     22  PB       -12.3890    2.8270   -5.0960 P.3   401  CTP401      0.2277
     23  O1B      -11.9430    1.4520   -5.5050 O.2   401  CTP401     -0.5168
     24  O2B      -13.0650    2.7640   -3.7420 O.3   401  CTP401     -0.4368
     25  O3B      -11.1170    3.8140   -5.0710 O.3   401  CTP401     -0.2258
     26  PG        -9.6220    3.2570   -4.8310 P.3   401  CTP401      0.5373
     27  O1G       -9.4280    1.9280   -5.5290 O.2   401  CTP401     -0.2221
     28  O2G       -9.3680    3.0980   -3.3480 O.3   401  CTP401     -0.1143
     29  O3G       -8.6290    4.2560   -5.3830 O.3   401  CTP401     -0.1143
@<TRIPOS>BOND
     1     8     4    1
     2     3     4    2
     3     3     2    2
     4     4     5    1
     5     7     2    2
     6     2     1   am
     7    11    10    1
     8    10    12    1
     9    10     9    1
    10    15    12    1
    11     5     6    1
    12    12    13    1
    13     1     6    1
    14     1     9    1
    15     9    14    1
    16    19    18    2
    17    13    14    1
    18    13    16    1
    19    17    18    1
    20    17    16    1
    21    21    18    1
    22    21    22    1
    23    18    20    1
    24    27    26    2
    25    23    22    2
    26    29    26    1
    27    22    25    1
    28    22    24    1
    29    25    26    1
    30    26    28    1
