@<TRIPOS>MOLECULE
4fhw_GTP_A_1.pdb
 32 34 0 0 0
SMALL
GASTEIGER

@<TRIPOS>ATOM
      1  PG        -9.7530    4.2080   -4.2030 P.3   401  GTP401      0.5373
      2  O1G       -8.6890    3.6910   -5.1500 O.2   401  GTP401     -0.2221
      3  O2G       -9.7560    3.3620   -2.9440 O.3   401  GTP401     -0.1143
      4  O3G       -9.4980    5.6650   -3.8910 O.3   401  GTP401     -0.1143
      5  O3B      -11.1990    4.1500   -4.8980 O.3   401  GTP401     -0.2258
      6  PB       -11.8270    2.7060   -5.1690 P.3   401  GTP401      0.2277
      7  O1B      -10.7560    1.8290   -5.7700 O.2   401  GTP401     -0.5168
      8  O2B      -12.3180    2.1240   -3.8550 O.3   401  GTP401     -0.4368
      9  O3A      -13.0640    3.0170   -6.1710 O.3   401  GTP401     -0.2700
     10  PA       -14.3750    3.8770   -5.7270 P.3   401  GTP401      0.2189
     11  O1A      -14.5160    5.1290   -6.5810 O.2   401  GTP401     -0.5170
     12  O2A      -14.3910    4.2110   -4.2440 O.3   401  GTP401     -0.4371
     13  O5'      -15.5800    2.8480   -6.0540 O.3   401  GTP401     -0.3112
     14  C5'      -16.9370    3.1530   -5.7860 C.3   401  GTP401      0.1813
     15  C4'      -17.8720    2.2920   -6.6430 C.3   401  GTP401      0.1799
     16  O4'      -19.1730    2.8580   -6.6350 O.3   401  GTP401     -0.3326
     17  C3'      -17.4770    2.2050   -8.1160 C.3   401  GTP401      0.2158
     18  O3'      -16.6500    1.0940   -8.3970 O.3   401  GTP401     -0.2175
     19  C2'      -18.8010    2.1180   -8.8500 C.3   401  GTP401      0.2310
     20  O2'      -19.1760    0.7780   -9.0690 O.3   401  GTP401     -0.2158
     21  C1'      -19.7960    2.7660   -7.9060 C.3   401  GTP401      0.2293
     22  N9       -20.1360    4.0950   -8.4600 N.pl3 401  GTP401     -0.2354
     23  C8       -21.2600    4.3690   -9.2020 C.3   401  GTP401      0.2246
     24  N7       -21.2450    5.6740   -9.5590 N.2   401  GTP401     -0.2322
     25  C5       -20.1210    6.2430   -9.0580 C.2   401  GTP401      0.2182
     26  C6       -19.6190    7.5430   -9.1270 C.1   401  GTP401      0.2372
     27  O6       -20.2480    8.4000   -9.7370 O.2   401  GTP401     -0.2069
     28  N1       -18.4200    7.8690   -8.5130 N.2   401  GTP401     -0.2485
     29  C2       -17.7280    6.8880   -7.8240 C.1   401  GTP401      0.2531
     30  N2       -16.5760    7.1890   -7.2290 N.pl3 401  GTP401     -0.0226
     31  N3       -18.2330    5.5930   -7.7580 N.2   401  GTP401     -0.3074
     32  C4       -19.4100    5.2670   -8.3640 C.2   401  GTP401      0.2300
@<TRIPOS>BOND
     1    27    26    2
     2    24    23    1
     3    24    25    2
     4    23    22    1
     5    26    25    1
     6    26    28    2
     7    20    19    1
     8    25    32    1
     9    19    17    1
    10    19    21    1
    11    28    29    2
    12    22    32    1
    13    22    21    1
    14    18    17    1
    15    32    31    2
    16    17    15    1
    17    21    16    1
    18    29    31    2
    19    29    30    1
    20    15    16    1
    21    15    14    1
    22    11    10    2
    23     9    10    1
    24     9     6    1
    25    13    14    1
    26    13    10    1
    27     7     6    2
    28    10    12    1
    29     6     5    1
    30     6     8    1
    31     2     1    2
    32     5     1    1
    33     1     4    1
    34     1     3    1
