@<TRIPOS>MOLECULE
4fhx_ATP_A_1.pdb
 31 33 0 0 0
SMALL
GASTEIGER

@<TRIPOS>ATOM
      1  PG       -11.4250    2.6040   -4.8020 P.3   401  ATP401      0.5373
      2  O1G      -11.6540    4.0290   -5.2450 O.2   401  ATP401     -0.2221
      3  O2G       -9.9770    2.1580   -4.9170 O.3   401  ATP401     -0.1143
      4  O3G      -12.1650    2.2170   -3.5290 O.3   401  ATP401     -0.1143
      5  PB       -13.7640    1.6070   -6.0090 P.3   401  ATP401      0.2277
      6  O1B      -14.1220    0.6650   -7.1420 O.2   401  ATP401     -0.5168
      7  O2B      -14.2560    1.3340   -4.5930 O.3   401  ATP401     -0.4368
      8  O3B      -12.1540    1.7190   -5.9360 O.3   401  ATP401     -0.2258
      9  PA       -14.9420    4.1970   -5.5910 P.3   401  ATP401      0.2189
     10  O1A      -14.7180    5.5570   -6.2420 O.2   401  ATP401     -0.5170
     11  O2A      -14.5570    3.9360   -4.1370 O.3   401  ATP401     -0.4371
     12  O3A      -14.1680    3.1040   -6.5010 O.3   401  ATP401     -0.2700
     13  O5'      -16.5070    3.7840   -5.7840 O.3   401  ATP401     -0.3112
     14  C5'      -16.9880    2.4280   -5.7330 C.3   401  ATP401      0.1813
     15  C4'      -18.2860    2.1880   -6.5210 C.3   401  ATP401      0.1821
     16  O4'      -19.2180    3.2650   -6.3310 O.3   401  ATP401     -0.3135
     17  C3'      -18.1040    1.9940   -8.0280 C.3   401  ATP401      0.2184
     18  O3'      -18.1970    0.6130   -8.3930 O.3   401  ATP401     -0.2174
     19  C2'      -19.2200    2.8040   -8.6690 C.3   401  ATP401      0.2570
     20  O2'      -20.3110    1.9710   -9.0820 O.3   401  ATP401     -0.2130
     21  C1'      -19.6860    3.7750   -7.5860 C.3   401  ATP401      0.3186
     22  N9       -19.1110    5.1320   -7.8290 N.pl3 401  ATP401     -0.1439
     23  C8       -17.9160    5.5870   -7.3820 C.3   401  ATP401      0.3377
     24  N7       -17.6690    6.8610   -7.7720 N.2   401  ATP401     -0.2095
     25  C5       -18.7380    7.2460   -8.4950 C.2   401  ATP401      0.2526
     26  C6       -19.1360    8.4790   -9.2090 C.2   401  ATP401      0.4393
     27  N6       -18.3070    9.5530   -9.2100 N.pl3 401  ATP401      0.2180
     28  N1       -20.3380    8.4810   -9.8440 N.2   401  ATP401      0.0021
     29  C2       -21.1580    7.4070   -9.8400 C.3   401  ATP401      0.5254
     30  N3       -20.8640    6.2530   -9.2110 N.2   401  ATP401     -0.0055
     31  C4       -19.6900    6.1130   -8.5330 C.2   401  ATP401      0.3518
@<TRIPOS>BOND
     1    28    29    1
     2    28    26    2
     3    29    30    1
     4    30    31    2
     5    27    26    1
     6    26    25    1
     7    20    19    1
     8    19    17    1
     9    19    21    1
    10    31    25    1
    11    31    22    1
    12    25    24    2
    13    18    17    1
    14    17    15    1
    15    22    21    1
    16    22    23    1
    17    24    23    1
    18    21    16    1
    19     6     5    2
    20    15    16    1
    21    15    14    1
    22    12     5    1
    23    12     9    1
    24    10     9    2
    25     5     8    1
    26     5     7    1
    27     8     1    1
    28    13    14    1
    29    13     9    1
    30     9    11    1
    31     2     1    2
    32     3     1    1
    33     1     4    1
