@<TRIPOS>MOLECULE
4fhy_3AT_A_1.pdb
 30 32 0 0 0
SMALL
GASTEIGER

@<TRIPOS>ATOM
      1  PG       -10.6010    2.8040   -4.9390 P.3   401  3AT401      0.5373
      2  O1G       -9.4860    1.8270   -4.7730 O.2   401  3AT401     -0.2221
      3  O2G      -10.1030    4.3620   -4.7560 O.3   401  3AT401     -0.1143
      4  O3G      -11.8530    2.5900   -3.8970 O.3   401  3AT401     -0.1143
      5  PB       -12.7160    2.0330   -6.5510 P.3   401  3AT401      0.2277
      6  O1B      -12.7640    0.8990   -7.5320 O.2   401  3AT401     -0.5168
      7  O2B      -13.1720    1.5700   -5.0300 O.3   401  3AT401     -0.4368
      8  O3B      -11.2380    2.6510   -6.3780 O.3   401  3AT401     -0.2258
      9  PA       -14.5850    4.0540   -5.9810 P.3   401  3AT401      0.2189
     10  O1A      -14.5380    5.6030   -6.5200 O.2   401  3AT401     -0.5170
     11  O2A      -14.1090    3.8080   -4.5770 O.3   401  3AT401     -0.4371
     12  O3A      -13.6140    3.3060   -7.0150 O.3   401  3AT401     -0.2700
     13  O5'      -16.1120    3.5280   -6.2660 O.3   401  3AT401     -0.3113
     14  C5'      -16.3760    2.2940   -6.9710 C.3   401  3AT401      0.1787
     15  C4'      -17.8830    2.0620   -7.2320 C.3   401  3AT401      0.1520
     16  O4'      -18.7400    3.0150   -6.5240 O.3   401  3AT401     -0.3163
     17  C3'      -18.1590    2.2230   -8.7190 C.3   401  3AT401      0.0722
     18  C2'      -19.4610    2.9900   -8.7900 C.3   401  3AT401      0.2270
     19  O2'      -20.5740    2.0840   -8.8210 O.3   401  3AT401     -0.2158
     20  C1'      -19.4910    3.8020   -7.5000 C.3   401  3AT401      0.3159
     21  N9       -18.9520    5.2000   -7.7210 N.pl3 401  3AT401     -0.1439
     22  C8       -17.7650    5.6740   -7.3290 C.3   401  3AT401      0.3377
     23  N7       -17.6570    6.9460   -7.7200 N.2   401  3AT401     -0.2095
     24  C5       -18.7850    7.2750   -8.3570 C.2   401  3AT401      0.2526
     25  C6       -19.1810    8.4250   -8.9300 C.2   401  3AT401      0.4393
     26  N6       -18.3240    9.4550   -8.8850 N.pl3 401  3AT401      0.2180
     27  N1       -20.3850    8.5250   -9.5250 N.2   401  3AT401      0.0021
     28  C2       -21.2440    7.4120   -9.5440 C.3   401  3AT401      0.5254
     29  N3       -20.8080    6.2330   -8.9340 N.2   401  3AT401     -0.0055
     30  C4       -19.5890    6.1920   -8.3560 C.2   401  3AT401      0.3518
@<TRIPOS>BOND
     1    28    27    1
     2    28    29    1
     3    27    25    2
     4    29    30    2
     5    25    26    1
     6    25    24    1
     7    19    18    1
     8    18    17    1
     9    18    20    1
    10    17    15    1
    11    24    30    1
    12    24    23    2
    13    30    21    1
    14    21    20    1
    15    21    22    1
    16    23    22    1
    17     6     5    2
    18    20    16    1
    19    15    14    1
    20    15    16    1
    21    12     5    1
    22    12     9    1
    23    14    13    1
    24     5     8    1
    25     5     7    1
    26    10     9    2
    27     8     1    1
    28    13     9    1
    29     9    11    1
    30     1     2    2
    31     1     3    1
    32     1     4    1
