@<TRIPOS>MOLECULE
4fi6_0U7_A_1.pdb
 22 24 0 0 0
SMALL
GASTEIGER

@<TRIPOS>ATOM
      1  C7         0.8220   -1.4000   -0.4620 C.ar  301  0U7301      0.1036
      2  C8         2.0610   -2.0280   -0.5280 C.ar  301  0U7301      0.0181
      3  O4         0.5880   -2.2300    1.8720 O.3   301  0U7301     -0.0734
      4  O5         0.1020    0.0720    1.3540 O.3   301  0U7301     -0.0734
      5  S3         0.0260   -1.2960    0.9280 S.3   301  0U7301      0.0045
      6  C9         2.7580   -2.1060   -1.7260 C.ar  301  0U7301      0.0015
      7  C10        2.2060   -1.5530   -2.8740 C.ar  301  0U7301      0.0048
      8  C11        0.9740   -0.9200   -2.8000 C.ar  301  0U7301      0.0564
      9  C12        0.2900   -0.8180   -1.6030 C.ar  301  0U7301      0.0228
     10  C13        0.4020   -0.2990   -4.0200 C.ar  301  0U7301      0.2500
     11  O14        0.6540   -0.7100   -5.3040 O.2   301  0U7301     -0.4157
     12  C15       -0.0380    0.1280   -6.1270 C.ar  301  0U7301      0.2500
     13  N16       -0.7120    1.0430   -5.4110 N.ar  301  0U7301     -0.1069
     14  N17       -0.4390    0.7580   -4.0600 N.ar  301  0U7301     -0.1069
     15  C19       -0.0220    0.0430   -7.5890 C.ar  301  0U7301      0.0568
     16  C20       -0.3330    1.1480   -8.3350 C.ar  301  0U7301      0.0161
     17  C21       -0.2960    1.0490   -9.7080 C.ar  301  0U7301      0.0587
     18  C22        0.0480   -0.1020  -10.3430 C.ar  301  0U7301      0.0228
     19  C23        0.3490   -1.1810   -9.5730 C.ar  301  0U7301      0.0587
     20  C24        0.3390   -1.1310   -8.1970 C.ar  301  0U7301      0.0161
     21 CL1        -0.6850    2.4590  -10.6950 Cl    301  0U7301     -0.0822
     22 CL2         0.7680   -2.6880  -10.3860 Cl    301  0U7301     -0.0822
@<TRIPOS>BOND
     1    21    17    1
     2    22    19    1
     3    18    17   ar
     4    18    19   ar
     5    17    16   ar
     6    19    20   ar
     7    16    15   ar
     8    20    15   ar
     9    15    12    1
    10    12    13   ar
    11    12    11   ar
    12    13    14   ar
    13    11    10   ar
    14    14    10   ar
    15    10     8    1
    16     7     8   ar
    17     7     6   ar
    18     8     9   ar
    19     6     2   ar
    20     9     1   ar
    21     2     1   ar
    22     1     5    1
    23     5     4    1
    24     5     3    1
