@<TRIPOS>MOLECULE
4fi7_0UA_A_1.pdb
 23 25 0 0 0
SMALL
GASTEIGER

@<TRIPOS>ATOM
      1  O1        -0.0320   -0.0480  -11.7070 O.3   301  0UA301     -0.2848
      2  C2        -0.0190   -0.0240  -10.3490 C.ar  301  0UA301      0.2165
      3  C3        -0.3590    1.1010   -9.6430 C.ar  301  0UA301      0.0975
      4  C4        -0.3680    1.1820   -8.2750 C.ar  301  0UA301      0.0194
      5  C5        -0.0210    0.0650   -7.5710 C.ar  301  0UA301      0.0570
      6  C6         0.3350   -1.1020   -8.2200 C.ar  301  0UA301      0.0194
      7 CL8         0.7740   -2.6100  -10.4350 Cl    301  0UA301     -0.0789
      8  C7         0.3260   -1.1240   -9.6070 C.ar  301  0UA301      0.0975
      9 CL9        -0.8110    2.5460  -10.4970 Cl    301  0UA301     -0.0789
     10  C10       -0.0190    0.1410   -6.1250 C.ar  301  0UA301      0.2500
     11  O11        0.6950   -0.7020   -5.3580 O.2   301  0UA301     -0.4157
     12  N14       -0.6690    1.0280   -5.3630 N.ar  301  0UA301     -0.1069
     13  N13       -0.3560    0.7240   -4.0250 N.ar  301  0UA301     -0.1069
     14  C12        0.4670   -0.3350   -4.0580 C.ar  301  0UA301      0.2500
     15  C15        1.0590   -1.0160   -2.8960 C.ar  301  0UA301      0.0564
     16  C16        2.2240   -1.7240   -3.0900 C.ar  301  0UA301      0.0048
     17  C17        2.7620   -2.3510   -1.9710 C.ar  301  0UA301      0.0015
     18  C18        2.1290   -2.2610   -0.7250 C.ar  301  0UA301      0.0181
     19  C20        0.4200   -0.9000   -1.6750 C.ar  301  0UA301      0.0228
     20  C19        0.9390   -1.5510   -0.5780 C.ar  301  0UA301      0.1036
     21  S21        0.2190   -1.4230    0.8410 S.3   301  0UA301      0.0045
     22  O23        0.7330   -0.1740    1.3580 O.3   301  0UA301     -0.0734
     23  O22        0.6500   -2.5120    1.6830 O.3   301  0UA301     -0.0734
@<TRIPOS>BOND
     1     1     2    1
     2     9     3    1
     3     7     8    1
     4     2     3   ar
     5     2     8   ar
     6     3     4   ar
     7     8     6   ar
     8     4     5   ar
     9     6     5   ar
    10     5    10    1
    11    10    12   ar
    12    10    11   ar
    13    12    13   ar
    14    11    14   ar
    15    14    13   ar
    16    14    15    1
    17    16    15   ar
    18    16    17   ar
    19    15    19   ar
    20    17    18   ar
    21    19    20   ar
    22    18    20   ar
    23    20    21    1
    24    21    22    1
    25    21    23    1
