@<TRIPOS>MOLECULE
4fi8_0UC_A_1.pdb
 24 26 0 0 0
SMALL
GASTEIGER

@<TRIPOS>ATOM
      1 CL8         0.6760   -2.6750  -10.2700 Cl    301  0UC301     -0.0789
      2  C7         0.2750   -1.1190   -9.5150 C.ar  301  0UC301      0.0975
      3  C2         0.0210   -0.0630  -10.3380 C.ar  301  0UC301      0.2165
      4  O1         0.0930   -0.1870  -11.6840 O.3   301  0UC301     -0.2848
      5  C3        -0.3030    1.1260   -9.7590 C.ar  301  0UC301      0.0975
      6 CL9        -0.6370    2.5160  -10.7920 Cl    301  0UC301     -0.0789
      7  C4        -0.3710    1.2960   -8.3990 C.ar  301  0UC301      0.0194
      8  C6         0.2090   -1.0010   -8.1360 C.ar  301  0UC301      0.0194
      9  C5        -0.1120    0.2320   -7.5820 C.ar  301  0UC301      0.0570
     10  C10       -0.2250    0.3910   -6.1400 C.ar  301  0UC301      0.2500
     11  O11        0.2310   -0.5370   -5.2750 O.2   301  0UC301     -0.4157
     12  N14       -0.8020    1.3950   -5.4730 N.ar  301  0UC301     -0.1069
     13  N13       -0.7310    1.0940   -4.1070 N.ar  301  0UC301     -0.1069
     14  C12       -0.0560   -0.0790   -4.0060 C.ar  301  0UC301      0.2504
     15  C15        0.2310   -0.8060   -2.7460 C.ar  301  0UC301      0.0626
     16  C16        1.3380   -1.6160   -2.4970 C.ar  301  0UC301      0.0392
     17  C17        1.4800   -2.2590   -1.2780 C.ar  301  0UC301      0.0082
     18  C18        0.5220   -2.0970   -0.3040 C.ar  301  0UC301      0.0186
     19  C20       -0.7140   -0.6420   -1.7600 C.ar  301  0UC301      0.0233
     20  C19       -0.5770   -1.2860   -0.5380 C.ar  301  0UC301      0.1036
     21  S21       -1.6960   -1.1410    0.6050 S.3   301  0UC301      0.0045
     22  O23       -2.4090    0.0770    0.3990 O.3   301  0UC301     -0.0734
     23  O22       -1.0410   -1.1680    1.8870 O.3   301  0UC301     -0.0734
     24 BR1         2.7660   -1.9620   -3.6680 Br    301  0UC301     -0.0488
@<TRIPOS>BOND
     1     4     3    1
     2     6     5    1
     3     3     5   ar
     4     3     2   ar
     5     1     2    1
     6     5     7   ar
     7     2     8   ar
     8     7     9   ar
     9     8     9   ar
    10     9    10    1
    11    10    12   ar
    12    10    11   ar
    13    12    13   ar
    14    11    14   ar
    15    13    14   ar
    16    14    15    1
    17    24    16    1
    18    15    16   ar
    19    15    19   ar
    20    16    17   ar
    21    19    20   ar
    22    17    18   ar
    23    20    18   ar
    24    20    21    1
    25    22    21    1
    26    21    23    1
