@<TRIPOS>MOLECULE
4fia_HEM_A_1.pdb
 43 50 0 0 0
SMALL
GASTEIGER

@<TRIPOS>ATOM
      1  CHA        1.8010   29.7350   -8.1160 C.2   600  HEM600      0.0000
      2  CHB       -2.6970   31.6480   -8.6740 C.2   600  HEM600      0.0000
      3  CHC       -0.9420   36.0490   -7.5110 C.2   600  HEM600      0.0000
      4  CHD        3.5740   34.0010   -7.1250 C.2   600  HEM600      0.0000
      5  C1A        0.2970   29.8780   -8.2560 C.ar  600  HEM600      0.0000
      6  C2A       -0.6770   28.7350   -8.3220 C.ar  600  HEM600      0.0000
      7  C3A       -1.8370   29.2960   -8.6770 C.ar  600  HEM600      0.0000
      8  C4A       -1.7270   30.7680   -8.4790 C.ar  600  HEM600      0.0000
      9  CMA       -3.1250   28.5780   -9.0030 C.3   600  HEM600      0.0000
     10  CAA       -0.2510   27.2980   -8.6060 C.3   600  HEM600      0.0000
     11  CBA        0.4470   27.1550   -9.9670 C.3   600  HEM600      0.0000
     12  CGA        0.7340   25.6980  -10.3270 C.2   600  HEM600      0.0000
     13  O1A        1.3220   25.4550  -11.3580 O.co2 600  HEM600      0.0000
     14  O2A        0.3650   24.6590   -9.5790 O.co2 600  HEM600      0.0000
     15  C1B       -2.5970   33.0670   -8.2490 C.2   600  HEM600      0.0000
     16  C2B       -3.6560   33.9090   -8.2970 C.2   600  HEM600      0.0000
     17  C3B       -3.1410   35.2590   -8.0340 C.2   600  HEM600      0.0000
     18  C4B       -1.6920   35.0490   -7.9470 C.2   600  HEM600      0.0000
     19  CMB       -5.0100   33.6230   -8.9450 C.3   600  HEM600      0.0000
     20  CAB       -3.7210   36.4680   -8.1380 C.3   600  HEM600      0.0000
     21  CBB       -5.0930   36.7520   -7.6360 C.3   600  HEM600      0.0000
     22  C1C        0.4820   35.8580   -7.1530 C.ar  600  HEM600      0.0000
     23  C2C        1.3140   36.8560   -6.8550 C.ar  600  HEM600      0.0000
     24  C3C        2.5810   36.1860   -6.5580 C.ar  600  HEM600      0.0000
     25  C4C        2.4420   34.9650   -7.0890 C.ar  600  HEM600      0.0000
     26  CMC        0.9270   38.2750   -6.4820 C.3   600  HEM600      0.0000
     27  CAC        3.9050   36.8460   -6.2230 C.2   600  HEM600      0.0000
     28  CBC        4.0040   37.9960   -5.5600 C.2   600  HEM600      0.0000
     29  C1D        3.3930   32.6830   -7.2670 C.2   600  HEM600      0.0000
     30  C2D        4.5190   31.7210   -7.3280 C.2   600  HEM600      0.0000
     31  C3D        3.9900   30.5130   -7.4370 C.2   600  HEM600      0.0000
     32  C4D        2.5180   30.7000   -7.5370 C.2   600  HEM600      0.0000
     33  CMD        5.9900   32.0680   -7.2840 C.3   600  HEM600      0.0000
     34  CAD        4.7100   29.1730   -7.3080 C.3   600  HEM600      0.0000
     35  CBD        4.5160   28.6590   -5.8790 C.3   600  HEM600      0.0000
     36  CGD        5.3200   27.4150   -5.5430 C.2   600  HEM600      0.0000
     37  O1D        5.9780   27.3870   -4.5100 O.co2 600  HEM600      0.0000
     38  O2D        5.2960   26.3270   -6.3200 O.co2 600  HEM600      0.0000
     39  NA        -0.4600   31.0830   -8.2100 N.ar  600  HEM600      0.0000
     40  NB        -1.4310   33.6980   -7.9550 N.2   600  HEM600      0.0000
     41  NC         1.1650   34.7440   -7.4530 N.ar  600  HEM600      0.0000
     42  ND         2.2840   32.0330   -7.6770 N.2   600  HEM600      0.0000
     43 FE          0.4300   32.8320   -7.6300 Fe    600  HEM600      0.0000
@<TRIPOS>BOND
     1    13    12   ar
     2    12    11    1
     3    12    14   ar
     4    11    10    1
     5     9     7    1
     6    19    16    1
     7     7     8   ar
     8     7     6   ar
     9     2     8    2
    10     2    15    1
    11    10     6    1
    12     8    39   ar
    13     6     5   ar
    14    16    15    1
    15    16    17    2
    16     5    39   ar
    17     5     1    2
    18    15    40    2
    19    39    43    1
    20    20    17    1
    21    20    21    1
    22     1    32    1
    23    17    18    1
    24    40    18    1
    25    40    43    1
    26    18     3    2
    27    42    43    1
    28    42    32    2
    29    42    29    1
    30    43    41    1
    31    32    31    1
    32     3    22    1
    33    41    22   ar
    34    41    25   ar
    35    31    30    2
    36    31    34    1
    37    30    33    1
    38    30    29    1
    39    34    35    1
    40    29     4    2
    41    22    23   ar
    42     4    25    1
    43    25    24   ar
    44    23    24   ar
    45    23    26    1
    46    24    27    1
    47    38    36   ar
    48    27    28    2
    49    35    36    1
    50    36    37   ar
