@<TRIPOS>MOLECULE
4fia_198_A_1.pdb
 29 30 0 0 0
SMALL
GASTEIGER

@<TRIPOS>ATOM
      1  C16       -2.0500   26.8470  -16.7450 C.ar  602  198602      0.0206
      2  C17       -2.0400   27.1680  -15.3930 C.ar  602  198602      0.0310
      3  C18       -1.3070   26.4030  -14.4950 C.ar  602  198602      0.1402
      4  F18       -1.2880   26.7040  -13.1910 F     602  198602     -0.2042
      5  C19       -0.5850   25.3060  -14.9560 C.ar  602  198602      0.0310
      6  C20       -0.6020   24.9920  -16.3120 C.ar  602  198602      0.0206
      7  C15       -1.3370   25.7490  -17.2200 C.ar  602  198602      0.1059
      8  S14       -1.3080   25.3140  -18.8680 S.O2  602  198602      0.0116
      9  O14       -0.6110   23.7700  -19.0100 O.2   602  198602     -0.1685
     10  O15       -2.9060   25.1650  -19.4230 O.2   602  198602     -0.1685
     11  C13       -0.5930   26.4530  -19.8980 C.3   602  198602      0.1951
     12  C11        0.5960   27.3310  -19.5160 C.3   602  198602      0.2184
     13  O11        1.7820   26.7530  -20.0720 O.3   602  198602     -0.2144
     14  C12        0.4060   28.5770  -20.3720 C.3   602  198602      0.0444
     15  C10        0.9220   27.6440  -18.0710 C.2   602  198602      0.2748
     16  O10        1.4230   26.6510  -17.3390 O.2   602  198602     -0.2703
     17  N9         0.7850   28.7620  -17.4590 N.am  602  198602     -0.1771
     18  C1         1.0190   29.1230  -16.1920 C.ar  602  198602      0.0734
     19  C2         1.2560   30.4750  -15.9510 C.ar  602  198602      0.0211
     20  C6         1.0440   28.2680  -15.0930 C.ar  602  198602      0.0173
     21  C5         1.2950   28.7440  -13.8110 C.ar  602  198602      0.0116
     22  C4         1.5300   30.0940  -13.5880 C.ar  602  198602      0.0724
     23  C8         1.7780   30.5090  -12.2400 C.1   602  198602      0.1004
     24  N8         1.9390   30.8440  -11.1370 N.1   602  198602     -0.1908
     25  C3         1.5060   30.9670  -14.6750 C.ar  602  198602      0.0823
     26  C7         1.7580   32.4520  -14.5100 C.3   602  198602      0.4192
     27  F7B        1.5970   33.1030  -15.6900 F     602  198602     -0.1658
     28  F7C        0.8860   32.9730  -13.6120 F     602  198602     -0.1658
     29  F7A        3.0350   32.6050  -14.0980 F     602  198602     -0.1658
@<TRIPOS>BOND
     1    14    12    1
     2    13    12    1
     3    11    12    1
     4    11     8    1
     5    12    15    1
     6    10     8    2
     7     9     8    2
     8     8     7    1
     9    15    17   am
    10    15    16    2
    11    17    18    1
    12     7     1   ar
    13     7     6   ar
    14     1     2   ar
    15     6     5   ar
    16    18    19   ar
    17    18    20   ar
    18    19    25   ar
    19    27    26    1
    20     2     3   ar
    21    20    21   ar
    22     5     3   ar
    23    25    26    1
    24    25    22   ar
    25    26    29    1
    26    26    28    1
    27     3     4    1
    28    21    22   ar
    29    22    23    1
    30    23    24    3
