@<TRIPOS>MOLECULE
4fia_0U9_A_1.pdb
 29 30 0 0 0
SMALL
GASTEIGER

@<TRIPOS>ATOM
      1  F1         2.9430   32.6520  -14.0930 F     601  0U9601     -0.1658
      2  C2         1.6780   32.5220  -14.5540 C.3   601  0U9601      0.4192
      3  F3         1.5620   33.2250  -15.7140 F     601  0U9601     -0.1658
      4  F4         0.7880   33.0430  -13.6720 F     601  0U9601     -0.1658
      5  C5         1.4490   31.0240  -14.7160 C.ar  601  0U9601      0.0823
      6  C6         1.2270   30.5350  -16.0080 C.ar  601  0U9601      0.0211
      7  C7         1.4730   30.1480  -13.6160 C.ar  601  0U9601      0.0724
      8  C8         1.6950   30.5400  -12.2540 C.1   601  0U9601      0.1004
      9  N9         1.8590   30.8300  -11.1520 N.1   601  0U9601     -0.1908
     10  C10        1.2640   28.7900  -13.8310 C.ar  601  0U9601      0.0116
     11  C11        1.0430   28.3360  -15.1290 C.ar  601  0U9601      0.0173
     12  C12        1.0150   29.1700  -16.2490 C.ar  601  0U9601      0.0734
     13  N13        0.7970   28.7860  -17.5230 N.am  601  0U9601     -0.1771
     14  C14        0.9640   27.6570  -18.1340 C.2   601  0U9601      0.2748
     15  O15        1.6090   26.7000  -17.4640 O.2   601  0U9601     -0.2703
     16  C16        0.4630   27.4690  -19.5640 C.3   601  0U9601      0.2184
     17  O17       -0.1250   28.6860  -20.0210 O.3   601  0U9601     -0.2144
     18  C18        1.6470   27.2710  -20.5130 C.3   601  0U9601      0.0444
     19  C19       -0.6200   26.4540  -19.9390 C.3   601  0U9601      0.1951
     20  S20       -1.3030   25.2740  -18.9240 S.O2  601  0U9601      0.0116
     21  O21       -0.5600   23.7520  -19.0620 O.2   601  0U9601     -0.1685
     22  O22       -2.8760   25.0970  -19.5350 O.2   601  0U9601     -0.1685
     23  C23       -1.3910   25.7040  -17.2720 C.ar  601  0U9601      0.1059
     24  C24       -2.1020   26.8200  -16.8200 C.ar  601  0U9601      0.0206
     25  C25       -0.7050   24.9210  -16.3370 C.ar  601  0U9601      0.0206
     26  C26       -0.7330   25.2280  -14.9750 C.ar  601  0U9601      0.0310
     27  C27       -1.4560   26.3430  -14.5430 C.ar  601  0U9601      0.1402
     28  F28       -1.4770   26.6390  -13.2400 F     601  0U9601     -0.2042
     29  C29       -2.1390   27.1340  -15.4640 C.ar  601  0U9601      0.0310
@<TRIPOS>BOND
     1    18    16    1
     2    17    16    1
     3    19    16    1
     4    19    20    1
     5    16    14    1
     6    22    20    2
     7    21    20    2
     8    20    23    1
     9    14    13   am
    10    14    15    2
    11    13    12    1
    12    23    24   ar
    13    23    25   ar
    14    24    29   ar
    15    25    26   ar
    16    12     6   ar
    17    12    11   ar
    18     6     5   ar
    19     3     2    1
    20    29    27   ar
    21    11    10   ar
    22    26    27   ar
    23     5     2    1
    24     5     7   ar
    25     2     1    1
    26     2     4    1
    27    27    28    1
    28    10     7   ar
    29     7     8    1
    30     8     9    3
