@<TRIPOS>MOLECULE
4fid_GDP_A_1.pdb
 28 30 0 0 0
SMALL
GASTEIGER

@<TRIPOS>ATOM
      1  PB         9.0990   10.2920   60.3550 P.3   401  GDP401      0.5373
      2  O1B        8.8420   11.7690   60.5190 O.3   401  GDP401     -0.1143
      3  O2B        8.2250    9.5280   61.3220 O.3   401  GDP401     -0.1143
      4  O3B        8.7390    9.9250   58.9370 O.2   401  GDP401     -0.2221
      5  O3A       10.6500    9.8940   60.6530 O.3   401  GDP401     -0.2261
      6  PA        11.8790   10.9590   60.7420 P.3   401  GDP401      0.2231
      7  O1A       12.3130   11.4250   59.3680 O.2   401  GDP401     -0.5169
      8  O2A       11.5200   12.1500   61.6130 O.3   401  GDP401     -0.4370
      9  O5'       13.0590   10.1220   61.4700 O.3   401  GDP401     -0.3111
     10  C5'       13.6260   10.5970   62.6950 C.3   401  GDP401      0.1813
     11  C4'       15.1120   10.2370   62.8410 C.3   401  GDP401      0.1799
     12  O4'       15.4990    9.1380   62.0040 O.3   401  GDP401     -0.3326
     13  C3'       16.0370   11.4080   62.5060 C.3   401  GDP401      0.2158
     14  O3'       16.9020   11.6780   63.6280 O.3   401  GDP401     -0.2175
     15  C2'       16.8220   10.9510   61.2840 C.3   401  GDP401      0.2310
     16  O2'       18.1550   11.4940   61.2770 O.3   401  GDP401     -0.2158
     17  C1'       16.7660    9.4250   61.4030 C.3   401  GDP401      0.2293
     18  N9        16.9460    8.7260   60.0960 N.pl3 401  GDP401     -0.2354
     19  C8        16.0910    8.6720   59.0510 C.3   401  GDP401      0.2246
     20  N7        16.6050    7.9310   58.0310 N.2   401  GDP401     -0.2322
     21  C5        17.8160    7.4910   58.4200 C.2   401  GDP401      0.2182
     22  C6        18.9090    6.6680   57.8400 C.1   401  GDP401      0.2372
     23  O6        18.8150    6.1820   56.6980 O.2   401  GDP401     -0.2069
     24  N1        20.0100    6.4600   58.5700 N.2   401  GDP401     -0.2485
     25  C2        20.1460    6.9590   59.8150 C.1   401  GDP401      0.2531
     26  N2        21.2820    6.6940   60.4980 N.pl3 401  GDP401     -0.0226
     27  N3        19.1930    7.7180   60.4160 N.2   401  GDP401     -0.3074
     28  C4        18.0320    8.0120   59.7800 C.2   401  GDP401      0.2300
@<TRIPOS>BOND
     1    23    22    2
     2    22    21    1
     3    22    24    2
     4    20    21    2
     5    20    19    1
     6    21    28    1
     7    24    25    2
     8     4     1    2
     9    19    18    1
    10     7     6    2
    11    28    18    1
    12    28    27    2
    13    25    27    2
    14    25    26    1
    15    18    17    1
    16     1     2    1
    17     1     5    1
    18     1     3    1
    19     5     6    1
    20     6     9    1
    21     6     8    1
    22    16    15    1
    23    15    17    1
    24    15    13    1
    25    17    12    1
    26     9    10    1
    27    12    11    1
    28    13    11    1
    29    13    14    1
    30    10    11    1
