@<TRIPOS>MOLECULE
4fie_ANP_A_1.pdb
 31 33 0 0 0
SMALL
GASTEIGER

@<TRIPOS>ATOM
      1  PG        24.4930  -24.8070   16.2260 P.3   1001  ANP1001     0.4884
      2  O1G       24.6970  -26.3010   16.1690 O.3   1001  ANP1001    -0.1240
      3  O2G       25.5370  -24.0200   15.4730 O.2   1001  ANP1001    -0.2331
      4  O3G       23.0780  -24.3660   15.9400 O.3   1001  ANP1001    -0.1240
      5  PB        25.2410  -25.6770   19.0340 P.3   1001  ANP1001     0.4669
      6  O1B       26.3270  -26.4910   18.3750 O.2   1001  ANP1001    -0.2351
      7  O2B       23.9980  -26.4120   19.4760 O.3   1001  ANP1001    -0.1253
      8  N3B       24.7570  -24.4210   17.9130 N.3   1001  ANP1001    -0.0163
      9  PA        25.0890  -24.4000   21.5740 P.3   1001  ANP1001     0.2220
     10  O1A       24.0620  -25.4280   21.9910 O.3   1001  ANP1001    -0.4370
     11  O2A       24.6570  -22.9950   21.2390 O.2   1001  ANP1001    -0.5170
     12  O3A       25.9280  -24.9850   20.3240 O.3   1001  ANP1001    -0.2360
     13  O5'       26.2080  -24.2750   22.7280 O.3   1001  ANP1001    -0.3111
     14  C5'       25.9230  -24.5820   24.0930 C.3   1001  ANP1001     0.1813
     15  C4'       25.1980  -23.4290   24.7830 C.3   1001  ANP1001     0.1821
     16  O4'       26.0740  -22.3150   24.9790 O.3   1001  ANP1001    -0.3135
     17  C3'       24.0110  -22.9140   23.9810 C.3   1001  ANP1001     0.2184
     18  O3'       22.7830  -23.4650   24.4740 O.3   1001  ANP1001    -0.2174
     19  C2'       24.0400  -21.4050   24.1420 C.3   1001  ANP1001     0.2570
     20  O2'       22.9190  -20.9620   24.9140 O.3   1001  ANP1001    -0.2130
     21  C1'       25.3420  -21.0890   24.8710 C.3   1001  ANP1001     0.3186
     22  N9        26.1280  -20.0510   24.1430 N.pl3 1001  ANP1001    -0.1439
     23  C8        26.4650  -20.0770   22.8350 C.3   1001  ANP1001     0.3377
     24  N7        27.1800  -18.9750   22.4880 N.2   1001  ANP1001    -0.2095
     25  C5        27.3190  -18.2130   23.5930 C.2   1001  ANP1001     0.2526
     26  C6        27.9620  -16.9130   23.9310 C.2   1001  ANP1001     0.4393
     27  N6        28.6240  -16.1890   22.9940 N.pl3 1001  ANP1001     0.2180
     28  N1        27.8670  -16.4730   25.2100 N.2   1001  ANP1001     0.0021
     29  C2        27.2130  -17.1780   26.1580 C.3   1001  ANP1001     0.5254
     30  N3        26.6070  -18.3600   25.9210 N.2   1001  ANP1001    -0.0055
     31  C4        26.6210  -18.9250   24.6820 C.2   1001  ANP1001     0.3518
@<TRIPOS>BOND
     1     3     1    2
     2     4     1    1
     3     2     1    1
     4     1     8    1
     5     8     5    1
     6     6     5    2
     7     5     7    1
     8     5    12    1
     9    12     9    1
    10    11     9    2
    11     9    10    1
    12     9    13    1
    13    24    23    1
    14    24    25    2
    15    13    14    1
    16    23    22    1
    17    27    26    1
    18    25    26    1
    19    25    31    1
    20    26    28    2
    21    17    19    1
    22    17    18    1
    23    17    15    1
    24    14    15    1
    25    19    21    1
    26    19    20    1
    27    22    31    1
    28    22    21    1
    29    31    30    2
    30    15    16    1
    31    21    16    1
    32    28    29    1
    33    30    29    1
