@<TRIPOS>MOLECULE
4fif_ANP_A_1.pdb
 31 33 0 0 0
SMALL
GASTEIGER

@<TRIPOS>ATOM
      1  PG        45.9730  -16.4080   21.4960 P.3   1000  ANP1000     0.4884
      2  O1G       45.2080  -17.4800   20.8180 O.2   1000  ANP1000    -0.2331
      3  O2G       47.5430  -16.5880   21.1810 O.3   1000  ANP1000    -0.1240
      4  O3G       45.4820  -14.9710   20.9570 O.3   1000  ANP1000    -0.1240
      5  PB        45.3900  -15.0770   24.1820 P.3   1000  ANP1000     0.4669
      6  O1B       46.6610  -14.3870   24.5010 O.3   1000  ANP1000    -0.1253
      7  O2B       44.4550  -14.0870   23.3280 O.2   1000  ANP1000    -0.2351
      8  N3B       45.7190  -16.5060   23.2280 N.3   1000  ANP1000    -0.0163
      9  PA        45.1620  -16.6810   26.4990 P.3   1000  ANP1000     0.2220
     10  O1A       44.2470  -17.8700   26.3090 O.3   1000  ANP1000    -0.4370
     11  O2A       46.6450  -16.8380   26.2630 O.2   1000  ANP1000    -0.5170
     12  O3A       44.6360  -15.4830   25.5530 O.3   1000  ANP1000    -0.2360
     13  O5'       44.9780  -16.1120   27.9970 O.3   1000  ANP1000    -0.3111
     14  C5'       43.9620  -16.6070   28.8700 C.3   1000  ANP1000     0.1813
     15  C4'       44.5780  -17.2240   30.1220 C.3   1000  ANP1000     0.1821
     16  O4'       43.9370  -18.4640   30.4420 O.3   1000  ANP1000    -0.3135
     17  C3'       46.0510  -17.5250   29.9240 C.3   1000  ANP1000     0.2184
     18  O3'       46.7480  -17.1310   31.1100 O.3   1000  ANP1000    -0.2174
     19  C2'       46.1240  -19.0280   29.7270 C.3   1000  ANP1000     0.2570
     20  O2'       47.2800  -19.5870   30.3580 O.3   1000  ANP1000    -0.2130
     21  C1'       44.8440  -19.5720   30.3480 C.3   1000  ANP1000     0.3186
     22  N9        44.2450  -20.6650   29.5280 N.pl3 1000  ANP1000    -0.1439
     23  C8        44.0120  -20.6290   28.1960 C.3   1000  ANP1000     0.3377
     24  N7        43.4550  -21.7910   27.7580 N.2   1000  ANP1000    -0.2095
     25  C5        43.3130  -22.6000   28.8250 C.2   1000  ANP1000     0.2526
     26  C6        42.7940  -23.9710   29.0690 C.2   1000  ANP1000     0.4393
     27  N6        42.2980  -24.7260   28.0600 N.pl3 1000  ANP1000     0.2180
     28  N1        42.8350  -24.4450   30.3390 N.2   1000  ANP1000     0.0021
     29  C2        43.3270  -23.7100   31.3570 C.3   1000  ANP1000     0.5254
     30  N3        43.8120  -22.4610   31.2060 N.2   1000  ANP1000    -0.0055
     31  C4        43.8360  -21.8570   29.9890 C.2   1000  ANP1000     0.3518
@<TRIPOS>BOND
     1     2     1    2
     2     4     1    1
     3     3     1    1
     4     1     8    1
     5     8     5    1
     6     7     5    2
     7     5     6    1
     8     5    12    1
     9    12     9    1
    10    11     9    2
    11    10     9    1
    12     9    13    1
    13    24    23    1
    14    24    25    2
    15    13    14    1
    16    27    26    1
    17    23    22    1
    18    25    26    1
    19    25    31    1
    20    14    15    1
    21    26    28    2
    22    22    31    1
    23    22    21    1
    24    19    17    1
    25    19    21    1
    26    19    20    1
    27    17    15    1
    28    17    18    1
    29    31    30    2
    30    15    16    1
    31    28    29    1
    32    21    16    1
    33    30    29    1
