@<TRIPOS>MOLECULE
4fig_ANP_A_1.pdb
 31 33 0 0 0
SMALL
GASTEIGER

@<TRIPOS>ATOM
      1  PG        33.9390   -8.8500  -16.6770 P.3   1001  ANP1001     0.4884
      2  O1G       35.3890   -8.4430  -16.5660 O.2   1001  ANP1001    -0.2331
      3  O2G       33.6220  -10.1680  -16.0100 O.3   1001  ANP1001    -0.1240
      4  O3G       32.9660   -7.7470  -16.3280 O.3   1001  ANP1001    -0.1240
      5  PB        35.0140   -8.8820  -19.5290 P.3   1001  ANP1001     0.4669
      6  O1B       36.3120   -9.1560  -18.8080 O.3   1001  ANP1001    -0.1253
      7  O2B       34.8410   -7.5240  -20.1710 O.2   1001  ANP1001    -0.2351
      8  N3B       33.7010   -9.1300  -18.3920 N.3   1001  ANP1001    -0.0163
      9  PA        33.4790  -10.2980  -21.4170 P.3   1001  ANP1001     0.2220
     10  O1A       32.7910   -8.9820  -21.7010 O.2   1001  ANP1001    -0.5170
     11  O2A       32.7690  -11.3500  -20.6000 O.3   1001  ANP1001    -0.4370
     12  O3A       34.8920   -9.9830  -20.7060 O.3   1001  ANP1001    -0.2360
     13  O5'       33.8960  -10.9960  -22.8100 O.3   1001  ANP1001    -0.3111
     14  C5'       34.2310  -10.2390  -23.9750 C.3   1001  ANP1001     0.1813
     15  C4'       33.2350  -10.4680  -25.1130 C.3   1001  ANP1001     0.1821
     16  O4'       32.8160  -11.8370  -25.1960 O.3   1001  ANP1001    -0.3135
     17  C3'       31.9800   -9.6210  -24.9370 C.3   1001  ANP1001     0.2184
     18  O3'       31.9760   -8.5240  -25.8600 O.3   1001  ANP1001    -0.2174
     19  C2'       30.8070  -10.5630  -25.1650 C.3   1001  ANP1001     0.2570
     20  O2'       29.9610  -10.1130  -26.2310 O.3   1001  ANP1001    -0.2130
     21  C1'       31.4150  -11.9250  -25.4860 C.3   1001  ANP1001     0.3186
     22  N9        30.7490  -12.9710  -24.6580 N.pl3 1001  ANP1001    -0.1439
     23  C8        30.8740  -13.1170  -23.3200 C.3   1001  ANP1001     0.3377
     24  N7        30.1320  -14.1590  -22.8580 N.2   1001  ANP1001    -0.2095
     25  C5        29.5070  -14.7030  -23.9180 C.2   1001  ANP1001     0.2526
     26  C6        28.5690  -15.8310  -24.1330 C.2   1001  ANP1001     0.4393
     27  N6        28.1550  -16.5980  -23.0960 N.pl3 1001  ANP1001     0.2180
     28  N1        28.1480  -16.0690  -25.3970 N.2   1001  ANP1001     0.0021
     29  C2        28.5630  -15.3100  -26.4320 C.3   1001  ANP1001     0.5254
     30  N3        29.4130  -14.2680  -26.3090 N.2   1001  ANP1001    -0.0055
     31  C4        29.9130  -13.9170  -25.1000 C.2   1001  ANP1001     0.3518
@<TRIPOS>BOND
     1    29    30    1
     2    29    28    1
     3    30    31    2
     4    20    19    1
     5    18    17    1
     6    21    16    1
     7    21    19    1
     8    21    22    1
     9    28    26    2
    10    16    15    1
    11    19    17    1
    12    15    17    1
    13    15    14    1
    14    31    22    1
    15    31    25    1
    16    22    23    1
    17    26    25    1
    18    26    27    1
    19    14    13    1
    20    25    24    2
    21    23    24    1
    22    13     9    1
    23    10     9    2
    24     9    12    1
    25     9    11    1
    26    12     5    1
    27     7     5    2
    28     5     6    1
    29     5     8    1
    30     8     1    1
    31     1     2    2
    32     1     4    1
    33     1     3    1
