@<TRIPOS>MOLECULE
4fii_III_B_1.pdb
 49 50 0 0 0
SMALL
GASTEIGER

@<TRIPOS>ATOM
      1  N         31.1220  -22.5300   -5.0990 N.3    49  ARG49      -0.1231
      2  CA        29.9520  -21.7630   -4.4970 C.3    49  ARG49       0.1679
      3  C         28.6890  -22.6520   -4.2960 C.2    49  ARG49       0.2434
      4  O         28.3940  -23.4980   -5.1760 O.2    49  ARG49      -0.2733
      5  CB        29.6060  -20.5250   -5.3740 C.3    49  ARG49       0.0321
      6  CG        30.6220  -19.3780   -5.3190 C.3    49  ARG49       0.0489
      7  CD        30.8420  -18.8750   -3.8630 C.3    49  ARG49       0.2205
      8  NE        29.8760  -17.8460   -3.4710 N.pl3  49  ARG49      -0.0865
      9  CZ        29.8640  -17.1740   -2.3170 C.cat  49  ARG49       0.5346
     10  NH1       30.8270  -17.3660   -1.4070 N.pl3  49  ARG49       0.1354
     11  NH2       28.9080  -16.2510   -2.0940 N.pl3  49  ARG49       0.1354
     12  N         27.9280  -22.4640   -3.1680 N.am   50  PRO50      -0.2718
     13  CA        26.7360  -23.3320   -3.0130 C.3    50  PRO50       0.1535
     14  C         25.6620  -23.0360   -4.1020 C.2    50  PRO50       0.2598
     15  O         25.4510  -21.8650   -4.4920 O.2    50  PRO50      -0.2715
     16  CB        26.2220  -22.9800   -1.6030 C.3    50  PRO50       0.0310
     17  CG        26.5830  -21.5440   -1.4350 C.3    50  PRO50       0.0237
     18  CD        27.8900  -21.3400   -2.2060 C.3    50  PRO50       0.0939
     19  N         25.0120  -24.0820   -4.6090 N.am   51  LYS51      -0.1964
     20  CA        24.0890  -23.9270   -5.7410 C.3    51  LYS51       0.1713
     21  C         22.7000  -23.4230   -5.2280 C.2    51  LYS51       0.2458
     22  O         22.3800  -23.5890   -4.0370 O.2    51  LYS51      -0.2730
     23  CB        24.0940  -25.2430   -6.5600 C.3    51  LYS51       0.0311
     24  CG        22.9150  -25.5640   -7.4820 C.3    51  LYS51       0.0038
     25  CD        23.0780  -26.9640   -8.0840 C.3    51  LYS51       0.0206
     26  CE        23.4970  -27.9760   -7.0250 C.3    51  LYS51       0.1093
     27  NZ        23.8490  -29.2670   -7.6580 N.3    51  LYS51      -0.1314
     28  N         21.9040  -22.7250   -6.0840 N.am   52  PRO52      -0.2716
     29  CA        20.5330  -22.4450   -5.5830 C.3    52  PRO52       0.1536
     30  C         19.6940  -23.7400   -5.3750 C.2    52  PRO52       0.2598
     31  O         19.8900  -24.7220   -6.1180 O.2    52  PRO52      -0.2715
     32  CB        19.9350  -21.5510   -6.6760 C.3    52  PRO52       0.0310
     33  CG        21.1120  -20.9180   -7.3560 C.3    52  PRO52       0.0237
     34  CD        22.2040  -21.9680   -7.3230 C.3    52  PRO52       0.0939
     35  N         18.8380  -23.7510   -4.3330 N.am   53  LEU53      -0.1964
     36  CA        17.8540  -24.8260   -4.0850 C.3    53  LEU53       0.1728
     37  C         16.4930  -24.3570   -4.6490 C.2    53  LEU53       0.2616
     38  O         16.0370  -23.2570   -4.3170 O.2    53  LEU53      -0.2715
     39  CB        17.7530  -25.1970   -2.5780 C.3    53  LEU53       0.0311
     40  CG        16.9720  -26.4880   -2.1810 C.3    53  LEU53       0.0022
     41  CD1       17.4660  -27.7630   -2.9050 C.3    53  LEU53       0.0001
     42  CD2       16.9340  -26.7140   -0.6630 C.3    53  LEU53       0.0001
     43  N         15.8690  -25.1650   -5.5230 N.am   54  VAL54      -0.1977
     44  CA        14.6050  -24.7500   -6.2010 C.3    54  VAL54       0.1596
     45  C         13.4200  -25.6270   -5.7790 C.2    54  VAL54       0.2287
     46  O         13.2780  -26.7410   -6.2580 O.2    54  VAL54      -0.2864
     47  CB        14.7230  -24.6570   -7.7710 C.3    54  VAL54       0.0276
     48  CG1       13.5580  -23.8770   -8.3870 C.3    54  VAL54       0.0022
     49  CG2       16.0470  -24.0350   -8.2100 C.3    54  VAL54       0.0022
@<TRIPOS>BOND
     1    48    47    1
     2    49    47    1
     3    25    24    1
     4    25    26    1
     5    47    44    1
     6    27    26    1
     7    24    23    1
     8    33    34    1
     9    33    32    1
    10    34    28    1
    11    32    29    1
    12    23    20    1
    13    46    45    2
    14    44    45    1
    15    44    43    1
    16    31    30    2
    17    28    29    1
    18    28    21   am
    19    20    21    1
    20    20    19    1
    21    29    30    1
    22    43    37   am
    23    30    35   am
    24     5     6    1
    25     5     2    1
    26     6     7    1
    27    21    22    2
    28     4     3    2
    29     1     2    1
    30    37    38    2
    31    37    36    1
    32    19    14   am
    33     2     3    1
    34    15    14    2
    35    35    36    1
    36     3    12   am
    37    14    13    1
    38    36    39    1
    39     7     8    1
    40     8     9    2
    41    12    13    1
    42    12    18    1
    43    13    16    1
    44    41    40    1
    45    39    40    1
    46     9    11    1
    47     9    10    1
    48    18    17    1
    49    40    42    1
    50    16    17    1
