@<TRIPOS>MOLECULE
4fik_TH7_A_1.pdb
 10 10 0 0 0
SMALL
GASTEIGER

@<TRIPOS>ATOM
      1  C1        -6.5590    3.5860   16.1290 C.ar  302  TH7302      0.0846
      2  O1        -6.9160    1.6680   17.6780 O.3   302  TH7302     -0.2858
      3  S1        -4.8500   -0.1000   16.4470 S.3   302  TH7302      0.1521
      4  C2        -6.2530    2.2160   16.5370 C.ar  302  TH7302      0.2078
      5  C3        -5.2560    1.4830   15.9470 C.ar  302  TH7302      0.1078
      6  O3        -6.3350    5.4180   14.8230 O.3   302  TH7302     -0.2865
      7  C4        -4.5370    2.1510   14.8390 C.ar  302  TH7302      0.0161
      8  O4        -6.0520   -0.2520   17.1860 O.2   302  TH7302     -0.2379
      9  C5        -4.9620    3.4580   14.4780 C.ar  302  TH7302      0.0428
     10  C6        -5.9330    4.0900   15.1640 C.ar  302  TH7302      0.1990
@<TRIPOS>BOND
     1     9     7   ar
     2     9    10   ar
     3     6    10    1
     4     7     5   ar
     5    10     1   ar
     6     5     3    1
     7     5     4   ar
     8     1     4   ar
     9     3     8    2
    10     4     2    1
