@<TRIPOS>MOLECULE
4fik_D2S_A_1.pdb
 18 19 0 0 0
SMALL
GASTEIGER

@<TRIPOS>ATOM
      1  C1       -11.0140   12.0650    8.0560 C.ar  304  D2S304      0.0845
      2  O1       -11.4920    9.8800    7.2140 O.3   304  D2S304     -0.2859
      3  S1        -8.7170    9.1200    6.6690 S.3   304  D2S304     -0.0474
      4  C2       -10.5910   10.8180    7.5060 C.ar  304  D2S304      0.2053
      5  S2        -9.0760    7.7580    8.0980 S.3   304  D2S304     -0.0474
      6  C3        -9.2600   10.5940    7.3390 C.ar  304  D2S304      0.0748
      7  O3       -10.4900   14.1820    8.9810 O.3   304  D2S304     -0.2865
      8  C4        -8.3140   11.5830    7.7120 C.ar  304  D2S304      0.0135
      9  O4        -6.7190    6.1190    7.4000 O.3   304  D2S304     -0.2859
     10  C5        -8.6810   12.7600    8.2270 C.ar  304  D2S304      0.0428
     11  O5        -4.3330    7.0950   11.3320 O.3   304  D2S304     -0.2865
     12  C6       -10.0970   13.0090    8.3990 C.ar  304  D2S304      0.1990
     13  C7        -5.5720    6.5610    9.4200 C.ar  304  D2S304      0.0845
     14  C8        -6.6730    6.7620    8.6610 C.ar  304  D2S304      0.2053
     15  C9        -7.6970    7.6280    9.0440 C.ar  304  D2S304      0.0748
     16  C10       -7.6340    8.2660   10.3510 C.ar  304  D2S304      0.0135
     17  C11       -6.5500    8.0010   11.1480 C.ar  304  D2S304      0.0428
     18  C12       -5.5320    7.2350   10.6770 C.ar  304  D2S304      0.1990
@<TRIPOS>BOND
     1     3     6    1
     2     3     5    1
     3     2     4    1
     4     6     4   ar
     5     6     8   ar
     6     9    14    1
     7     4     1   ar
     8     8    10   ar
     9     1    12   ar
    10     5    15    1
    11    10    12   ar
    12    12     7    1
    13    14    15   ar
    14    14    13   ar
    15    15    16   ar
    16    13    18   ar
    17    16    17   ar
    18    18    17   ar
    19    18    11    1
