@<TRIPOS>MOLECULE
4fim_CEL_A_1.pdb
 26 28 0 0 0
SMALL
GASTEIGER

@<TRIPOS>ATOM
      1  S1        14.9240   18.2610   17.5580 S.O2  711  CEL711      0.0935
      2  C15       13.8280   17.0650   16.8650 C.ar  711  CEL711      0.1251
      3  C14       12.4640   17.2950   17.0320 C.ar  711  CEL711      0.0216
      4  C13       11.5250   16.3990   16.5300 C.ar  711  CEL711      0.0205
      5  C12       11.9220   15.2470   15.8400 C.ar  711  CEL711      0.0829
      6  C17       13.3170   14.9910   15.6530 C.ar  711  CEL711      0.0205
      7  C16       14.2890   15.9080   16.1660 C.ar  711  CEL711      0.0216
      8  N2        10.8650   14.4010   15.4030 N.ar  711  CEL711     -0.2297
      9  C3        10.4500   13.9670   14.1320 C.ar  711  CEL711      0.0842
     10  C5        10.9720   14.2490   12.7440 C.ar  711  CEL711      0.0177
     11  C10       10.0040   14.4860   11.7100 C.ar  711  CEL711      0.0012
     12  C9        10.4030   14.7460   10.3980 C.ar  711  CEL711     -0.0042
     13  C8        11.7660   14.7750   10.0720 C.ar  711  CEL711     -0.0218
     14  C11       12.1580   15.0640    8.6450 C.3   711  CEL711      0.0310
     15  C7        12.7430   14.5420   11.0770 C.ar  711  CEL711     -0.0042
     16  C6        12.3530   14.2740   12.4080 C.ar  711  CEL711      0.0012
     17  C2         9.3460   13.1660   14.3520 C.ar  711  CEL711      0.0440
     18  C1         9.0860   13.0940   15.6980 C.ar  711  CEL711      0.1740
     19  C4         7.9570   12.3080   16.3360 C.3   711  CEL711      0.4366
     20  F3         7.3090   13.2540   17.4330 F     711  CEL711     -0.1643
     21  F2         6.9630   12.2320   15.4190 F     711  CEL711     -0.1643
     22  F1         8.4540   11.4350   16.9090 F     711  CEL711     -0.1643
     23  N1         9.9760   13.8160   16.3190 N.ar  711  CEL711     -0.1611
     24  N3        14.2930   18.6670   19.0400 N.3   711  CEL711      0.0392
     25  O2        16.1640   17.6180   17.7910 O.2   711  CEL711     -0.1503
     26  O1        14.7850   19.4140   16.7650 O.2   711  CEL711     -0.1503
@<TRIPOS>BOND
     1    14    13    1
     2    13    12   ar
     3    13    15   ar
     4    12    11   ar
     5    15    16   ar
     6    11    10   ar
     7    16    10   ar
     8    10     9    1
     9     9    17   ar
    10     9     8   ar
    11    17    18   ar
    12     8     5    1
    13     8    23   ar
    14    21    19    1
    15     6     5   ar
    16     6     7   ar
    17    18    23   ar
    18    18    19    1
    19     5     4   ar
    20     7     2   ar
    21    19    22    1
    22    19    20    1
    23     4     3   ar
    24    26     1    2
    25     2     3   ar
    26     2     1    1
    27     1    25    2
    28     1    24    1
