@<TRIPOS>MOLECULE
4fim_III_B_1.pdb
 45 45 0 0 0
SMALL
GASTEIGER

@<TRIPOS>ATOM
      1  N          4.9570    7.7680   32.0900 N.3   681  LEU681     -0.1231
      2  CA         5.0280    9.1640   32.5070 C.3   681  LEU681      0.1693
      3  C          6.1100    9.4010   33.5730 C.2   681  LEU681      0.2592
      4  O          6.9320   10.3150   33.4370 O.2   681  LEU681     -0.2718
      5  CB         3.6570    9.6560   33.0150 C.3   681  LEU681      0.0284
      6  CG         2.5480   10.0980   32.0440 C.3   681  LEU681      0.0019
      7  CD1        1.8050    8.9170   31.4320 C.3   681  LEU681      0.0001
      8  CD2        1.5670   11.0190   32.7590 C.3   681  LEU681      0.0001
      9  N          6.1240    8.5440   34.5970 N.am  682  GLU682     -0.1966
     10  CA         6.7830    8.8350   35.8850 C.3   682  GLU682      0.1733
     11  C          8.3080    8.5850   35.9570 C.2   682  GLU682      0.2616
     12  O          9.0610    9.0620   35.1050 O.2   682  GLU682     -0.2715
     13  CB         6.0370    8.1230   37.0380 C.3   682  GLU682      0.0429
     14  CG         4.5070    8.1390   36.9440 C.3   682  GLU682      0.1163
     15  CD         3.8970    9.5240   37.1280 C.2   682  GLU682      0.3649
     16  OE1        4.1920   10.4390   36.3260 O.co2 682  GLU682     -0.2457
     17  OE2        3.1000    9.7030   38.0730 O.co2 682  GLU682     -0.2457
     18  N          8.7470    7.8500   36.9800 N.am  683  ALA683     -0.1963
     19  CA        10.1680    7.6910   37.3110 C.3   683  ALA683      0.1728
     20  C         10.9980    6.9300   36.2560 C.2   683  ALA683      0.2616
     21  O         10.4700    6.4040   35.2660 O.2   683  ALA683     -0.2715
     22  CB        10.3000    7.0290   38.6840 C.3   683  ALA683      0.0334
     23  N         12.3090    6.8810   36.4710 N.am  684  CYS684     -0.1954
     24  CA        13.1670    5.9750   35.7070 C.3   684  CYS684      0.1843
     25  C         12.7590    4.4810   35.9420 C.2   684  CYS684      0.2625
     26  O         12.5210    4.0890   37.0760 O.2   684  CYS684     -0.2714
     27  CB        14.6290    6.2190   36.0930 C.3   684  CYS684      0.0997
     28  SG        15.8340    5.0180   35.4630 S.3   684  CYS684     -0.0797
     29  N         12.6880    3.6800   34.8670 N.am  685  ALA685     -0.1963
     30  CA        12.4070    2.2230   34.9290 C.3   685  ALA685      0.1728
     31  C         13.3830    1.3630   35.7620 C.2   685  ALA685      0.2617
     32  O         13.0690    0.2090   36.0810 O.2   685  ALA685     -0.2715
     33  CB        12.2570    1.6320   33.5240 C.3   685  ALA685      0.0334
     34  N         14.5510    1.9040   36.1080 N.am  686  PHE686     -0.1938
     35  CA        15.5740    1.1230   36.8250 C.3   686  PHE686      0.2021
     36  C         15.8260    1.6080   38.2470 C.2   686  PHE686      0.3845
     37  O         16.6030    0.9550   38.9730 O.co2 686  PHE686     -0.2437
     38  CB        16.8950    1.1010   36.0480 C.3   686  PHE686      0.0596
     39  CG        16.7410    0.7060   34.6100 C.ar  686  PHE686     -0.0199
     40  CD1       16.4090   -0.6130   34.2630 C.ar  686  PHE686     -0.0042
     41  CD2       16.9250    1.6480   33.5820 C.ar  686  PHE686     -0.0042
     42  CE1       16.2410   -0.9670   32.9270 C.ar  686  PHE686     -0.0003
     43  CE2       16.7920    1.2740   32.2490 C.ar  686  PHE686     -0.0003
     44  CZ        16.4370   -0.0200   31.9230 C.ar  686  PHE686     -0.0000
     45  OXT       15.2780    2.6420   38.6540 O.co2 686  PHE686     -0.2437
@<TRIPOS>BOND
     1     7     6    1
     2    44    43   ar
     3    44    42   ar
     4     6     8    1
     5     6     5    1
     6     1     2    1
     7    43    41   ar
     8     2     5    1
     9     2     3    1
    10    42    40   ar
    11     4     3    2
    12    33    30    1
    13     3     9   am
    14    41    39   ar
    15    40    39   ar
    16     9    10    1
    17    39    38    1
    18    29    30    1
    19    29    25   am
    20    30    31    1
    21    12    11    2
    22    21    20    2
    23    28    27    1
    24    24    25    1
    25    24    27    1
    26    24    23    1
    27    31    32    2
    28    31    34   am
    29    10    11    1
    30    10    13    1
    31    25    26    2
    32    11    18   am
    33    38    35    1
    34    34    35    1
    35    20    23   am
    36    20    19    1
    37    16    15   ar
    38    35    36    1
    39    14    13    1
    40    14    15    1
    41    18    19    1
    42    15    17   ar
    43    19    22    1
    44    36    45   ar
    45    36    37   ar
