@<TRIPOS>MOLECULE
4fir_R5P_A_1.pdb
 13 12 0 0 0
SMALL
GASTEIGER

@<TRIPOS>ATOM
      1  C1        12.4760  -22.6160    3.7730 C.3   401  R5P401      0.0383
      2  C2        12.7480  -24.1160    3.7770 C.3   401  R5P401      0.1849
      3  O2        11.5720  -24.9060    3.6000 O.3   401  R5P401     -0.2203
      4  C3        13.2840  -24.5190    5.1180 C.3   401  R5P401      0.2147
      5  O3        13.8770  -25.7740    4.8620 O.3   401  R5P401     -0.2176
      6  C4        12.2490  -24.7970    6.1840 C.3   401  R5P401      0.2146
      7  O4        11.1090  -23.9140    6.1590 O.3   401  R5P401     -0.2176
      8  C5        13.0210  -24.6510    7.4810 C.3   401  R5P401      0.1892
      9  O5        12.4760  -25.4830    8.4990 O.3   401  R5P401     -0.2674
     10  P         13.1390  -25.4010    9.9570 P.3   401  R5P401      0.5327
     11  O1P       12.1550  -24.6140   10.7930 O.3   401  R5P401     -0.1145
     12  O2P       13.3280  -26.8510   10.4000 O.3   401  R5P401     -0.1145
     13  O3P       14.3860  -24.6420    9.5860 O.2   401  R5P401     -0.2224
@<TRIPOS>BOND
     1     3     2    1
     2     1     2    1
     3     2     4    1
     4     5     4    1
     5     4     6    1
     6     7     6    1
     7     6     8    1
     8     8     9    1
     9     9    10    1
    10    13    10    2
    11    10    12    1
    12    10    11    1
