@<TRIPOS>MOLECULE
4fiy_UDP_A_1.pdb
 25 26 0 0 0
SMALL
GASTEIGER

@<TRIPOS>ATOM
      1  N1       142.1510   29.5970   48.4060 N.am  701  UDP701     -0.1766
      2  C2       142.1540   28.2230   48.5940 C.1   701  UDP701      0.2845
      3  N3       143.1260   27.4440   47.9950 N.2   701  UDP701     -0.2452
      4  C4       144.0940   28.0260   47.2010 C.1   701  UDP701      0.2182
      5  C5       144.0920   29.4020   47.0050 C.2   701  UDP701      0.1242
      6  C6       143.2020   30.1840   47.7410 C.2   701  UDP701      0.0929
      7  O2       141.2980   27.6870   49.2930 O.2   701  UDP701     -0.1918
      8  O4       144.9520   27.3250   46.6810 O.2   701  UDP701     -0.2085
      9  C1'      141.0900   30.4170   49.0390 C.3   701  UDP701      0.2401
     10  C2'      141.5410   31.1030   50.3220 C.3   701  UDP701      0.2319
     11  O2'      141.1060   30.3800   51.4520 O.3   701  UDP701     -0.2157
     12  C3'      140.9040   32.4840   50.2490 C.3   701  UDP701      0.2158
     13  C4'      140.4380   32.6550   48.8030 C.3   701  UDP701      0.1799
     14  O4'      140.6470   31.4230   48.1430 O.3   701  UDP701     -0.3320
     15  O3'      139.8070   32.6040   51.1330 O.3   701  UDP701     -0.2175
     16  C5'      141.1750   33.7670   48.0560 C.3   701  UDP701      0.1813
     17  O5'      142.5420   33.4450   47.8710 O.3   701  UDP701     -0.3111
     18  PA       143.7290   34.3890   48.4480 P.3   701  UDP701      0.2231
     19  O1A      143.4170   34.8720   49.8170 O.3   701  UDP701     -0.4370
     20  O2A      145.0230   33.6680   48.4650 O.2   701  UDP701     -0.5169
     21  O3A      143.7730   35.6180   47.3970 O.3   701  UDP701     -0.2261
     22  PB       143.4110   37.1400   47.8010 P.3   701  UDP701      0.5373
     23  O1B      142.0820   37.1620   48.4640 O.3   701  UDP701     -0.1143
     24  O2B      143.3890   37.9680   46.5720 O.2   701  UDP701     -0.2221
     25  O3B      144.4360   37.6820   48.7270 O.3   701  UDP701     -0.1143
@<TRIPOS>BOND
     1    24    22    2
     2     8     4    2
     3     5     4    1
     4     5     6    2
     5     4     3    2
     6    21    22    1
     7    21    18    1
     8     6     1    1
     9    22    23    1
    10    22    25    1
    11    17    16    1
    12    17    18    1
    13     3     2    2
    14    16    13    1
    15    14    13    1
    16    14     9    1
    17     1     2   am
    18     1     9    1
    19    18    20    2
    20    18    19    1
    21     2     7    2
    22    13    12    1
    23     9    10    1
    24    12    10    1
    25    12    15    1
    26    10    11    1
