@<TRIPOS>MOLECULE
4fj5_DTP_A_1.pdb
 30 32 0 0 0
SMALL
GASTEIGER

@<TRIPOS>ATOM
      1  PG        -3.2940   12.7340  -50.9750 P.3   1001  DTP1001     0.5373
      2  O1G       -1.9520   12.4940  -51.6160 O.3   1001  DTP1001    -0.1143
      3  O2G       -4.4680   12.7570  -51.9160 O.2   1001  DTP1001    -0.2221
      4  O3G       -3.3370   13.8280  -49.9450 O.3   1001  DTP1001    -0.1143
      5  PB        -2.7780   10.0330  -50.0190 P.3   1001  DTP1001     0.2277
      6  O1B       -3.6530    9.0500  -49.2900 O.3   1001  DTP1001    -0.4368
      7  O2B       -2.1850    9.6060  -51.3430 O.2   1001  DTP1001    -0.5168
      8  O3B       -3.6350   11.3870  -50.1410 O.3   1001  DTP1001    -0.2258
      9  PA        -0.0450   10.3800  -49.0530 P.3   1001  DTP1001     0.2189
     10  O1A        0.4790   11.1390  -47.8720 O.3   1001  DTP1001    -0.4371
     11  O2A        0.4090   10.7720  -50.4360 O.2   1001  DTP1001    -0.5170
     12  O3A       -1.6550   10.4620  -48.9460 O.3   1001  DTP1001    -0.2700
     13  O5'        0.2660    8.8310  -48.7720 O.3   1001  DTP1001    -0.3112
     14  C5'        0.2650    7.8590  -49.8130 C.3   1001  DTP1001     0.1813
     15  C4'       -0.2470    6.5450  -49.2450 C.3   1001  DTP1001     0.1795
     16  O4'        0.5910    6.1080  -48.1680 O.3   1001  DTP1001    -0.3155
     17  C3'       -1.6320    6.6510  -48.6360 C.3   1001  DTP1001     0.1883
     18  O3'       -2.6860    6.5750  -49.6010 O.3   1001  DTP1001    -0.2202
     19  C2'       -1.6310    5.4760  -47.6770 C.3   1001  DTP1001     0.1151
     20  C1'       -0.1870    5.4340  -47.1750 C.3   1001  DTP1001     0.2873
     21  N9        -0.2020    6.2110  -45.9120 N.pl3 1001  DTP1001    -0.1460
     22  C8         0.2110    7.4890  -45.7410 C.3   1001  DTP1001     0.3377
     23  N7         0.0320    7.8800  -44.4520 N.2   1001  DTP1001    -0.2095
     24  C5        -0.5220    6.8480  -43.7870 C.2   1001  DTP1001     0.2526
     25  C6        -0.9820    6.5940  -42.4040 C.2   1001  DTP1001     0.4393
     26  N6        -0.8780    7.5560  -41.4520 N.pl3 1001  DTP1001     0.2180
     27  N1        -1.5000    5.3780  -42.1260 N.2   1001  DTP1001     0.0021
     28  C2        -1.6110    4.4080  -43.0560 C.3   1001  DTP1001     0.5254
     29  N3        -1.2110    4.5770  -44.3360 N.2   1001  DTP1001    -0.0055
     30  C4        -0.6700    5.7490  -44.7520 C.2   1001  DTP1001     0.3518
@<TRIPOS>BOND
     1     3     1    2
     2     2     1    1
     3     7     5    2
     4     1     8    1
     5     1     4    1
     6    11     9    2
     7     8     5    1
     8     5     6    1
     9     5    12    1
    10    14    15    1
    11    14    13    1
    12    18    17    1
    13    15    17    1
    14    15    16    1
    15     9    12    1
    16     9    13    1
    17     9    10    1
    18    17    19    1
    19    16    20    1
    20    19    20    1
    21    20    21    1
    22    21    22    1
    23    21    30    1
    24    22    23    1
    25    30    29    2
    26    30    24    1
    27    23    24    2
    28    29    28    1
    29    24    25    1
    30    28    27    1
    31    25    27    2
    32    25    26    1
