@<TRIPOS>MOLECULE
4fj7_DGT_A_1.pdb
 31 33 0 0 0
SMALL
GASTEIGER

@<TRIPOS>ATOM
      1  PG         3.2650   12.7320   50.7210 P.3   1001  DGT1001     0.5373
      2  O1G        1.9430   12.5300   51.4210 O.3   1001  DGT1001    -0.1143
      3  O2G        4.4210   12.7190   51.6820 O.3   1001  DGT1001    -0.1143
      4  O3G        3.3240   13.8320   49.7020 O.2   1001  DGT1001    -0.2221
      5  O3B        3.5730   11.4140   49.8240 O.3   1001  DGT1001    -0.2258
      6  PB         2.7650   10.0120   49.7800 P.3   1001  DGT1001     0.2277
      7  O1B        3.6480    9.0560   49.0230 O.2   1001  DGT1001    -0.5168
      8  O2B        2.2370    9.6440   51.1380 O.3   1001  DGT1001    -0.4368
      9  O3A        1.6250   10.4020   48.7180 O.3   1001  DGT1001    -0.2700
     10  PA         0.0210   10.3160   48.8150 P.3   1001  DGT1001     0.2189
     11  O1A       -0.4110   11.0780   47.6030 O.2   1001  DGT1001    -0.5170
     12  O2A       -0.4580   10.6990   50.2020 O.3   1001  DGT1001    -0.4371
     13  O5'       -0.3330    8.7790   48.5210 O.3   1001  DGT1001    -0.3112
     14  C5'       -0.2840    7.8050   49.5550 C.3   1001  DGT1001     0.1812
     15  C4'        0.2150    6.5060   48.9630 C.3   1001  DGT1001     0.1772
     16  O4'       -0.6130    6.1280   47.8530 O.3   1001  DGT1001    -0.3347
     17  C3'        1.6160    6.5920   48.3730 C.3   1001  DGT1001     0.1857
     18  O3'        2.6770    6.5280   49.3320 O.3   1001  DGT1001    -0.2203
     19  C2'        1.5900    5.3740   47.4750 C.3   1001  DGT1001     0.0865
     20  C1'        0.1500    5.3290   46.9530 C.3   1001  DGT1001     0.1981
     21  N9         0.2920    5.9250   45.6050 N.pl3 1001  DGT1001    -0.2374
     22  C8         0.0090    7.1730   45.1870 C.3   1001  DGT1001     0.2245
     23  N7         0.3550    7.2960   43.8740 N.2   1001  DGT1001    -0.2322
     24  C5         0.8770    6.1260   43.4540 C.2   1001  DGT1001     0.2182
     25  C6         1.4480    5.5550   42.2000 C.1   1001  DGT1001     0.2372
     26  O6         1.5130    6.2620   41.1790 O.2   1001  DGT1001    -0.2069
     27  N1         1.8910    4.2790   42.2010 N.2   1001  DGT1001    -0.2485
     28  C2         1.8190    3.5120   43.3180 C.1   1001  DGT1001     0.2531
     29  N2         2.2590    2.2270   43.3130 N.pl3 1001  DGT1001    -0.0226
     30  N3         1.3030    3.9810   44.4880 N.2   1001  DGT1001    -0.3074
     31  C4         0.8340    5.2390   44.6040 C.2   1001  DGT1001     0.2299
@<TRIPOS>BOND
     1    26    25    2
     2    25    27    2
     3    25    24    1
     4    27    28    2
     5    29    28    1
     6    28    30    2
     7    24    23    2
     8    24    31    1
     9    23    22    1
    10    30    31    2
    11    31    21    1
    12    22    21    1
    13    21    20    1
    14    20    19    1
    15    20    16    1
    16    19    17    1
    17    11    10    2
    18    16    15    1
    19    17    15    1
    20    17    18    1
    21    13    10    1
    22    13    14    1
    23     9    10    1
    24     9     6    1
    25    10    12    1
    26    15    14    1
    27     7     6    2
    28     4     1    2
    29     6     5    1
    30     6     8    1
    31     5     1    1
    32     1     2    1
    33     1     3    1
