@<TRIPOS>MOLECULE
4fj8_DCP_A_1.pdb
 28 29 0 0 0
SMALL
GASTEIGER

@<TRIPOS>ATOM
      1  N1         0.1120    6.4840   45.7640 N.am  1001  DCP1001    -0.1802
      2  C2         0.5300    5.9110   44.5730 C.1   1001  DCP1001     0.2756
      3  N3         0.7350    6.7180   43.4580 N.2   1001  DCP1001    -0.3024
      4  C4         0.3900    8.0550   43.4820 C.2   1001  DCP1001     0.2346
      5  C5        -0.0450    8.6340   44.6820 C.2   1001  DCP1001     0.0687
      6  C6        -0.3210    7.7980   45.7650 C.2   1001  DCP1001     0.0835
      7  O2         0.7150    4.6870   44.5110 O.2   1001  DCP1001    -0.1925
      8  N4         0.4680    8.7770   42.3650 N.pl3 1001  DCP1001    -0.0921
      9  C1'        0.2140    5.6780   47.0130 C.3   1001  DCP1001     0.2090
     10  C2'        1.6640    5.6930   47.4890 C.3   1001  DCP1001     0.0874
     11  C3'        1.6560    6.7810   48.5320 C.3   1001  DCP1001     0.1857
     12  C4'        0.2850    6.6110   49.1530 C.3   1001  DCP1001     0.1773
     13  O4'       -0.5450    6.2300   48.0720 O.3   1001  DCP1001    -0.3339
     14  O3'        2.7080    6.6050   49.4430 O.3   1001  DCP1001    -0.2203
     15  C5'       -0.2440    7.8850   49.7940 C.3   1001  DCP1001     0.1812
     16  O5'       -0.3890    8.8580   48.7860 O.3   1001  DCP1001    -0.3112
     17  PA         0.0990   10.3670   49.0240 P.3   1001  DCP1001     0.2189
     18  O1A       -0.4480   11.1850   47.8840 O.2   1001  DCP1001    -0.5170
     19  O2A       -0.3390   10.9080   50.3720 O.3   1001  DCP1001    -0.4371
     20  O3A        1.6950   10.3090   48.8620 O.3   1001  DCP1001    -0.2700
     21  PB         2.8350   10.0580   49.9770 P.3   1001  DCP1001     0.2277
     22  O1B        3.7780    9.0390   49.3990 O.2   1001  DCP1001    -0.5168
     23  O2B        2.3050    9.6700   51.3370 O.3   1001  DCP1001    -0.4368
     24  O3B        3.6590   11.4220   50.0170 O.3   1001  DCP1001    -0.2258
     25  PG         3.3350   12.6940   50.9520 P.3   1001  DCP1001     0.5373
     26  O1G        1.9860   12.5780   51.6030 O.3   1001  DCP1001    -0.1143
     27  O2G        4.4420   12.7340   51.9660 O.3   1001  DCP1001    -0.1143
     28  O3G        3.3760   13.9070   50.0580 O.2   1001  DCP1001    -0.2221
@<TRIPOS>BOND
     1     8     4    1
     2     3     4    2
     3     3     2    2
     4     4     5    1
     5     7     2    2
     6     2     1   am
     7     5     6    2
     8     1     6    1
     9     1     9    1
    10     9    10    1
    11     9    13    1
    12    10    11    1
    13    18    17    2
    14    13    12    1
    15    11    12    1
    16    11    14    1
    17    16    17    1
    18    16    15    1
    19    20    17    1
    20    20    21    1
    21    17    19    1
    22    12    15    1
    23    22    21    2
    24    21    24    1
    25    21    23    1
    26    24    25    1
    27    28    25    2
    28    25    26    1
    29    25    27    1
