@<TRIPOS>MOLECULE
4fj9_TTP_A_1.pdb
 29 30 0 0 0
SMALL
GASTEIGER

@<TRIPOS>ATOM
      1  PA        -0.0440   10.2060  -48.9720 P.3   1001  TTP1001     0.2189
      2  O1A        0.4720   11.0170  -47.8240 O.3   1001  TTP1001    -0.4371
      3  O2A        0.3680   10.5190  -50.3880 O.2   1001  TTP1001    -0.5170
      4  O3A       -1.6540   10.2450  -48.8060 O.3   1001  TTP1001    -0.2700
      5  PB        -2.8390    9.9680  -49.8610 P.3   1001  TTP1001     0.2277
      6  O1B       -3.7940    9.1120  -49.0800 O.3   1001  TTP1001    -0.4368
      7  O2B       -2.3280    9.5370  -51.2050 O.2   1001  TTP1001    -0.5168
      8  O3B       -3.5370   11.4130  -49.9340 O.3   1001  TTP1001    -0.2258
      9  PG        -3.2200   12.6620  -50.9090 P.3   1001  TTP1001     0.5373
     10  O1G       -1.8950   12.4380  -51.5820 O.3   1001  TTP1001    -0.1143
     11  O2G       -4.3840   12.6040  -51.8580 O.2   1001  TTP1001    -0.2221
     12  O3G       -3.3050   13.8370  -49.9840 O.3   1001  TTP1001    -0.1143
     13  O5'        0.2670    8.6700  -48.5710 O.3   1001  TTP1001    -0.3112
     14  C5'        0.2060    7.5590  -49.4650 C.3   1001  TTP1001     0.1812
     15  C4'       -0.3530    6.3440  -48.7380 C.3   1001  TTP1001     0.1773
     16  O4'        0.4170    6.0340  -47.5650 O.3   1001  TTP1001    -0.3339
     17  C3'       -1.7640    6.5730  -48.2140 C.3   1001  TTP1001     0.1857
     18  O3'       -2.7760    6.4220  -49.2120 O.3   1001  TTP1001    -0.2203
     19  C2'       -1.8600    5.5750  -47.0740 C.3   1001  TTP1001     0.0874
     20  C1'       -0.4370    5.5810  -46.5000 C.3   1001  TTP1001     0.2090
     21  N1        -0.3800    6.5110  -45.3600 N.am  1001  TTP1001    -0.1794
     22  C2        -0.7010    6.0250  -44.0700 C.1   1001  TTP1001     0.2844
     23  O2        -1.0000    4.8160  -43.9410 O.2   1001  TTP1001    -0.1918
     24  N3        -0.6930    6.8310  -42.9950 N.2   1001  TTP1001    -0.2455
     25  C4        -0.3710    8.1230  -43.1200 C.1   1001  TTP1001     0.2134
     26  O4        -0.3560    8.8680  -42.1250 O.2   1001  TTP1001    -0.2088
     27  C5        -0.0390    8.6710  -44.4580 C.2   1001  TTP1001     0.0891
     28  C5M        0.3080   10.1280  -44.6380 C.3   1001  TTP1001     0.0462
     29  C6        -0.0630    7.8120  -45.5400 C.2   1001  TTP1001     0.0877
@<TRIPOS>BOND
     1    11     9    2
     2    10     9    1
     3     7     5    2
     4     9    12    1
     5     9     8    1
     6     3     1    2
     7     8     5    1
     8     5     6    1
     9     5     4    1
    10    14    15    1
    11    14    13    1
    12    18    17    1
    13     1     4    1
    14     1    13    1
    15     1     2    1
    16    15    17    1
    17    15    16    1
    18    17    19    1
    19    16    20    1
    20    19    20    1
    21    20    21    1
    22    29    21    1
    23    29    27    2
    24    21    22   am
    25    28    27    1
    26    27    25    1
    27    22    23    2
    28    22    24    2
    29    25    24    2
    30    25    26    2
