@<TRIPOS>MOLECULE
4fjg_DTP_A_1.pdb
 30 32 0 0 0
SMALL
GASTEIGER

@<TRIPOS>ATOM
      1  PG        -3.2710   12.7100  -50.8900 P.3   1001  DTP1001     0.5373
      2  O1G       -1.9290   12.4900  -51.5000 O.3   1001  DTP1001    -0.1143
      3  O2G       -4.3910   12.6000  -51.8960 O.2   1001  DTP1001    -0.2221
      4  O3G       -3.3790   13.9070  -49.9910 O.3   1001  DTP1001    -0.1143
      5  PB        -2.8220   10.0120  -49.8990 P.3   1001  DTP1001     0.2277
      6  O1B       -3.7520    9.0170  -49.2230 O.3   1001  DTP1001    -0.4368
      7  O2B       -2.3120    9.6430  -51.2510 O.2   1001  DTP1001    -0.5168
      8  O3B       -3.6260   11.4120  -49.9720 O.3   1001  DTP1001    -0.2258
      9  PA        -0.0080   10.2990  -48.9510 P.3   1001  DTP1001     0.2189
     10  O1A        0.5810   10.9420  -47.7490 O.3   1001  DTP1001    -0.4371
     11  O2A        0.4080   10.7360  -50.3370 O.2   1001  DTP1001    -0.5170
     12  O3A       -1.6410   10.2720  -48.8060 O.3   1001  DTP1001    -0.2700
     13  O5'        0.3440    8.7250  -48.7630 O.3   1001  DTP1001    -0.3112
     14  C5'        0.1470    7.7700  -49.7860 C.3   1001  DTP1001     0.1813
     15  C4'       -0.3110    6.4810  -49.1330 C.3   1001  DTP1001     0.1795
     16  O4'        0.5650    6.1290  -48.0500 O.3   1001  DTP1001    -0.3155
     17  C3'       -1.6630    6.6300  -48.4760 C.3   1001  DTP1001     0.1883
     18  O3'       -2.7690    6.5880  -49.3870 O.3   1001  DTP1001    -0.2202
     19  C2'       -1.6200    5.4740  -47.4910 C.3   1001  DTP1001     0.1151
     20  C1'       -0.1720    5.5420  -46.9800 C.3   1001  DTP1001     0.2873
     21  N9        -0.1850    6.4310  -45.7840 N.pl3 1001  DTP1001    -0.1460
     22  C8         0.2570    7.7100  -45.7060 C.3   1001  DTP1001     0.3377
     23  N7         0.0570    8.2210  -44.4750 N.2   1001  DTP1001    -0.2095
     24  C5        -0.5370    7.2700  -43.7390 C.2   1001  DTP1001     0.2526
     25  C6        -1.0240    7.1630  -42.3430 C.2   1001  DTP1001     0.4393
     26  N6        -0.8960    8.2170  -41.5100 N.pl3 1001  DTP1001     0.2180
     27  N1        -1.5750    5.9930  -41.9530 N.2   1001  DTP1001     0.0021
     28  C2        -1.6840    4.9350  -42.7930 C.3   1001  DTP1001     0.5254
     29  N3        -1.2550    4.9570  -44.0820 N.2   1001  DTP1001    -0.0055
     30  C4        -0.6880    6.0840  -44.5990 C.2   1001  DTP1001     0.3518
@<TRIPOS>BOND
     1     3     1    2
     2     2     1    1
     3     7     5    2
     4     1     4    1
     5     1     8    1
     6    11     9    2
     7     8     5    1
     8     5     6    1
     9     5    12    1
    10    14    15    1
    11    14    13    1
    12    18    17    1
    13    15    17    1
    14    15    16    1
    15     9    12    1
    16     9    13    1
    17     9    10    1
    18    17    19    1
    19    16    20    1
    20    19    20    1
    21    20    21    1
    22    21    22    1
    23    21    30    1
    24    22    23    1
    25    30    29    2
    26    30    24    1
    27    23    24    2
    28    29    28    1
    29    24    25    1
    30    28    27    1
    31    25    27    2
    32    25    26    1
