@<TRIPOS>MOLECULE
4fjh_DGT_A_1.pdb
 31 33 0 0 0
SMALL
GASTEIGER

@<TRIPOS>ATOM
      1  PG        -3.3370  -12.7890   50.9430 P.3   1001  DGT1001     0.5373
      2  O1G       -1.9740  -12.5540   51.5380 O.3   1001  DGT1001    -0.1143
      3  O2G       -4.4770  -12.7210   51.9190 O.3   1001  DGT1001    -0.1143
      4  O3G       -3.4300  -13.9200   49.9630 O.2   1001  DGT1001    -0.2221
      5  O3B       -3.6510  -11.4750   50.0360 O.3   1001  DGT1001    -0.2258
      6  PB        -2.7970  -10.1080   49.9740 P.3   1001  DGT1001     0.2277
      7  O1B       -3.6520   -9.1040   49.2550 O.2   1001  DGT1001    -0.5168
      8  O2B       -2.2630   -9.7770   51.3480 O.3   1001  DGT1001    -0.4368
      9  O3A       -1.6560  -10.5160   48.9220 O.3   1001  DGT1001    -0.2700
     10  PA        -0.0520  -10.4520   49.0370 P.3   1001  DGT1001     0.2189
     11  O1A        0.4550  -11.2480   47.8770 O.2   1001  DGT1001    -0.5170
     12  O2A        0.4140  -10.7450   50.4500 O.3   1001  DGT1001    -0.4371
     13  O5'        0.2120   -8.9000   48.6960 O.3   1001  DGT1001    -0.3112
     14  C5'        0.2050   -7.9490   49.7480 C.3   1001  DGT1001     0.1812
     15  C4'       -0.2800   -6.6320   49.1930 C.3   1001  DGT1001     0.1772
     16  O4'        0.5980   -6.2060   48.1450 O.3   1001  DGT1001    -0.3347
     17  C3'       -1.6590   -6.7110   48.5550 C.3   1001  DGT1001     0.1857
     18  O3'       -2.7400   -6.6480   49.4880 O.3   1001  DGT1001    -0.2203
     19  C2'       -1.6150   -5.4970   47.6620 C.3   1001  DGT1001     0.0865
     20  C1'       -0.1680   -5.4990   47.1710 C.3   1001  DGT1001     0.1981
     21  N9        -0.2160   -6.2260   45.8860 N.pl3 1001  DGT1001    -0.2374
     22  C8         0.1510   -7.4960   45.6140 C.3   1001  DGT1001     0.2245
     23  N7        -0.0800   -7.7850   44.3060 N.2   1001  DGT1001    -0.2322
     24  C5        -0.6150   -6.6860   43.7340 C.2   1001  DGT1001     0.2182
     25  C6        -1.1080   -6.2770   42.3970 C.1   1001  DGT1001     0.2372
     26  O6        -1.0610   -7.0810   41.4490 O.2   1001  DGT1001    -0.2069
     27  N1        -1.5950   -5.0270   42.2370 N.2   1001  DGT1001    -0.2485
     28  C2        -1.6410   -4.1450   43.2520 C.1   1001  DGT1001     0.2531
     29  N2        -2.1350   -2.8980   43.0570 N.pl3 1001  DGT1001    -0.0226
     30  N3        -1.2020   -4.4540   44.4980 N.2   1001  DGT1001    -0.3074
     31  C4        -0.7010   -5.6730   44.7840 C.2   1001  DGT1001     0.2299
@<TRIPOS>BOND
     1    26    25    2
     2    27    25    2
     3    27    28    2
     4    25    24    1
     5    29    28    1
     6    28    30    2
     7    24    23    2
     8    24    31    1
     9    23    22    1
    10    30    31    2
    11    31    21    1
    12    22    21    1
    13    21    20    1
    14    20    19    1
    15    20    16    1
    16    19    17    1
    17    11    10    2
    18    16    15    1
    19    17    15    1
    20    17    18    1
    21    13    10    1
    22    13    14    1
    23     9    10    1
    24     9     6    1
    25    10    12    1
    26    15    14    1
    27     7     6    2
    28     4     1    2
    29     6     5    1
    30     6     8    1
    31     5     1    1
    32     1     2    1
    33     1     3    1
