@<TRIPOS>MOLECULE
4fji_DCP_A_1.pdb
 28 29 0 0 0
SMALL
GASTEIGER

@<TRIPOS>ATOM
      1  N1         0.7000   -8.4110   19.7310 N.am  1001  DCP1001    -0.2030
      2  C2         1.2080   -7.9100   20.9320 C.1   1001  DCP1001     0.2712
      3  N3         1.2440   -8.7130   22.0670 N.2   1001  DCP1001    -0.3072
      4  C4         0.8070  -10.0320   22.0070 C.2   1001  DCP1001     0.2123
      5  C5         0.4160  -10.5710   20.7700 C.3   1001  DCP1001     0.1014
      6  C6         0.2060   -9.6960   19.6920 C.3   1001  DCP1001     0.1151
      7  O2         1.6070   -6.7380   20.9920 O.2   1001  DCP1001    -0.1929
      8  N4         0.7660  -10.7630   23.1220 N.pl3 1001  DCP1001    -0.0969
      9  C1'        0.9310   -7.6560   18.4720 C.3   1001  DCP1001     0.2048
     10  C2'        2.4080   -7.7310   18.0970 C.3   1001  DCP1001     0.0871
     11  C3'        2.4530   -8.8380   17.0760 C.3   1001  DCP1001     0.1857
     12  C4'        1.1140   -8.6830   16.3990 C.3   1001  DCP1001     0.1773
     13  O4'        0.2420   -8.3160   17.4400 O.3   1001  DCP1001    -0.3342
     14  O3'        3.5230   -8.6280   16.1980 O.3   1001  DCP1001    -0.2203
     15  C5'        0.6260   -9.9440   15.6900 C.3   1001  DCP1001     0.1812
     16  O5'        0.2850  -10.9170   16.6360 O.3   1001  DCP1001    -0.3112
     17  PA         0.8070  -12.4240   16.5210 P.3   1001  DCP1001     0.2189
     18  O1A        0.1920  -13.2370   17.6020 O.3   1001  DCP1001    -0.4371
     19  O2A        0.5480  -12.9830   15.1390 O.2   1001  DCP1001    -0.5170
     20  O3A        2.3680  -12.3820   16.8320 O.3   1001  DCP1001    -0.2700
     21  PB         3.5520  -12.2490   15.7600 P.3   1001  DCP1001     0.2277
     22  O1B        4.5620  -11.3130   16.3950 O.3   1001  DCP1001    -0.4368
     23  O2B        3.0740  -11.7640   14.4040 O.2   1001  DCP1001    -0.5168
     24  O3B        4.2840  -13.6680   15.7730 O.3   1001  DCP1001    -0.2258
     25  PG         4.0030  -14.9160   14.8020 P.3   1001  DCP1001     0.5373
     26  O1G        2.7360  -14.6800   14.0440 O.3   1001  DCP1001    -0.1143
     27  O2G        5.2240  -14.9980   13.9260 O.2   1001  DCP1001    -0.2221
     28  O3G        3.9180  -16.1000   15.7130 O.3   1001  DCP1001    -0.1143
@<TRIPOS>BOND
     1    27    25    2
     2    26    25    1
     3    23    21    2
     4    25    28    1
     5    25    24    1
     6    19    17    2
     7    15    12    1
     8    15    16    1
     9    21    24    1
    10    21    22    1
    11    21    20    1
    12    14    11    1
    13    12    11    1
    14    12    13    1
    15    17    16    1
    16    17    20    1
    17    17    18    1
    18    11    10    1
    19    13     9    1
    20    10     9    1
    21     9     1    1
    22     6     1    1
    23     6     5    1
    24     1     2   am
    25     5     4    1
    26     2     7    2
    27     2     3    2
    28     4     3    2
    29     4     8    1
