@<TRIPOS>MOLECULE
4fjj_TTP_A_1.pdb
 29 30 0 0 0
SMALL
GASTEIGER

@<TRIPOS>ATOM
      1  PA        -0.0680   10.3580  -49.0510 P.3   1001  TTP1001     0.2189
      2  O1A        0.4120   11.1690  -47.8880 O.3   1001  TTP1001    -0.4371
      3  O2A        0.4080   10.6630  -50.4520 O.2   1001  TTP1001    -0.5170
      4  O3A       -1.6760   10.4310  -48.9360 O.3   1001  TTP1001    -0.2700
      5  PB        -2.8140   10.0330  -50.0040 P.3   1001  TTP1001     0.2277
      6  O1B       -3.6940    9.0600  -49.2710 O.3   1001  TTP1001    -0.4368
      7  O2B       -2.2620    9.6350  -51.3460 O.2   1001  TTP1001    -0.5168
      8  O3B       -3.6030   11.4340  -50.0750 O.3   1001  TTP1001    -0.2258
      9  PG        -3.3290   12.7290  -51.0070 P.3   1001  TTP1001     0.5373
     10  O1G       -1.9930   12.5190  -51.6550 O.3   1001  TTP1001    -0.1143
     11  O2G       -4.5130   12.6730  -51.9320 O.2   1001  TTP1001    -0.2221
     12  O3G       -3.3980   13.8750  -50.0370 O.3   1001  TTP1001    -0.1143
     13  O5'        0.2810    8.8310  -48.7260 O.3   1001  TTP1001    -0.3112
     14  C5'        0.2150    7.8170  -49.7280 C.3   1001  TTP1001     0.1812
     15  C4'       -0.2690    6.5400  -49.0870 C.3   1001  TTP1001     0.1773
     16  O4'        0.5560    6.1960  -47.9620 O.3   1001  TTP1001    -0.3339
     17  C3'       -1.6690    6.6410  -48.5100 C.3   1001  TTP1001     0.1857
     18  O3'       -2.7180    6.4980  -49.4820 O.3   1001  TTP1001    -0.2203
     19  C2'       -1.6320    5.5070  -47.5030 C.3   1001  TTP1001     0.0874
     20  C1'       -0.2100    5.5810  -46.9270 C.3   1001  TTP1001     0.2090
     21  N1        -0.2550    6.4090  -45.6920 N.am  1001  TTP1001    -0.1794
     22  C2        -0.5900    5.7840  -44.4670 C.1   1001  TTP1001     0.2844
     23  O2        -0.8000    4.5520  -44.4590 O.2   1001  TTP1001    -0.1918
     24  N3        -0.6770    6.4800  -43.3200 N.2   1001  TTP1001    -0.2455
     25  C4        -0.4650    7.8030  -43.3030 C.1   1001  TTP1001     0.2134
     26  O4        -0.5570    8.4370  -42.2320 O.2   1001  TTP1001    -0.2088
     27  C5        -0.1200    8.5000  -44.5720 C.2   1001  TTP1001     0.0891
     28  C5M        0.1180    9.9950  -44.6260 C.3   1001  TTP1001     0.0462
     29  C6        -0.0370    7.7350  -45.7280 C.2   1001  TTP1001     0.0877
@<TRIPOS>BOND
     1    11     9    2
     2    10     9    1
     3     7     5    2
     4     9     8    1
     5     9    12    1
     6     3     1    2
     7     8     5    1
     8     5     6    1
     9     5     4    1
    10    14    15    1
    11    14    13    1
    12    18    17    1
    13    15    17    1
    14    15    16    1
    15     1     4    1
    16     1    13    1
    17     1     2    1
    18    17    19    1
    19    16    20    1
    20    19    20    1
    21    20    21    1
    22    29    21    1
    23    29    27    2
    24    21    22   am
    25    28    27    1
    26    27    25    1
    27    22    23    2
    28    22    24    2
    29    24    25    2
    30    25    26    2
