@<TRIPOS>MOLECULE
4fjk_DTP_A_1.pdb
 30 32 0 0 0
SMALL
GASTEIGER

@<TRIPOS>ATOM
      1  PG         3.1430  -12.7270  -50.8360 P.3   1001  DTP1001     0.5373
      2  O1G        1.8130  -12.4540  -51.4680 O.3   1001  DTP1001    -0.1143
      3  O2G        4.3050  -12.6880  -51.7690 O.2   1001  DTP1001    -0.2221
      4  O3G        3.1470  -13.8630  -49.8440 O.3   1001  DTP1001    -0.1143
      5  PB         2.7110   -9.9920  -49.9010 P.3   1001  DTP1001     0.2277
      6  O1B        3.6060   -8.9880  -49.2210 O.3   1001  DTP1001    -0.4368
      7  O2B        2.1860   -9.6290  -51.2700 O.2   1001  DTP1001    -0.5168
      8  O3B        3.4600  -11.4250  -49.9150 O.3   1001  DTP1001    -0.2258
      9  PA        -0.0900  -10.2340  -48.9830 P.3   1001  DTP1001     0.2189
     10  O1A       -0.5460  -11.0100  -47.8040 O.3   1001  DTP1001    -0.4371
     11  O2A       -0.5600  -10.6600  -50.3530 O.2   1001  DTP1001    -0.5170
     12  O3A        1.5270  -10.2230  -48.8470 O.3   1001  DTP1001    -0.2700
     13  O5'       -0.4800   -8.6970  -48.7040 O.3   1001  DTP1001    -0.3112
     14  C5'       -0.3980   -7.6930  -49.7110 C.3   1001  DTP1001     0.1813
     15  C4'        0.1560   -6.4520  -49.0490 C.3   1001  DTP1001     0.1795
     16  O4'       -0.6760   -6.0780  -47.9360 O.3   1001  DTP1001    -0.3155
     17  C3'        1.5360   -6.6370  -48.4520 C.3   1001  DTP1001     0.1883
     18  O3'        2.5670   -6.4910  -49.4230 O.3   1001  DTP1001    -0.2202
     19  C2'        1.5510   -5.5110  -47.4300 C.3   1001  DTP1001     0.1151
     20  C1'        0.1170   -5.5040  -46.8970 C.3   1001  DTP1001     0.2873
     21  N9         0.1100   -6.4320  -45.7310 N.pl3 1001  DTP1001    -0.1460
     22  C8        -0.3350   -7.7080  -45.6790 C.3   1001  DTP1001     0.3377
     23  N7        -0.1350   -8.2360  -44.4360 N.2   1001  DTP1001    -0.2095
     24  C5         0.4560   -7.2930  -43.6890 C.2   1001  DTP1001     0.2526
     25  C6         0.9430   -7.1740  -42.2980 C.2   1001  DTP1001     0.4393
     26  N6         0.8400   -8.2130  -41.4370 N.pl3 1001  DTP1001     0.2180
     27  N1         1.5000   -5.9990  -41.9320 N.2   1001  DTP1001     0.0021
     28  C2         1.6220   -4.9460  -42.7710 C.3   1001  DTP1001     0.5254
     29  N3         1.1840   -4.9770  -44.0480 N.2   1001  DTP1001    -0.0055
     30  C4         0.6120   -6.1040  -44.5460 C.2   1001  DTP1001     0.3518
@<TRIPOS>BOND
     1     3     1    2
     2     2     1    1
     3     7     5    2
     4     1     8    1
     5     1     4    1
     6    11     9    2
     7     8     5    1
     8     5     6    1
     9     5    12    1
    10    14    15    1
    11    14    13    1
    12    18    17    1
    13    15    17    1
    14    15    16    1
    15     9    12    1
    16     9    13    1
    17     9    10    1
    18    17    19    1
    19    16    20    1
    20    19    20    1
    21    20    21    1
    22    21    22    1
    23    21    30    1
    24    22    23    1
    25    30    29    2
    26    30    24    1
    27    23    24    2
    28    29    28    1
    29    24    25    1
    30    28    27    1
    31    25    27    2
    32    25    26    1
