@<TRIPOS>MOLECULE
4fjl_DGT_A_1.pdb
 31 33 0 0 0
SMALL
GASTEIGER

@<TRIPOS>ATOM
      1  PG        -3.1170  -12.7290   50.8650 P.3   1001  DGT1001     0.5373
      2  O1G       -1.7830  -12.4750   51.5160 O.3   1001  DGT1001    -0.1143
      3  O2G       -4.2980  -12.7520   51.7880 O.3   1001  DGT1001    -0.1143
      4  O3G       -3.1600  -13.8300   49.8550 O.2   1001  DGT1001    -0.2221
      5  O3B       -3.4440  -11.4050   49.9990 O.3   1001  DGT1001    -0.2258
      6  PB        -2.6710  -10.0090   49.9280 P.3   1001  DGT1001     0.2277
      7  O1B       -3.5730   -9.0320   49.2310 O.2   1001  DGT1001    -0.5168
      8  O2B       -2.0790   -9.5800   51.2500 O.3   1001  DGT1001    -0.4368
      9  O3A       -1.4920  -10.2400   48.8530 O.3   1001  DGT1001    -0.2700
     10  PA         0.1050  -10.2110   49.0030 P.3   1001  DGT1001     0.2189
     11  O1A        0.6410  -10.9850   47.8340 O.2   1001  DGT1001    -0.5170
     12  O2A        0.5820  -10.6740   50.3630 O.3   1001  DGT1001    -0.4371
     13  O5'        0.4970   -8.6770   48.7520 O.3   1001  DGT1001    -0.3112
     14  C5'        0.3580   -7.6780   49.7600 C.3   1001  DGT1001     0.1812
     15  C4'       -0.1630   -6.4260   49.0790 C.3   1001  DGT1001     0.1772
     16  O4'        0.6680   -6.0800   47.9500 O.3   1001  DGT1001    -0.3347
     17  C3'       -1.5560   -6.5770   48.4990 C.3   1001  DGT1001     0.1857
     18  O3'       -2.6190   -6.4940   49.4630 O.3   1001  DGT1001    -0.2203
     19  C2'       -1.5620   -5.4420   47.4830 C.3   1001  DGT1001     0.0865
     20  C1'       -0.1260   -5.4660   46.9370 C.3   1001  DGT1001     0.1981
     21  N9        -0.1810   -6.3470   45.7600 N.pl3 1001  DGT1001    -0.2374
     22  C8         0.2310   -7.6360   45.6870 C.3   1001  DGT1001     0.2245
     23  N7         0.0010   -8.1350   44.4440 N.2   1001  DGT1001    -0.2322
     24  C5        -0.5730   -7.1610   43.7120 C.2   1001  DGT1001     0.2182
     25  C6        -1.0590   -7.0180   42.3240 C.1   1001  DGT1001     0.2372
     26  O6        -0.9980   -7.9870   41.5480 O.2   1001  DGT1001    -0.2069
     27  N1        -1.5930   -5.8370   41.9530 N.2   1001  DGT1001    -0.2485
     28  C2        -1.6590   -4.7880   42.8030 C.1   1001  DGT1001     0.2531
     29  N2        -2.1800   -3.6250   42.3660 N.pl3 1001  DGT1001    -0.0226
     30  N3        -1.2200   -4.8460   44.0870 N.2   1001  DGT1001    -0.3074
     31  C4        -0.6820   -5.9820   44.5780 C.2   1001  DGT1001     0.2299
@<TRIPOS>BOND
     1    26    25    2
     2    27    25    2
     3    27    28    2
     4    25    24    1
     5    29    28    1
     6    28    30    2
     7    24    23    2
     8    24    31    1
     9    30    31    2
    10    23    22    1
    11    31    21    1
    12    22    21    1
    13    21    20    1
    14    20    19    1
    15    20    16    1
    16    19    17    1
    17    11    10    2
    18    16    15    1
    19    17    15    1
    20    17    18    1
    21    13    10    1
    22    13    14    1
    23     9    10    1
    24     9     6    1
    25    10    12    1
    26    15    14    1
    27     7     6    2
    28     4     1    2
    29     6     5    1
    30     6     8    1
    31     5     1    1
    32     1     2    1
    33     1     3    1
