@<TRIPOS>MOLECULE
4fjm_DCP_A_1.pdb
 28 29 0 0 0
SMALL
GASTEIGER

@<TRIPOS>ATOM
      1  N1         0.2450    6.5610   45.5240 N.am  1001  DCP1001    -0.1802
      2  C2         0.7110    6.1050   44.2640 C.1   1001  DCP1001     0.2756
      3  N3         0.7470    6.9410   43.1880 N.2   1001  DCP1001    -0.3024
      4  C4         0.3320    8.2270   43.3120 C.2   1001  DCP1001     0.2346
      5  C5        -0.1340    8.7000   44.5420 C.2   1001  DCP1001     0.0687
      6  C6        -0.1590    7.8430   45.6390 C.2   1001  DCP1001     0.0835
      7  O2         1.0900    4.9230   44.1590 O.2   1001  DCP1001    -0.1925
      8  N4         0.3640    9.0670   42.2490 N.pl3 1001  DCP1001    -0.0921
      9  C1'        0.2710    5.6380   46.6820 C.3   1001  DCP1001     0.2090
     10  C2'        1.7220    5.6060   47.2020 C.3   1001  DCP1001     0.0874
     11  C3'        1.7400    6.6980   48.2580 C.3   1001  DCP1001     0.1857
     12  C4'        0.3850    6.4690   48.8850 C.3   1001  DCP1001     0.1773
     13  O4'       -0.4950    6.1320   47.7870 O.3   1001  DCP1001    -0.3339
     14  O3'        2.8320    6.5750   49.1820 O.3   1001  DCP1001    -0.2203
     15  C5'       -0.1200    7.6980   49.6110 C.3   1001  DCP1001     0.1812
     16  O5'       -0.3010    8.7090   48.6280 O.3   1001  DCP1001    -0.3112
     17  PA         0.0740   10.2590   48.8760 P.3   1001  DCP1001     0.2189
     18  O1A       -0.5250   11.0280   47.7310 O.2   1001  DCP1001    -0.5170
     19  O2A       -0.3650   10.6490   50.2560 O.3   1001  DCP1001    -0.4371
     20  O3A        1.6820   10.2550   48.7070 O.3   1001  DCP1001    -0.2700
     21  PB         2.8640   10.0050   49.7850 P.3   1001  DCP1001     0.2277
     22  O1B        3.8080    9.0800   49.0640 O.2   1001  DCP1001    -0.5168
     23  O2B        2.3320    9.6650   51.1480 O.3   1001  DCP1001    -0.4368
     24  O3B        3.6110   11.4330   49.8270 O.3   1001  DCP1001    -0.2258
     25  PG         3.3330   12.6900   50.8100 P.3   1001  DCP1001     0.5373
     26  O1G        2.0010   12.4740   51.4790 O.3   1001  DCP1001    -0.1143
     27  O2G        4.5200   12.5930   51.7060 O.3   1001  DCP1001    -0.1143
     28  O3G        3.3830   13.8900   49.8980 O.2   1001  DCP1001    -0.2221
@<TRIPOS>BOND
     1     8     4    1
     2     3     4    2
     3     3     2    2
     4     4     5    1
     5     7     2    2
     6     2     1   am
     7     5     6    2
     8     1     6    1
     9     1     9    1
    10     9    10    1
    11     9    13    1
    12    10    11    1
    13    18    17    2
    14    13    12    1
    15    11    12    1
    16    11    14    1
    17    16    17    1
    18    16    15    1
    19    20    17    1
    20    20    21    1
    21    17    19    1
    22    12    15    1
    23    22    21    2
    24    21    24    1
    25    21    23    1
    26    24    25    1
    27    28    25    2
    28    25    26    1
    29    25    27    1
