@<TRIPOS>MOLECULE
4fjn_TTP_A_1.pdb
 29 30 0 0 0
SMALL
GASTEIGER

@<TRIPOS>ATOM
      1  PA         0.0780   10.3830  -49.0640 P.3   1001  TTP1001     0.2189
      2  O1A        0.5980   11.1740  -47.9020 O.3   1001  TTP1001    -0.4371
      3  O2A        0.5770   10.6920  -50.4630 O.2   1001  TTP1001    -0.5170
      4  O3A       -1.5340   10.4710  -48.9740 O.3   1001  TTP1001    -0.2700
      5  PB        -2.6740   10.0010  -50.0190 P.3   1001  TTP1001     0.2277
      6  O1B       -3.5040    8.9680  -49.3100 O.3   1001  TTP1001    -0.4368
      7  O2B       -2.1270    9.6500  -51.3740 O.2   1001  TTP1001    -0.5168
      8  O3B       -3.5460   11.3470  -50.1150 O.3   1001  TTP1001    -0.2258
      9  PG        -3.1810   12.7130  -50.9220 P.3   1001  TTP1001     0.5373
     10  O1G       -1.8450   12.4680  -51.5590 O.3   1001  TTP1001    -0.1143
     11  O2G       -4.3520   12.7240  -51.8520 O.2   1001  TTP1001    -0.2221
     12  O3G       -3.2170   13.8110  -49.9000 O.3   1001  TTP1001    -0.1143
     13  O5'        0.3680    8.8430  -48.7260 O.3   1001  TTP1001    -0.3112
     14  C5'        0.4270    7.8490  -49.7380 C.3   1001  TTP1001     0.1812
     15  C4'       -0.0500    6.5510  -49.1320 C.3   1001  TTP1001     0.1773
     16  O4'        0.7900    6.2060  -48.0270 O.3   1001  TTP1001    -0.3339
     17  C3'       -1.4490    6.6250  -48.5470 C.3   1001  TTP1001     0.1857
     18  O3'       -2.4900    6.5420  -49.5280 O.3   1001  TTP1001    -0.2203
     19  C2'       -1.3880    5.4330  -47.6150 C.3   1001  TTP1001     0.0874
     20  C1'        0.0190    5.5560  -47.0150 C.3   1001  TTP1001     0.2090
     21  N1        -0.1610    6.3700  -45.7950 N.am  1001  TTP1001    -0.1794
     22  C2        -0.6250    5.6810  -44.6470 C.1   1001  TTP1001     0.2844
     23  O2        -0.8090    4.4410  -44.7020 O.2   1001  TTP1001    -0.1918
     24  N3        -0.8580    6.3290  -43.4960 N.2   1001  TTP1001    -0.2455
     25  C4        -0.6750    7.6520  -43.4100 C.1   1001  TTP1001     0.2134
     26  O4        -0.9090    8.2080  -42.3350 O.2   1001  TTP1001    -0.2088
     27  C5        -0.1840    8.4190  -44.5810 C.2   1001  TTP1001     0.0891
     28  C5M        0.0210    9.9190  -44.4970 C.3   1001  TTP1001     0.0462
     29  C6         0.0460    7.7100  -45.7630 C.2   1001  TTP1001     0.0877
@<TRIPOS>BOND
     1    11     9    2
     2    10     9    1
     3     7     5    2
     4     9     8    1
     5     9    12    1
     6     3     1    2
     7     8     5    1
     8     5     6    1
     9     5     4    1
    10    14    15    1
    11    14    13    1
    12    18    17    1
    13    15    17    1
    14    15    16    1
    15     1     4    1
    16     1    13    1
    17     1     2    1
    18    17    19    1
    19    16    20    1
    20    19    20    1
    21    20    21    1
    22    21    29    1
    23    21    22   am
    24    29    27    2
    25    23    22    2
    26    22    24    2
    27    27    28    1
    28    27    25    1
    29    24    25    2
    30    25    26    2
