@<TRIPOS>MOLECULE
4fjp_III_B_1.pdb
 45 45 0 0 0
SMALL
GASTEIGER

@<TRIPOS>ATOM
      1  N          4.4290    7.4990   32.7280 N.3   681  LEU681     -0.1231
      2  CA         4.8090    8.8720   32.2940 C.3   681  LEU681      0.1693
      3  C          5.4280    9.7060   33.4380 C.2   681  LEU681      0.2592
      4  O          4.9590   10.8150   33.7280 O.2   681  LEU681     -0.2718
      5  CB         3.6090    9.5760   31.6180 C.3   681  LEU681      0.0284
      6  CG         2.1920    9.4480   32.2090 C.3   681  LEU681      0.0019
      7  CD1        1.7210   10.7510   32.8550 C.3   681  LEU681      0.0001
      8  CD2        1.1970    8.9880   31.1490 C.3   681  LEU681      0.0001
      9  N          6.4750    9.1630   34.0810 N.am  682  GLU682     -0.1966
     10  CA         7.2990    9.9230   35.0650 C.3   682  GLU682      0.1733
     11  C          8.7200    9.3930   35.4720 C.2   682  GLU682      0.2616
     12  O          9.7270    9.9920   35.0680 O.2   682  GLU682     -0.2715
     13  CB         6.4810   10.3510   36.3000 C.3   682  GLU682      0.0429
     14  CG         5.8370    9.2200   37.0820 C.3   682  GLU682      0.1163
     15  CD         5.8770    9.4780   38.5710 C.2   682  GLU682      0.3649
     16  OE1        5.5280   10.6090   38.9810 O.co2 682  GLU682     -0.2457
     17  OE2        6.2670    8.5580   39.3230 O.co2 682  GLU682     -0.2457
     18  N          8.8060    8.3020   36.2550 N.am  683  ALA683     -0.1963
     19  CA        10.0970    7.8510   36.8550 C.3   683  ALA683      0.1728
     20  C         10.9820    6.9560   35.9420 C.2   683  ALA683      0.2616
     21  O         10.4930    6.3410   34.9900 O.2   683  ALA683     -0.2715
     22  CB         9.8830    7.1970   38.2390 C.3   683  ALA683      0.0334
     23  N         12.2840    6.9210   36.2300 N.am  684  CYS684     -0.1954
     24  CA        13.1900    5.9750   35.5620 C.3   684  CYS684      0.1843
     25  C         12.7470    4.5010   35.8300 C.2   684  CYS684      0.2625
     26  O         12.4390    4.1400   36.9740 O.2   684  CYS684     -0.2714
     27  CB        14.6060    6.2090   36.0510 C.3   684  CYS684      0.0997
     28  SG        15.8670    5.1140   35.4210 S.3   684  CYS684     -0.0797
     29  N         12.7330    3.6680   34.7800 N.am  685  ALA685     -0.1963
     30  CA        12.2820    2.2720   34.8900 C.3   685  ALA685      0.1728
     31  C         13.2720    1.3290   35.5820 C.2   685  ALA685      0.2617
     32  O         12.9930    0.1250   35.7140 O.2   685  ALA685     -0.2715
     33  CB        11.8220    1.7210   33.5370 C.3   685  ALA685      0.0334
     34  N         14.4010    1.8840   36.0470 N.am  686  PHE686     -0.1938
     35  CA        15.4520    1.1440   36.8120 C.3   686  PHE686      0.2021
     36  C         15.6670    1.7650   38.1950 C.2   686  PHE686      0.3845
     37  O         16.3820    1.1610   39.0070 O.co2 686  PHE686     -0.2437
     38  CB        16.8000    1.0620   36.0410 C.3   686  PHE686      0.0596
     39  CG        16.6290    0.6900   34.5870 C.ar  686  PHE686     -0.0199
     40  CD1       16.3200   -0.6220   34.2090 C.ar  686  PHE686     -0.0042
     41  CD2       16.6950    1.6640   33.5890 C.ar  686  PHE686     -0.0042
     42  CE1       16.1070   -0.9280   32.8610 C.ar  686  PHE686     -0.0003
     43  CE2       16.4870    1.3450   32.2410 C.ar  686  PHE686     -0.0003
     44  CZ        16.1960    0.0590   31.8880 C.ar  686  PHE686     -0.0000
     45  OXT       15.1560    2.8490   38.5150 O.co2 686  PHE686     -0.2437
@<TRIPOS>BOND
     1     8     6    1
     2     5     6    1
     3     5     2    1
     4    44    43   ar
     5    44    42   ar
     6     6     7    1
     7    43    41   ar
     8     2     1    1
     9     2     3    1
    10    42    40   ar
    11     3     4    2
    12     3     9   am
    13    33    30    1
    14    41    39   ar
    15     9    10    1
    16    40    39   ar
    17    39    38    1
    18    29    30    1
    19    29    25   am
    20    30    31    1
    21    21    20    2
    22    10    11    1
    23    10    13    1
    24    12    11    2
    25    28    27    1
    26    11    18   am
    27    24    25    1
    28    24    27    1
    29    24    23    1
    30    31    32    2
    31    31    34   am
    32    25    26    2
    33    20    23   am
    34    20    19    1
    35    38    35    1
    36    34    35    1
    37    18    19    1
    38    13    14    1
    39    35    36    1
    40    19    22    1
    41    14    15    1
    42    36    45   ar
    43    36    37   ar
    44    15    16   ar
    45    15    17   ar
