@<TRIPOS>MOLECULE
4fjp_NPS_A_1.pdb
 17 18 0 0 0
SMALL
GASTEIGER

@<TRIPOS>ATOM
      1  C1         8.8030   16.9140   16.1930 C.ar  711  NPS711      0.1387
      2  O2         7.6100   17.4210   16.6370 O.3   711  NPS711     -0.4714
      3  C2         9.9860   17.2850   16.8300 C.ar  711  NPS711      0.0369
      4  C14       13.7870   13.9800   13.3240 C.3   711  NPS711      0.1256
      5  C3        11.2200   16.7950   16.4120 C.ar  711  NPS711      0.0031
      6  C4        11.2790   15.9180   15.3380 C.ar  711  NPS711     -0.0001
      7  C5        10.0230   15.5230   14.6580 C.ar  711  NPS711      0.0030
      8  C6         8.8160   16.0380   15.1110 C.ar  711  NPS711      0.0369
      9  C7        12.4860   15.4040   14.8850 C.ar  711  NPS711     -0.0037
     10  C8        12.4990   14.5270   13.8040 C.ar  711  NPS711     -0.0118
     11  C10       13.5250   12.7960   12.4010 C.3   711  NPS711      0.0166
     12  C13       10.0820   14.6460   13.5840 C.ar  711  NPS711     -0.0002
     13  C11       11.3160   14.1560   13.1660 C.ar  711  NPS711     -0.0037
     14  C12        6.7570   18.1280   15.7400 C.3   711  NPS711      0.2525
     15  O         14.2130   13.8160   15.6460 O.co2 711  NPS711     -0.2453
     16  OXT       15.6540   12.8810   14.2770 O.co2 711  NPS711     -0.2453
     17  C15       14.6070   13.5280   14.4960 C.2   711  NPS711      0.3683
@<TRIPOS>BOND
     1    11     4    1
     2    13    12   ar
     3    13    10   ar
     4     4    10    1
     5     4    17    1
     6    12     7   ar
     7    10     9   ar
     8    16    17   ar
     9    17    15   ar
    10     7     8   ar
    11     7     6   ar
    12     9     6   ar
    13     8     1   ar
    14     6     5   ar
    15    14     2    1
    16     1     2    1
    17     1     3   ar
    18     5     3   ar
