@<TRIPOS>MOLECULE
4fju_NAI_A_1.pdb
 44 48 0 0 0
SMALL
GASTEIGER

@<TRIPOS>ATOM
      1  PA        52.2110   -8.5480  -21.4580 P.3   401  NAI401      0.2189
      2  O1A       53.4230   -8.5470  -22.4040 O.2   401  NAI401     -0.5170
      3  O2A       52.0720   -7.2030  -20.8180 O.3   401  NAI401     -0.4371
      4  O5B       50.9070   -8.8250  -22.3550 O.3   401  NAI401     -0.3112
      5  C5B       49.6490   -9.2460  -21.8320 C.3   401  NAI401      0.1813
      6  C4B       48.6960   -9.7630  -22.8120 C.3   401  NAI401      0.1821
      7  O4B       48.4220   -8.7720  -23.7810 O.3   401  NAI401     -0.3135
      8  C3B       49.2670  -10.9240  -23.5370 C.3   401  NAI401      0.2184
      9  O3B       48.2450  -11.8450  -23.8580 O.3   401  NAI401     -0.2174
     10  C2B       49.8000  -10.3460  -24.7110 C.3   401  NAI401      0.2570
     11  O2B       49.8890  -11.2740  -25.7390 O.3   401  NAI401     -0.2130
     12  C1B       48.8500   -9.2400  -25.0240 C.3   401  NAI401      0.3186
     13  N9A       49.4390   -8.1610  -25.7840 N.pl3 401  NAI401     -0.1439
     14  C8A       50.4820   -7.3870  -25.4010 C.3   401  NAI401      0.3377
     15  N7A       50.7490   -6.4950  -26.3700 N.2   401  NAI401     -0.2095
     16  C5A       49.8620   -6.6830  -27.3760 C.2   401  NAI401      0.2526
     17  C6A       49.6400   -6.0740  -28.6110 C.2   401  NAI401      0.4393
     18  N6A       50.4330   -5.0110  -29.0420 N.pl3 401  NAI401      0.2180
     19  N1A       48.6440   -6.5330  -29.3890 N.2   401  NAI401      0.0021
     20  C2A       47.8660   -7.5550  -29.0050 C.3   401  NAI401      0.5254
     21  N3A       48.0520   -8.1700  -27.8300 N.2   401  NAI401     -0.0055
     22  C4A       49.0350   -7.7520  -26.9980 C.2   401  NAI401      0.3518
     23  O3        52.3660   -9.7750  -20.5310 O.3   401  NAI401     -0.2703
     24  PN        52.6300   -9.8860  -18.9880 P.3   401  NAI401      0.2189
     25  O1N       51.5000   -9.2290  -18.1940 O.3   401  NAI401     -0.4371
     26  O2N       53.9660   -9.2700  -18.5880 O.2   401  NAI401     -0.5170
     27  O5D       52.6500  -11.4620  -18.8770 O.3   401  NAI401     -0.3112
     28  C5D       52.9150  -12.2070  -17.7090 C.3   401  NAI401      0.1813
     29  C4D       53.1970  -13.6610  -17.9600 C.3   401  NAI401      0.1799
     30  O4D       53.7550  -14.2010  -16.8100 O.3   401  NAI401     -0.3327
     31  C3D       51.9570  -14.4180  -18.2090 C.3   401  NAI401      0.2158
     32  O3D       52.2550  -15.5510  -19.0660 O.3   401  NAI401     -0.2175
     33  C2D       51.5840  -14.8810  -16.9430 C.3   401  NAI401      0.2309
     34  O2D       50.8200  -16.0850  -17.0470 O.3   401  NAI401     -0.2158
     35  C1D       52.8890  -15.1430  -16.2970 C.3   401  NAI401      0.2263
     36  N1N       52.8530  -15.0610  -14.8260 N.pl3 401  NAI401     -0.2787
     37  C2N       52.9000  -16.1720  -14.0770 C.3   401  NAI401      0.1244
     38  C3N       52.8770  -16.0660  -12.6950 C.2   401  NAI401      0.0544
     39  C7N       52.9080  -17.2500  -11.8700 C.2   401  NAI401      0.2818
     40  O7N       52.8130  -18.3280  -12.3870 O.2   401  NAI401     -0.2670
     41  N7N       53.0330  -17.1510  -10.3890 N.am  401  NAI401     -0.0839
     42  C4N       52.8030  -14.7930  -12.1090 C.2   401  NAI401      0.0033
     43  C5N       52.7520  -13.6610  -12.9190 C.2   401  NAI401      0.0157
     44  C6N       52.7830  -13.8330  -14.2940 C.2   401  NAI401      0.0633
@<TRIPOS>BOND
     1    19    20    1
     2    19    17    2
     3    18    17    1
     4    20    21    1
     5    17    16    1
     6    21    22    2
     7    16    22    1
     8    16    15    2
     9    22    13    1
    10    15    14    1
    11    13    14    1
    12    13    12    1
    13    11    10    1
    14    12    10    1
    15    12     7    1
    16    10     8    1
    17     9     8    1
    18     7     6    1
    19     8     6    1
    20     6     5    1
    21     2     1    2
    22     4     5    1
    23     4     1    1
    24     1     3    1
    25     1    23    1
    26    23    24    1
    27    32    31    1
    28    24    27    1
    29    24    26    2
    30    24    25    1
    31    27    28    1
    32    31    29    1
    33    31    33    1
    34    29    28    1
    35    29    30    1
    36    34    33    1
    37    33    35    1
    38    30    35    1
    39    35    36    1
    40    36    44    1
    41    36    37    1
    42    44    43    2
    43    37    38    1
    44    43    42    1
    45    38    42    2
    46    38    39    1
    47    40    39    2
    48    39    41   am
