@<TRIPOS>MOLECULE
4fjx_DTP_A_1.pdb
 30 32 0 0 0
SMALL
GASTEIGER

@<TRIPOS>ATOM
      1  PG         3.2280  -12.6630   14.4720 P.3   1001  DTP1001     0.5373
      2  O1G        1.8710  -12.4220   13.8570 O.3   1001  DTP1001    -0.1143
      3  O2G        4.3910  -12.6320   13.5370 O.2   1001  DTP1001    -0.2221
      4  O3G        3.2610  -13.7940   15.4610 O.3   1001  DTP1001    -0.1143
      5  PB         2.7230   -9.9410   15.4010 P.3   1001  DTP1001     0.2277
      6  O1B        3.6660   -8.9600   16.0450 O.3   1001  DTP1001    -0.4368
      7  O2B        2.1880   -9.5920   14.0380 O.2   1001  DTP1001    -0.5168
      8  O3B        3.5370  -11.3420   15.3680 O.3   1001  DTP1001    -0.2258
      9  PA        -0.0410  -10.2440   16.3510 P.3   1001  DTP1001     0.2189
     10  O1A       -0.5500  -10.9960   17.5330 O.3   1001  DTP1001    -0.4371
     11  O2A       -0.4760  -10.6180   14.9560 O.2   1001  DTP1001    -0.5170
     12  O3A        1.5740  -10.2530   16.4930 O.3   1001  DTP1001    -0.2700
     13  O5'       -0.3840   -8.6940   16.6350 O.3   1001  DTP1001    -0.3112
     14  C5'       -0.2960   -7.6890   15.6310 C.3   1001  DTP1001     0.1813
     15  C4'        0.2260   -6.4200   16.2820 C.3   1001  DTP1001     0.1795
     16  O4'       -0.6070   -6.0560   17.3980 O.3   1001  DTP1001    -0.3155
     17  C3'        1.6110   -6.5960   16.8800 C.3   1001  DTP1001     0.1883
     18  O3'        2.6720   -6.4940   15.9210 O.3   1001  DTP1001    -0.2202
     19  C2'        1.6240   -5.4720   17.9030 C.3   1001  DTP1001     0.1151
     20  C1'        0.1880   -5.4850   18.4380 C.3   1001  DTP1001     0.2873
     21  N9         0.2140   -6.3740   19.6200 N.pl3 1001  DTP1001    -0.1460
     22  C8        -0.2180   -7.6540   19.6810 C.3   1001  DTP1001     0.3377
     23  N7        -0.0080   -8.1780   20.9120 N.2   1001  DTP1001    -0.2095
     24  C5         0.5710   -7.2290   21.6620 C.2   1001  DTP1001     0.2526
     25  C6         1.0570   -7.1210   23.0550 C.2   1001  DTP1001     0.4393
     26  N6         0.9590   -8.1690   23.9090 N.pl3 1001  DTP1001     0.2180
     27  N1         1.6000   -5.9480   23.4380 N.2   1001  DTP1001     0.0021
     28  C2         1.7090   -4.8910   22.6030 C.3   1001  DTP1001     0.5254
     29  N3         1.2780   -4.9200   21.3240 N.2   1001  DTP1001    -0.0055
     30  C4         0.7170   -6.0400   20.8060 C.2   1001  DTP1001     0.3518
@<TRIPOS>BOND
     1     3     1    2
     2     2     1    1
     3     7     5    2
     4     1     8    1
     5     1     4    1
     6    11     9    2
     7     8     5    1
     8     5     6    1
     9     5    12    1
    10    14    15    1
    11    14    13    1
    12    18    17    1
    13    15    17    1
    14    15    16    1
    15     9    12    1
    16     9    13    1
    17     9    10    1
    18    17    19    1
    19    16    20    1
    20    19    20    1
    21    20    21    1
    22    21    22    1
    23    21    30    1
    24    22    23    1
    25    30    29    2
    26    30    24    1
    27    23    24    2
    28    29    28    1
    29    24    25    1
    30    28    27    1
    31    25    27    2
    32    25    26    1
