@<TRIPOS>MOLECULE
4fjy_FJY_A_1.pdb
 35 40 0 0 0
SMALL
GASTEIGER

@<TRIPOS>ATOM
      1  C26       22.9790   11.8500   24.1950 C.3   1204  FJY1204     0.1231
      2  C27       21.7250   11.2500   24.8130 C.3   1204  FJY1204     0.1636
      3  O1        20.6310   12.1750   24.8460 O.3   1204  FJY1204    -0.3501
      4  C28       20.2370   12.4560   23.5310 C.3   1204  FJY1204     0.1636
      5  C29       21.2570   13.5490   23.3260 C.3   1204  FJY1204     0.1231
      6  N4        22.6270   12.9770   23.3140 N.pl3 1204  FJY1204    -0.3027
      7  C22       23.5430   13.5520   22.4220 C.ar  1204  FJY1204     0.0492
      8  C23       23.0340   14.6050   21.6820 C.ar  1204  FJY1204     0.0290
      9  C19       23.7970   15.2790   20.7520 C.ar  1204  FJY1204     0.0486
     10  C21       24.8710   13.1460   22.2340 C.ar  1204  FJY1204     0.0143
     11  C20       25.6610   13.8230   21.2950 C.ar  1204  FJY1204    -0.0017
     12  C18       25.1210   14.8910   20.5580 C.ar  1204  FJY1204    -0.0075
     13  C17       25.6830   15.8170   19.4820 C.3   1204  FJY1204     0.0387
     14  C24       27.0380   16.3710   19.9080 C.3   1204  FJY1204     0.0061
     15  C25       25.7400   15.0170   18.1850 C.3   1204  FJY1204     0.0061
     16  C16       24.6560   16.9380   19.3780 C.3   1204  FJY1204     0.0992
     17  N2        23.4660   16.3110   19.9730 N.pl3 1204  FJY1204    -0.2897
     18  C7        22.1890   16.6960   19.7890 C.2   1204  FJY1204     0.0376
     19  C8        21.5040   17.4800   20.7370 C.2   1204  FJY1204     0.0180
     20  C11       22.2300   17.9410   22.0120 C.3   1204  FJY1204     0.0347
     21  C1        21.5030   16.2810   18.6420 C.3   1204  FJY1204     0.1101
     22  C6        22.1330   15.4980   17.6750 C.2   1204  FJY1204    -0.0114
     23  C5        21.4400   15.1010   16.5370 C.2   1204  FJY1204     0.0259
     24  C4        20.1220   15.4840   16.3560 C.2   1204  FJY1204     0.1421
     25  F1        19.4740   15.0980   15.2480 F     1204  FJY1204    -0.2041
     26  C3        19.4830   16.2680   17.3090 C.2   1204  FJY1204     0.0578
     27  C2        20.1740   16.6640   18.4510 C.2   1204  FJY1204     0.1202
     28  N1        19.5510   17.4170   19.3650 N.2   1204  FJY1204    -0.4057
     29  C9        20.1620   17.8370   20.4860 C.2   1204  FJY1204     0.1294
     30  C10       19.3650   18.5970   21.3480 C.ar  1204  FJY1204     0.0484
     31  C12       18.2320   17.9870   21.8980 C.ar  1204  FJY1204     0.0057
     32  C13       17.4110   18.7210   22.7480 C.ar  1204  FJY1204     0.0208
     33  C14       17.7530   20.0470   23.0150 C.ar  1204  FJY1204     0.0989
     34  N3        18.8330   20.6060   22.4780 N.ar  1204  FJY1204    -0.2422
     35  C15       19.6340   19.9340   21.6560 C.ar  1204  FJY1204     0.1014
@<TRIPOS>BOND
     1    25    24    1
     2    24    23    1
     3    24    26    2
     4    23    22    2
     5    26    27    1
     6    22    21    1
     7    15    13    1
     8    27    21    1
     9    27    28    2
    10    21    18    1
    11    28    29    2
    12    16    13    1
    13    16    17    1
    14    13    14    1
    15    13    12    1
    16    18    17    1
    17    18    19    2
    18    17     9    1
    19    29    19    1
    20    29    30    1
    21    12     9   ar
    22    12    11   ar
    23    19    20    1
    24     9     8   ar
    25    11    10   ar
    26    30    35   ar
    27    30    31   ar
    28    35    34   ar
    29     8     7   ar
    30    31    32   ar
    31    10     7   ar
    32     7     6    1
    33    34    33   ar
    34    32    33   ar
    35     6     5    1
    36     6     1    1
    37     5     4    1
    38     4     3    1
    39     1     2    1
    40     2     3    1
