@<TRIPOS>MOLECULE
4fjz_4FJ_A_1.pdb
 38 44 0 0 0
SMALL
GASTEIGER

@<TRIPOS>ATOM
      1  C11       22.2990   17.8390   21.5940 C.3   1205  4FJ1205     0.0348
      2  C13       17.9210   19.7070   22.3140 C.ar  1205  4FJ1205     0.0032
      3  C14       18.5780   20.9090   22.5530 C.ar  1205  4FJ1205     0.0207
      4  C16       24.4700   16.1860   18.9580 C.3   1205  4FJ1205     0.1009
      5  C17       25.4250   15.1050   19.4690 C.3   1205  4FJ1205     0.0600
      6  C19       23.3720   14.9590   20.6190 C.ar  1205  4FJ1205     0.0664
      7  C21       22.9370   13.4690   22.4490 C.ar  1205  4FJ1205     0.0686
      8  C22       22.5010   14.4610   21.5820 C.ar  1205  4FJ1205     0.0321
      9  C23       25.7330   14.0460   18.3930 C.3   1205  4FJ1205     0.0394
     10  C24       26.8010   14.5500   17.4180 C.3   1205  4FJ1205     0.1426
     11  C25       27.5480   16.2420   18.8420 C.3   1205  4FJ1205     0.1426
     12  C27       22.3300   11.6770   24.0350 C.3   1205  4FJ1205     0.1231
     13  C28       21.0340   10.9050   24.0250 C.3   1205  4FJ1205     0.1636
     14  C30       20.8700   13.7140   23.8170 C.3   1205  4FJ1205     0.1231
     15  O1        27.9490   15.0920   18.0870 O.3   1205  4FJ1205    -0.3538
     16  C26       26.7140   15.7330   20.0130 C.3   1205  4FJ1205     0.0394
     17  C18       24.6630   14.4280   20.5760 C.ar  1205  4FJ1205     0.0737
     18  N4        25.0590   13.4670   21.4260 N.ar  1205  4FJ1205    -0.2456
     19  C20       24.2430   12.9880   22.3480 C.ar  1205  4FJ1205     0.1130
     20  N5        22.0700   12.9660   23.4080 N.pl3 1205  4FJ1205    -0.3015
     21  O2        20.0510   11.6220   24.7780 O.3   1205  4FJ1205    -0.3501
     22  C29       19.6660   12.7880   24.0490 C.3   1205  4FJ1205     0.1636
     23  N2        23.2140   15.9090   19.6810 N.pl3 1205  4FJ1205    -0.2885
     24  C7        22.0520   16.5460   19.4270 C.2   1205  4FJ1205     0.0377
     25  C8        21.5320   17.5010   20.3080 C.2   1205  4FJ1205     0.0194
     26  C1        21.3220   16.2630   18.2680 C.3   1205  4FJ1205     0.1101
     27  C6        21.7910   15.3240   17.3540 C.2   1205  4FJ1205    -0.0114
     28  C5        21.0690   15.0440   16.2000 C.2   1205  4FJ1205     0.0259
     29  C4        19.8730   15.7040   15.9490 C.2   1205  4FJ1205     0.1421
     30  F1        19.1890   15.4280   14.8190 F     1205  4FJ1205    -0.2041
     31  C3        19.4010   16.6440   16.8580 C.2   1205  4FJ1205     0.0578
     32  C2        20.1190   16.9230   18.0150 C.2   1205  4FJ1205     0.1203
     33  N1        19.6460   17.8330   18.8740 N.2   1205  4FJ1205    -0.4042
     34  C9        20.3150   18.1410   19.9980 C.2   1205  4FJ1205     0.1454
     35  C10       19.7440   19.0850   20.8530 C.ar  1205  4FJ1205     0.1105
     36  C12       18.5150   18.7880   21.4540 C.ar  1205  4FJ1205     0.0217
     37  C15       19.8030   21.1560   21.9270 C.ar  1205  4FJ1205     0.0989
     38  N3        20.3490   20.2610   21.1080 N.ar  1205  4FJ1205    -0.2413
@<TRIPOS>BOND
     1    30    29    1
     2    29    28    1
     3    29    31    2
     4    28    27    2
     5    31    32    1
     6    27    26    1
     7    10    15    1
     8    10     9    1
     9    32    26    1
    10    32    33    2
    11    15    11    1
    12    26    24    1
    13     9     5    1
    14    11    16    1
    15    33    34    2
    16     4     5    1
    17     4    23    1
    18    24    23    1
    19    24    25    2
    20     5    16    1
    21     5    17    1
    22    23     6    1
    23    34    25    1
    24    34    35    1
    25    25     1    1
    26    17     6   ar
    27    17    18   ar
    28     6     8   ar
    29    35    38   ar
    30    35    36   ar
    31    38    37   ar
    32    18    19   ar
    33    36     2   ar
    34     8     7   ar
    35    37     3   ar
    36     2     3   ar
    37    19     7   ar
    38     7    20    1
    39    20    14    1
    40    20    12    1
    41    14    22    1
    42    13    12    1
    43    13    21    1
    44    22    21    1
