@<TRIPOS>MOLECULE
4fk0_DCP_A_1.pdb
 28 29 0 0 0
SMALL
GASTEIGER

@<TRIPOS>ATOM
      1  N1         0.1480   -6.1880  -45.6980 N.am  1001  DCP1001    -0.1802
      2  C2         0.5440   -5.4410  -44.5660 C.1   1001  DCP1001     0.2756
      3  N3         0.6040   -6.0250  -43.3450 N.2   1001  DCP1001    -0.3024
      4  C4         0.2810   -7.3370  -43.2000 C.2   1001  DCP1001     0.2346
      5  C5        -0.1270   -8.1000  -44.3070 C.2   1001  DCP1001     0.0687
      6  C6        -0.1800   -7.4990  -45.5620 C.2   1001  DCP1001     0.0835
      7  O2         0.8470   -4.2400  -44.6920 O.2   1001  DCP1001    -0.1925
      8  N4         0.3710   -7.8970  -41.9770 N.pl3 1001  DCP1001    -0.0921
      9  C1'        0.1260   -5.4990  -47.0030 C.3   1001  DCP1001     0.2090
     10  C2'        1.5580   -5.5500  -47.5420 C.3   1001  DCP1001     0.0874
     11  C3'        1.5250   -6.7290  -48.4880 C.3   1001  DCP1001     0.1857
     12  C4'        0.1300   -6.6030  -49.0830 C.3   1001  DCP1001     0.1773
     13  O4'       -0.6870   -6.1600  -47.9920 O.3   1001  DCP1001    -0.3339
     14  O3'        2.5740   -6.6520  -49.4550 O.3   1001  DCP1001    -0.2203
     15  C5'       -0.4140   -7.8980  -49.6570 C.3   1001  DCP1001     0.1812
     16  O5'       -0.3580   -8.9150  -48.6520 O.3   1001  DCP1001    -0.3112
     17  PA         0.0380  -10.4440  -48.9810 P.3   1001  DCP1001     0.2189
     18  O1A       -0.5170  -11.2730  -47.8670 O.3   1001  DCP1001    -0.4371
     19  O2A       -0.3620  -10.7280  -50.4160 O.2   1001  DCP1001    -0.5170
     20  O3A        1.6620  -10.4400  -48.8160 O.3   1001  DCP1001    -0.2700
     21  PB         2.7990  -10.0510  -49.9080 P.3   1001  DCP1001     0.2277
     22  O1B        3.7020   -9.0360  -49.2690 O.3   1001  DCP1001    -0.4368
     23  O2B        2.1680   -9.6780  -51.2230 O.2   1001  DCP1001    -0.5168
     24  O3B        3.6560  -11.4080  -50.0190 O.3   1001  DCP1001    -0.2258
     25  PG         3.3120  -12.7290  -50.9100 P.3   1001  DCP1001     0.5373
     26  O1G        1.9860  -12.4090  -51.5380 O.3   1001  DCP1001    -0.1143
     27  O2G        4.4860  -12.7590  -51.8310 O.2   1001  DCP1001    -0.2221
     28  O3G        3.3090  -13.8520  -49.9140 O.3   1001  DCP1001    -0.1143
@<TRIPOS>BOND
     1    27    25    2
     2    26    25    1
     3    23    21    2
     4    25    24    1
     5    25    28    1
     6    19    17    2
     7    24    21    1
     8    21    22    1
     9    21    20    1
    10    15    12    1
    11    15    16    1
    12    14    11    1
    13    12    11    1
    14    12    13    1
    15    17    20    1
    16    17    16    1
    17    17    18    1
    18    11    10    1
    19    13     9    1
    20    10     9    1
    21     9     1    1
    22     1     6    1
    23     1     2   am
    24     6     5    2
    25     7     2    2
    26     2     3    2
    27     5     4    1
    28     3     4    2
    29     4     8    1
