@<TRIPOS>MOLECULE
4fk2_TTP_A_1.pdb
 29 30 0 0 0
SMALL
GASTEIGER

@<TRIPOS>ATOM
      1  PA        -0.1790   10.5690  -48.9380 P.3   1001  TTP1001     0.2189
      2  O1A        0.3460   11.4300  -47.8260 O.3   1001  TTP1001    -0.4371
      3  O2A        0.2940   10.8290  -50.3480 O.2   1001  TTP1001    -0.5170
      4  O3A       -1.7950   10.6540  -48.8060 O.3   1001  TTP1001    -0.2700
      5  PB        -2.9480   10.1500  -49.8290 P.3   1001  TTP1001     0.2277
      6  O1B       -3.7910    9.1530  -49.0590 O.3   1001  TTP1001    -0.4368
      7  O2B       -2.3720    9.7120  -51.1460 O.2   1001  TTP1001    -0.5168
      8  O3B       -3.8100   11.4980  -49.9590 O.3   1001  TTP1001    -0.2258
      9  PG        -3.4710   12.8030  -50.8620 P.3   1001  TTP1001     0.5373
     10  O1G       -2.1360   12.5710  -51.5100 O.3   1001  TTP1001    -0.1143
     11  O2G       -4.6240   12.7660  -51.8310 O.2   1001  TTP1001    -0.2221
     12  O3G       -3.5130   13.9410  -49.8860 O.3   1001  TTP1001    -0.1143
     13  O5'        0.1820    9.0430  -48.5830 O.3   1001  TTP1001    -0.3112
     14  C5'        0.1900    8.0030  -49.5500 C.3   1001  TTP1001     0.1812
     15  C4'       -0.2780    6.7290  -48.8580 C.3   1001  TTP1001     0.1773
     16  O4'        0.5770    6.4420  -47.7420 O.3   1001  TTP1001    -0.3339
     17  C3'       -1.6580    6.8470  -48.2310 C.3   1001  TTP1001     0.1857
     18  O3'       -2.7330    6.7030  -49.1700 O.3   1001  TTP1001    -0.2203
     19  C2'       -1.6000    5.7340  -47.2040 C.3   1001  TTP1001     0.0874
     20  C1'       -0.1630    5.8650  -46.6660 C.3   1001  TTP1001     0.2090
     21  N1        -0.2010    6.7800  -45.5070 N.am  1001  TTP1001    -0.1794
     22  C2        -0.5230    6.2250  -44.2530 C.1   1001  TTP1001     0.2844
     23  O2        -0.7350    4.9900  -44.1820 O.2   1001  TTP1001    -0.1918
     24  N3        -0.5940    6.9940  -43.1470 N.2   1001  TTP1001    -0.2455
     25  C4        -0.3800    8.3210  -43.2140 C.1   1001  TTP1001     0.2134
     26  O4        -0.4650    9.0200  -42.1860 O.2   1001  TTP1001    -0.2088
     27  C5        -0.0400    8.9460  -44.5200 C.2   1001  TTP1001     0.0891
     28  C5M        0.2130   10.4450  -44.6240 C.3   1001  TTP1001     0.0462
     29  C6         0.0380    8.1120  -45.6300 C.2   1001  TTP1001     0.0877
@<TRIPOS>BOND
     1    11     9    2
     2    10     9    1
     3     7     5    2
     4     9     8    1
     5     9    12    1
     6     3     1    2
     7     8     5    1
     8     5     6    1
     9     5     4    1
    10    14    15    1
    11    14    13    1
    12    18    17    1
    13     1     4    1
    14     1    13    1
    15     1     2    1
    16    15    17    1
    17    15    16    1
    18    17    19    1
    19    16    20    1
    20    19    20    1
    21    20    21    1
    22    29    21    1
    23    29    27    2
    24    21    22   am
    25    28    27    1
    26    27    25    1
    27    22    23    2
    28    22    24    2
    29    25    24    2
    30    25    26    2
