@<TRIPOS>MOLECULE
4fk3_325_A_1.pdb
 31 34 0 0 0
SMALL
GASTEIGER

@<TRIPOS>ATOM
      1  O30       -2.1460   49.9840   21.9290 O.2   801  325801     -0.2863
      2  C16       -1.6870   50.5030   20.9170 C.2   801  325801      0.2021
      3  C17       -0.2450   50.7950   20.8440 C.ar  801  325801      0.0952
      4  C22        0.6910   49.7790   20.6160 C.ar  801  325801      0.1619
      5  F28        0.2490   48.5180   20.4710 F     801  325801     -0.2026
      6  C21        2.0770   50.0260   20.5350 C.ar  801  325801      0.1182
      7  N23        2.8970   48.9660   20.3110 N.pl3 801  325801     -0.0984
      8  S24        4.4840   49.0460   20.1910 S.O2  801  325801      0.0732
      9  C26        4.6480   49.8750   18.6080 C.3   801  325801      0.1744
     10  C31        4.6920   48.8930   17.4520 C.3   801  325801      0.0293
     11  O27        5.1530   47.7700   19.9550 O.2   801  325801     -0.1529
     12  O25        5.1480   49.9280   21.1460 O.2   801  325801     -0.1529
     13  C20        2.4700   51.3720   20.6980 C.ar  801  325801      0.0226
     14  C19        1.5460   52.3990   20.9210 C.ar  801  325801      0.0313
     15  C18        0.1940   52.1050   20.9950 C.ar  801  325801      0.1454
     16  F29       -0.6730   53.1030   21.2100 F     801  325801     -0.2040
     17  C13       -2.5650   50.8340   19.7880 C.2   801  325801      0.0683
     18  C11       -3.9430   50.6780   19.6110 C.2   801  325801      0.0671
     19  C12       -5.0530   50.1800   20.3470 C.2   801  325801      0.0118
     20  C10       -4.1740   51.2030   18.2790 C.1   801  325801      0.0354
     21  N15       -3.0600   51.6090   17.7580 N.2   801  325801     -0.1921
     22  C14       -2.1020   51.4000   18.6260 C.2   801  325801      0.1134
     23  N9        -5.4410   51.2150   17.7540 N.2   801  325801     -0.1922
     24  C8        -6.5270   50.7230   18.4820 C.2   801  325801      0.1096
     25  C7        -6.3460   50.2050   19.7830 C.2   801  325801      0.0221
     26  C6        -7.5110   49.6880   20.5310 C.ar  801  325801      0.0207
     27  C5        -8.7060   50.4010   20.6450 C.ar  801  325801      0.0989
     28  N4        -9.8060   49.9730   21.3130 N.ar  801  325801     -0.2423
     29  C3        -9.7240   48.7610   21.9020 C.ar  801  325801      0.0989
     30  C2        -8.5980   47.9600   21.8560 C.ar  801  325801      0.0207
     31  C1        -7.4880   48.4340   21.1600 C.ar  801  325801      0.0032
@<TRIPOS>BOND
     1    10     9    1
     2    23    20    2
     3    23    24    1
     4    21    20    2
     5    21    22    1
     6    20    18    1
     7    24    25    2
     8     9     8    1
     9    22    17    2
    10    18    17    1
    11    18    19    2
    12    25    19    1
    13    25    26    1
    14    17     2    1
    15    11     8    2
    16     8     7    1
    17     8    12    2
    18     7     6    1
    19     5     4    1
    20    26    27   ar
    21    26    31   ar
    22     6     4   ar
    23     6    13   ar
    24     4     3   ar
    25    27    28   ar
    26    13    14   ar
    27     3     2    1
    28     3    15   ar
    29     2     1    2
    30    14    15   ar
    31    15    16    1
    32    31    30   ar
    33    28    29   ar
    34    30    29   ar
