@<TRIPOS>MOLECULE
4fk4_DGT_A_1.pdb
 31 33 0 0 0
SMALL
GASTEIGER

@<TRIPOS>ATOM
      1  PG         3.2130  -12.6820  -50.8180 P.3   1001  DGT1001     0.5373
      2  O1G        1.8740  -12.5360  -51.4890 O.3   1001  DGT1001    -0.1143
      3  O2G        4.3430  -12.7970  -51.7970 O.2   1001  DGT1001    -0.2221
      4  O3G        3.2070  -13.8220  -49.8520 O.3   1001  DGT1001    -0.1143
      5  O3B        3.5390  -11.3640  -49.9430 O.3   1001  DGT1001    -0.2258
      6  PB         2.7070   -9.9890  -49.8880 P.3   1001  DGT1001     0.2277
      7  O1B        3.6290   -8.9620  -49.2660 O.3   1001  DGT1001    -0.4368
      8  O2B        2.1540   -9.5770  -51.2370 O.2   1001  DGT1001    -0.5168
      9  O3A        1.5630  -10.2110  -48.7990 O.3   1001  DGT1001    -0.2700
     10  PA        -0.0330  -10.2070  -48.9630 P.3   1001  DGT1001     0.2189
     11  O1A       -0.5010  -11.0820  -47.8460 O.3   1001  DGT1001    -0.4371
     12  O2A       -0.5240  -10.6910  -50.3190 O.2   1001  DGT1001    -0.5170
     13  O5'       -0.4820   -8.6900  -48.6710 O.3   1001  DGT1001    -0.3112
     14  C5'       -0.3880   -7.6780  -49.6610 C.3   1001  DGT1001     0.1812
     15  C4'        0.1730   -6.4250  -49.0160 C.3   1001  DGT1001     0.1772
     16  O4'       -0.6210   -6.0480  -47.8930 O.3   1001  DGT1001    -0.3347
     17  C3'        1.5790   -6.6220  -48.4680 C.3   1001  DGT1001     0.1857
     18  O3'        2.6100   -6.4960  -49.4330 O.3   1001  DGT1001    -0.2203
     19  C2'        1.6210   -5.5150  -47.4290 C.3   1001  DGT1001     0.0865
     20  C1'        0.1960   -5.5190  -46.8660 C.3   1001  DGT1001     0.1981
     21  N9         0.2290   -6.4090  -45.6920 N.pl3 1001  DGT1001    -0.2374
     22  C8        -0.2060   -7.7190  -45.5910 C.3   1001  DGT1001     0.2245
     23  N7         0.0620   -8.1610  -44.3320 N.2   1001  DGT1001    -0.2322
     24  C5         0.6690   -7.1630  -43.6430 C.2   1001  DGT1001     0.2182
     25  C6         1.1460   -7.0580  -42.3370 C.1   1001  DGT1001     0.2372
     26  O6         1.0760   -8.0110  -41.5670 O.2   1001  DGT1001    -0.2069
     27  N1         1.7290   -5.8790  -41.9160 N.2   1001  DGT1001    -0.2485
     28  C2         1.8270   -4.8050  -42.7780 C.1   1001  DGT1001     0.2531
     29  N2         2.3830   -3.6680  -42.3790 N.pl3 1001  DGT1001    -0.0226
     30  N3         1.3490   -4.9100  -44.0640 N.2   1001  DGT1001    -0.3074
     31  C4         0.7740   -6.0630  -44.4870 C.2   1001  DGT1001     0.2299
@<TRIPOS>BOND
     1     3     1    2
     2     2     1    1
     3     8     6    2
     4     1     5    1
     5     1     4    1
     6    12    10    2
     7     5     6    1
     8     6     7    1
     9     6     9    1
    10    14    15    1
    11    14    13    1
    12    18    17    1
    13    15    17    1
    14    15    16    1
    15    10     9    1
    16    10    13    1
    17    10    11    1
    18    17    19    1
    19    16    20    1
    20    19    20    1
    21    20    21    1
    22    21    22    1
    23    21    31    1
    24    22    23    1
    25    31    30    2
    26    31    24    1
    27    23    24    2
    28    30    28    2
    29    24    25    1
    30    28    29    1
    31    28    27    2
    32    25    27    2
    33    25    26    2
