@<TRIPOS>MOLECULE
4fk6_0UJ_A_1.pdb
 25 29 0 0 0
SMALL
GASTEIGER

@<TRIPOS>ATOM
      1  C4         9.6870   55.9770    0.3100 C.3   1201  0UJ1201     0.1896
      2  C14        5.4370   54.9300    1.2690 C.3   1201  0UJ1201     0.0202
      3  C5         8.5470   56.9800    0.4140 C.2   1201  0UJ1201     0.1832
      4  C11        5.9420   55.5030    3.5830 C.3   1201  0UJ1201     0.0017
      5  C7         6.9140   55.3810    1.3970 C.3   1201  0UJ1201     0.0793
      6  C9         7.3020   55.1230    2.8940 C.3   1201  0UJ1201     0.0186
      7  C12        5.0850   54.4910    2.7340 C.3   1201  0UJ1201     0.0017
      8  N3        10.8900   56.5150   -0.3520 N.3   1201  0UJ1201    -0.0728
      9  C1        11.7140   54.2480   -1.7760 C.3   1201  0UJ1201     0.1975
     10  S2        11.3130   56.0130   -1.8900 S.O2  1201  0UJ1201     0.0596
     11  N6         7.2910   56.7280    0.9130 N.pl3 1201  0UJ1201    -0.2642
     12  C15        7.3700   53.5630    3.0580 C.3   1201  0UJ1201     0.0017
     13  C16        5.8410   53.1370    2.9900 C.3   1201  0UJ1201     0.0001
     14  C17        6.5720   57.9230    0.8690 C.2   1201  0UJ1201     0.0904
     15  C18        5.2770   58.4160    1.2120 C.2   1201  0UJ1201     0.0796
     16  C19        4.0620   57.8610    1.8170 C.2   1201  0UJ1201     0.0328
     17  C20        3.1510   58.8490    1.9220 C.2   1201  0UJ1201     0.1103
     18  N21        3.6780   60.0110    1.4140 N.2   1201  0UJ1201    -0.1925
     19  C23        4.9630   59.7830    0.9730 C.1   1201  0UJ1201     0.0326
     20  N24        5.8650   60.6010    0.4250 N.2   1201  0UJ1201    -0.2122
     21  C25        7.0730   60.1980    0.1080 C.3   1201  0UJ1201     0.1961
     22  C26        7.4750   58.8650    0.3180 C.2   1201  0UJ1201     0.1498
     23  N27        8.6320   58.2230    0.0710 N.2   1201  0UJ1201    -0.3906
     24  O28       12.4770   56.7780   -2.1570 O.2   1201  0UJ1201    -0.1560
     25  O29       10.1400   56.1930   -2.6690 O.2   1201  0UJ1201    -0.1560
@<TRIPOS>BOND
     1    25    10    2
     2    24    10    2
     3    10     9    1
     4    10     8    1
     5     8     1    1
     6    23    22    2
     7    23     3    2
     8    21    22    1
     9    21    20    1
    10     1     3    1
    11    22    14    1
    12     3    11    1
    13    20    19    2
    14    14    11    1
    15    14    15    2
    16    11     5    1
    17    19    15    1
    18    19    18    2
    19    15    16    1
    20     2     5    1
    21     2     7    1
    22     5     6    1
    23    18    17    1
    24    16    17    2
    25     7    13    1
    26     7     4    1
    27     6    12    1
    28     6     4    1
    29    13    12    1
