@<TRIPOS>MOLECULE
4fk7_P34_A_1.pdb
 16 18 0 0 0
SMALL
GASTEIGER

@<TRIPOS>ATOM
      1  NAM       -2.0430   -0.5500  -10.9810 N.pl3 1001  P341001    -0.1284
      2  CAP       -1.7600   -1.5220  -11.9440 C.2   1001  P341001     0.0856
      3  CAK       -1.7050   -2.7900  -11.4750 C.2   1001  P341001     0.0031
      4  CAU       -1.4560   -3.8600  -12.3070 C.3   1001  P341001     0.0995
      5  CAT       -1.3520   -5.2560  -11.8380 C.ar  1001  P341001     0.0002
      6  CAI       -1.4990   -5.6840  -10.5030 C.ar  1001  P341001    -0.0028
      7  CAF       -1.3120   -7.0060  -10.1870 C.ar  1001  P341001    -0.0003
      8  CAE       -1.0060   -7.9510  -11.1420 C.ar  1001  P341001     0.0007
      9  CAH       -0.9110   -7.5690  -12.4890 C.ar  1001  P341001     0.0124
     10  CAS       -1.0480   -6.2440  -12.8280 C.ar  1001  P341001     0.0914
     11  CAQ       -0.9860   -5.8500  -14.2610 C.1   1001  P341001     0.2040
     12  OAD       -0.8140   -6.7400  -15.0700 O.2   1001  P341001    -0.2093
     13  NAN       -1.0760   -4.5900  -14.6290 N.2   1001  P341001    -0.3367
     14  CAR       -1.2820   -3.5800  -13.7760 C.2   1001  P341001     0.1298
     15  CAJ       -1.4050   -2.2410  -14.2430 C.2   1001  P341001     0.0305
     16  CAG       -1.6560   -1.2110  -13.3220 C.2   1001  P341001     0.0201
@<TRIPOS>BOND
     1    12    11    2
     2    13    11    2
     3    13    14    2
     4    11    10    1
     5    15    14    1
     6    15    16    2
     7    14     4    1
     8    16     2    1
     9    10     9   ar
    10    10     5   ar
    11     9     8   ar
    12     4     5    1
    13     4     3    1
    14     2     3    2
    15     2     1    1
    16     5     6   ar
    17     8     7   ar
    18     6     7   ar
