@<TRIPOS>MOLECULE
4fkk_BES_A_1.pdb
 22 22 0 0 0
SMALL
GASTEIGER

@<TRIPOS>ATOM
      1  N2        30.9210   15.2510   60.5650 N.3   1024  BES1024    -0.1293
      2  C1        29.9310   15.7420   59.6260 C.3   1024  BES1024     0.1355
      3  C6        30.3210   15.2290   58.2300 C.3   1024  BES1024     0.0485
      4  C7        29.3350   14.2790   57.5690 C.ar  1024  BES1024    -0.0206
      5  C8        28.0420   14.6970   57.2070 C.ar  1024  BES1024    -0.0042
      6  C12       29.7170   12.9610   57.2880 C.ar  1024  BES1024    -0.0042
      7  C9        27.1380   13.8210   56.5880 C.ar  1024  BES1024    -0.0003
      8  C11       28.8110   12.0850   56.6730 C.ar  1024  BES1024    -0.0003
      9  C10       27.5220   12.5070   56.3220 C.ar  1024  BES1024    -0.0000
     10  C2        29.7730   17.2900   59.6770 C.3   1024  BES1024     0.2467
     11  O2        30.3370   17.9450   60.8420 O.3   1024  BES1024    -0.2116
     12  C3        28.3050   17.6000   59.6350 C.2   1024  BES1024     0.2738
     13  O3        27.6400   17.1160   60.5360 O.2   1024  BES1024    -0.2705
     14  N1        27.8080   18.3590   58.6330 N.am  1024  BES1024    -0.1934
     15  C4        26.3640   18.6740   58.5580 C.3   1024  BES1024     0.1978
     16  C13       26.1730   20.1520   58.9060 C.3   1024  BES1024     0.0333
     17  C14       25.6920   20.2700   60.3480 C.3   1024  BES1024     0.0023
     18  C15       25.4860   21.7380   60.6840 C.3   1024  BES1024     0.0001
     19  C16       24.4250   19.4570   60.6100 C.3   1024  BES1024     0.0001
     20  C5        25.6560   18.3660   57.2530 C.2   1024  BES1024     0.3842
     21  O1        25.5330   17.1590   56.9300 O.co2 1024  BES1024    -0.2437
     22  O4        25.1900   19.3090   56.5560 O.co2 1024  BES1024    -0.2437
@<TRIPOS>BOND
     1     9     7   ar
     2     9     8   ar
     3    22    20   ar
     4     7     5   ar
     5     8     6   ar
     6    21    20   ar
     7     5     4   ar
     8    20    15    1
     9     6     4   ar
    10     4     3    1
    11     3     2    1
    12    15    14    1
    13    15    16    1
    14    14    12   am
    15    16    17    1
    16     2    10    1
    17     2     1    1
    18    12    10    1
    19    12    13    2
    20    10    11    1
    21    17    19    1
    22    17    18    1
