@<TRIPOS>MOLECULE
4fkx_CDP_A_1.pdb
 25 26 0 0 0
SMALL
GASTEIGER

@<TRIPOS>ATOM
      1  O3B       16.3070   11.4730   46.2320 O.3   201  CDP201     -0.1143
      2  PB        14.8820   10.9990   46.1000 P.3   201  CDP201      0.5373
      3  O1B       14.4780   10.3370   44.8000 O.2   201  CDP201     -0.2221
      4  O2B       13.8750   12.0590   46.5340 O.3   201  CDP201     -0.1143
      5  O3A       14.6020    9.8560   47.2330 O.3   201  CDP201     -0.2261
      6  PA        15.6320    8.7410   47.7850 P.3   201  CDP201      0.2231
      7  O1A       17.0220    8.9450   47.2440 O.2   201  CDP201     -0.5169
      8  O2A       15.4520    8.6700   49.3080 O.3   201  CDP201     -0.4370
      9  O5'       15.0270    7.3720   47.2160 O.3   201  CDP201     -0.3111
     10  C5'       15.3100    7.0200   45.8590 C.3   201  CDP201      0.1813
     11  C4'       14.0650    6.4870   45.1930 C.3   201  CDP201      0.1799
     12  O4'       13.6480    5.3080   45.8580 O.3   201  CDP201     -0.3320
     13  C3'       12.8640    7.4440   45.2360 C.3   201  CDP201      0.2158
     14  O3'       12.9570    8.5330   44.2690 O.3   201  CDP201     -0.2175
     15  C2'       11.7470    6.4500   45.0010 C.3   201  CDP201      0.2319
     16  O2'       11.5140    6.2400   43.6100 O.3   201  CDP201     -0.2157
     17  C1'       12.2410    5.1520   45.6360 C.3   201  CDP201      0.2400
     18  N1        11.5940    4.9120   46.9460 N.am  201  CDP201     -0.1778
     19  C2        10.5580    3.9540   47.0710 C.1   201  CDP201      0.2756
     20  O2        10.1960    3.3110   46.0940 O.2   201  CDP201     -0.1925
     21  N3         9.9660    3.7430   48.2580 N.2   201  CDP201     -0.3024
     22  C4        10.3570    4.4450   49.3440 C.2   201  CDP201      0.2346
     23  N4         9.7380    4.2140   50.5280 N.pl3 201  CDP201     -0.0921
     24  C5        11.3770    5.3980   49.2590 C.2   201  CDP201      0.0687
     25  C6        11.9850    5.6180   48.0290 C.2   201  CDP201      0.0836
@<TRIPOS>BOND
     1    16    15    1
     2    14    13    1
     3     3     2    2
     4    15    13    1
     5    15    17    1
     6    11    13    1
     7    11    12    1
     8    11    10    1
     9    17    12    1
    10    17    18    1
    11    10     9    1
    12    20    19    2
    13     2     1    1
    14     2     4    1
    15     2     5    1
    16    18    19   am
    17    18    25    1
    18    19    21    2
    19     9     6    1
    20     5     6    1
    21     7     6    2
    22     6     8    1
    23    25    24    2
    24    21    22    2
    25    24    22    1
    26    22    23    1
