@<TRIPOS>MOLECULE
4fky_GDP_A_1.pdb
 28 30 0 0 0
SMALL
GASTEIGER

@<TRIPOS>ATOM
      1  PB        14.6580   11.0150   46.0310 P.3   201  GDP201      0.5373
      2  O1B       14.2460   10.3150   44.7790 O.2   201  GDP201     -0.2221
      3  O2B       13.6300   12.0480   46.4780 O.3   201  GDP201     -0.1143
      4  O3B       16.0860   11.5010   46.1500 O.3   201  GDP201     -0.1143
      5  O3A       14.4290    9.8810   47.1910 O.3   201  GDP201     -0.2261
      6  PA        15.4650    8.7500   47.7490 P.3   201  GDP201      0.2231
      7  O1A       16.8600    8.9460   47.2270 O.2   201  GDP201     -0.5169
      8  O2A       15.3170    8.7530   49.2560 O.3   201  GDP201     -0.4370
      9  O5'       14.8410    7.3890   47.1710 O.3   201  GDP201     -0.3111
     10  C5'       15.1850    7.0540   45.8160 C.3   201  GDP201      0.1813
     11  C4'       13.9680    6.5500   45.0870 C.3   201  GDP201      0.1799
     12  O4'       13.5400    5.3540   45.7150 O.3   201  GDP201     -0.3326
     13  C3'       12.7840    7.5060   45.1520 C.3   201  GDP201      0.2158
     14  O3'       12.8500    8.5790   44.1970 O.3   201  GDP201     -0.2175
     15  C2'       11.6690    6.5420   44.9310 C.3   201  GDP201      0.2310
     16  O2'       11.5840    6.2730   43.5360 O.3   201  GDP201     -0.2158
     17  C1'       12.1300    5.2620   45.6400 C.3   201  GDP201      0.2293
     18  N9        11.6190    5.1820   47.0270 N.pl3 201  GDP201     -0.2354
     19  C8        11.9780    5.9770   48.0580 C.3   201  GDP201      0.2246
     20  N7        11.3290    5.6290   49.1690 N.2   201  GDP201     -0.2322
     21  C5        10.5300    4.5950   48.8600 C.2   201  GDP201      0.2182
     22  C6         9.5530    3.7660   49.5750 C.1   201  GDP201      0.2372
     23  O6         9.3080    3.9350   50.7920 O.2   201  GDP201     -0.2069
     24  N1         8.9500    2.8180   48.8890 N.2   201  GDP201     -0.2485
     25  C2         9.1800    2.5910   47.5790 C.1   201  GDP201      0.2531
     26  N2         8.5000    1.5950   46.9830 N.pl3 201  GDP201     -0.0226
     27  N3        10.0410    3.2990   46.8360 N.2   201  GDP201     -0.3074
     28  C4        10.7260    4.2980   47.4350 C.2   201  GDP201      0.2300
@<TRIPOS>BOND
     1    16    15    1
     2    14    13    1
     3     2     1    2
     4    15    13    1
     5    15    17    1
     6    11    13    1
     7    11    12    1
     8    11    10    1
     9    17    12    1
    10    17    18    1
    11    10     9    1
    12     1     4    1
    13     1     3    1
    14     1     5    1
    15    27    28    2
    16    27    25    2
    17    26    25    1
    18    18    28    1
    19    18    19    1
    20     9     6    1
    21     5     6    1
    22     7     6    2
    23    28    21    1
    24    25    24    2
    25     6     8    1
    26    19    20    1
    27    21    20    2
    28    21    22    1
    29    24    22    2
    30    22    23    2
