@<TRIPOS>MOLECULE
4fl0_PLP_A_1.pdb
 16 16 0 0 0
SMALL
GASTEIGER

@<TRIPOS>ATOM
      1  N1        14.4800  -68.3110  200.4270 N.ar  501  PLP501     -0.2452
      2  C2        14.5920  -69.3750  199.6390 C.ar  501  PLP501      0.0979
      3  C2A       13.6280  -69.5900  198.5070 C.3   501  PLP501      0.0555
      4  C3        15.6430  -70.3020  199.8890 C.ar  501  PLP501      0.2073
      5  O3        15.8390  -71.3290  199.0960 O.3   501  PLP501     -0.2856
      6  C4        16.5440  -70.0480  200.9690 C.ar  501  PLP501      0.0506
      7  C4A       17.5240  -71.0150  201.3640 C.3   501  PLP501      0.2116
      8  O4A       17.1600  -72.1410  201.1520 O.3   501  PLP501     -0.2151
      9  C5        16.3050  -68.9160  201.7900 C.ar  501  PLP501      0.0286
     10  C6        15.2820  -68.0840  201.4400 C.ar  501  PLP501      0.0966
     11  C5A       17.1940  -68.6170  202.9860 C.3   501  PLP501      0.1816
     12  O4P       16.8990  -69.3360  204.1780 O.3   501  PLP501     -0.2653
     13  P         17.8210  -69.1510  205.4860 P.3   501  PLP501      0.5329
     14  O1P       18.9920  -70.1160  205.2070 O.2   501  PLP501     -0.2224
     15  O2P       16.8860  -69.4970  206.5780 O.3   501  PLP501     -0.1145
     16  O3P       18.1270  -67.6790  205.5470 O.3   501  PLP501     -0.1145
@<TRIPOS>BOND
     1     3     2    1
     2     5     4    1
     3     2     4   ar
     4     2     1   ar
     5     4     6   ar
     6     1    10   ar
     7     6     7    1
     8     6     9   ar
     9     8     7    1
    10    10     9   ar
    11     9    11    1
    12    11    12    1
    13    12    13    1
    14    14    13    2
    15    13    16    1
    16    13    15    1
