@<TRIPOS>MOLECULE
4fl1_ANP_A_1.pdb
 31 33 0 0 0
SMALL
GASTEIGER

@<TRIPOS>ATOM
      1  PG        -1.1030    6.8570    8.5530 P.3   701  ANP701      0.4884
      2  O1G       -1.1310    6.8560   10.1190 O.3   701  ANP701     -0.1240
      3  O2G       -1.3840    8.3120    8.0270 O.2   701  ANP701     -0.2331
      4  O3G       -2.2630    5.9090    8.0810 O.3   701  ANP701     -0.1240
      5  PB         1.7870    7.0150    8.4970 P.3   701  ANP701      0.4669
      6  O1B        2.6810    7.4380    7.3050 O.2   701  ANP701     -0.2351
      7  O2B        1.5010    8.2560    9.3810 O.3   701  ANP701     -0.1253
      8  N3B        0.3670    6.2880    7.9320 N.3   701  ANP701     -0.0163
      9  PA         2.4540    5.3990   10.8840 P.3   701  ANP701      0.2220
     10  O1A        3.7690    5.5720   11.6890 O.3   701  ANP701     -0.4370
     11  O2A        1.3240    6.1930   11.5910 O.2   701  ANP701     -0.5170
     12  O3A        2.6220    5.9510    9.3770 O.3   701  ANP701     -0.2360
     13  O5'        2.0270    3.8530   10.7630 O.3   701  ANP701     -0.3111
     14  C5'        0.6800    3.4680   10.4460 C.3   701  ANP701      0.1813
     15  C4'        0.1620    2.4370   11.4530 C.3   701  ANP701      0.1821
     16  O4'        1.0720    1.3140   11.5180 O.3   701  ANP701     -0.3135
     17  C3'        0.1100    2.9870   12.8950 C.3   701  ANP701      0.2184
     18  O3'       -1.0880    3.7270   13.1310 O.3   701  ANP701     -0.2174
     19  C2'        0.1700    1.6820   13.7250 C.3   701  ANP701      0.2570
     20  O2'       -1.1260    1.0610   13.7740 O.3   701  ANP701     -0.2130
     21  C1'        1.1560    0.8200   12.8810 C.3   701  ANP701      0.3186
     22  N9         2.5330    0.8730   13.4110 N.pl3 701  ANP701     -0.1439
     23  C8         3.5550    1.6970   13.0160 C.3   701  ANP701      0.3377
     24  N7         4.6280    1.4840   13.7450 N.2   701  ANP701     -0.2095
     25  C5         4.3470    0.5390   14.6850 C.2   701  ANP701      0.2526
     26  C6         5.0470   -0.0750   15.7570 C.2   701  ANP701      0.4393
     27  N6         6.3570    0.2410   16.0860 N.pl3 701  ANP701      0.2180
     28  N1         4.4040   -0.9860   16.5000 N.2   701  ANP701      0.0021
     29  C2         3.1410   -1.2910   16.2740 C.3   701  ANP701      0.5254
     30  N3         2.4530   -0.7660   15.2890 N.2   701  ANP701     -0.0055
     31  C4         3.0020    0.1580   14.4850 C.2   701  ANP701      0.3518
@<TRIPOS>BOND
     1     6     5    2
     2     8     5    1
     3     8     1    1
     4     3     1    2
     5     4     1    1
     6     5    12    1
     7     5     7    1
     8     1     2    1
     9    12     9    1
    10    14    13    1
    11    14    15    1
    12    13     9    1
    13     9    11    2
    14     9    10    1
    15    15    16    1
    16    15    17    1
    17    16    21    1
    18    21    22    1
    19    21    19    1
    20    17    18    1
    21    17    19    1
    22    23    22    1
    23    23    24    1
    24    22    31    1
    25    19    20    1
    26    24    25    2
    27    31    25    1
    28    31    30    2
    29    25    26    1
    30    30    29    1
    31    26    27    1
    32    26    28    2
    33    29    28    1
