@<TRIPOS>MOLECULE
4fl2_ANP_A_1.pdb
 31 33 0 0 0
SMALL
GASTEIGER

@<TRIPOS>ATOM
      1  PG       -33.4840   -9.4850   -6.1450 P.3   702  ANP702      0.4884
      2  O1G      -34.4030   -8.7140   -5.1250 O.3   702  ANP702     -0.1240
      3  O2G      -32.5110   -8.5120   -6.8710 O.3   702  ANP702     -0.1240
      4  O3G      -34.4000  -10.2010   -7.1930 O.2   702  ANP702     -0.2331
      5  PB       -30.9870  -10.5120   -5.1120 P.3   702  ANP702      0.4669
      6  O1B      -30.6780   -9.1670   -4.3930 O.2   702  ANP702     -0.2351
      7  O2B      -30.4980  -11.6940   -4.2790 O.3   702  ANP702     -0.1253
      8  N3B      -32.6410  -10.7180   -5.3230 N.3   702  ANP702     -0.0163
      9  PA       -29.0170   -9.5660   -7.1500 P.3   702  ANP702      0.2220
     10  O1A      -29.1090   -9.4860   -8.6960 O.2   702  ANP702     -0.5170
     11  O2A      -29.0000   -8.1690   -6.5000 O.3   702  ANP702     -0.4370
     12  O3A      -30.2120  -10.4620   -6.5250 O.3   702  ANP702     -0.2360
     13  O5'      -27.6120  -10.2570   -6.8360 O.3   702  ANP702     -0.3111
     14  C5'      -27.4340  -11.6640   -6.8960 C.3   702  ANP702      0.1813
     15  C4'      -26.0510  -11.9900   -6.3870 C.3   702  ANP702      0.1821
     16  O4'      -25.0710  -11.2060   -7.0940 O.3   702  ANP702     -0.3135
     17  C3'      -25.8990  -11.6020   -4.9050 C.3   702  ANP702      0.2184
     18  O3'      -26.4400  -12.6040   -4.0480 O.3   702  ANP702     -0.2174
     19  C2'      -24.3750  -11.5370   -4.7970 C.3   702  ANP702      0.2570
     20  O2'      -23.7870  -12.8500   -4.6990 O.3   702  ANP702     -0.2130
     21  C1'      -24.0030  -10.9050   -6.1620 C.3   702  ANP702      0.3186
     22  N9       -23.7700   -9.4520   -6.0660 N.pl3 702  ANP702     -0.1439
     23  C8       -24.6640   -8.4250   -6.2940 C.3   702  ANP702      0.3377
     24  N7       -24.0660   -7.2810   -6.1400 N.2   702  ANP702     -0.2095
     25  C5       -22.7690   -7.4960   -5.7930 C.2   702  ANP702      0.2526
     26  C6       -21.6560   -6.6890   -5.4540 C.2   702  ANP702      0.4393
     27  N6       -21.6910   -5.2950   -5.4870 N.pl3 702  ANP702      0.2180
     28  N1       -20.5250   -7.3020   -5.0970 N.2   702  ANP702      0.0021
     29  C2       -20.3840   -8.6060   -5.0770 C.3   702  ANP702      0.5254
     30  N3       -21.3890   -9.3890   -5.3800 N.2   702  ANP702     -0.0055
     31  C4       -22.5790   -8.8910   -5.7280 C.2   702  ANP702      0.3518
@<TRIPOS>BOND
     1    10     9    2
     2     4     1    2
     3     9    13    1
     4     9    12    1
     5     9    11    1
     6    16    15    1
     7    16    21    1
     8    14    13    1
     9    14    15    1
    10     3     1    1
    11    12     5    1
    12    15    17    1
    13    23    24    1
    14    23    22    1
    15    21    22    1
    16    21    19    1
    17     1     8    1
    18     1     2    1
    19    24    25    2
    20    22    31    1
    21    25    31    1
    22    25    26    1
    23    31    30    2
    24    27    26    1
    25    26    28    2
    26    30    29    1
    27     8     5    1
    28     5     6    2
    29     5     7    1
    30    28    29    1
    31    17    19    1
    32    17    18    1
    33    19    20    1
