@<TRIPOS>MOLECULE
4fl3_ANP_A_1.pdb
 31 33 0 0 0
SMALL
GASTEIGER

@<TRIPOS>ATOM
      1  PG        -1.9130   -9.5100   -6.2300 P.3   701  ANP701      0.4884
      2  O1G       -2.6750   -8.6880   -5.1500 O.3   701  ANP701     -0.1240
      3  O2G       -1.0120   -8.6190   -7.1350 O.3   701  ANP701     -0.1240
      4  O3G       -3.0110  -10.1590   -7.1360 O.2   701  ANP701     -0.2331
      5  PB         0.5790  -10.7010   -5.2750 P.3   701  ANP701      0.4669
      6  O1B        0.8710   -9.4650   -4.3960 O.3   701  ANP701     -0.1253
      7  O2B        1.0160  -12.0060   -4.5860 O.2   701  ANP701     -0.2351
      8  N3B       -1.0880  -10.8230   -5.5220 N.3   701  ANP701     -0.0163
      9  PA         2.4940   -9.5860   -7.3070 P.3   701  ANP701      0.2220
     10  O1A        2.3910   -9.5540   -8.8380 O.2   701  ANP701     -0.5170
     11  O2A        2.4140   -8.1950   -6.6590 O.3   701  ANP701     -0.4370
     12  O3A        1.3420  -10.5550   -6.6920 O.3   701  ANP701     -0.2360
     13  O5'        3.9060  -10.2470   -6.9480 O.3   701  ANP701     -0.3111
     14  C5'        4.0750  -11.6670   -7.0530 C.3   701  ANP701      0.1813
     15  C4'        5.4470  -12.0360   -6.4950 C.3   701  ANP701      0.1821
     16  O4'        6.4480  -11.2000   -7.1190 O.3   701  ANP701     -0.3135
     17  C3'        5.5350  -11.7280   -4.9810 C.3   701  ANP701      0.2184
     18  O3'        5.0070  -12.8240   -4.2330 O.3   701  ANP701     -0.2174
     19  C2'        7.0590  -11.5910   -4.7910 C.3   701  ANP701      0.2570
     20  O2'        7.7080  -12.8830   -4.7210 O.3   701  ANP701     -0.2130
     21  C1'        7.4340  -10.8910   -6.1200 C.3   701  ANP701      0.3186
     22  N9         7.6370   -9.4490   -5.9880 N.pl3 701  ANP701     -0.1439
     23  C8         6.7500   -8.4240   -6.2030 C.3   701  ANP701      0.3377
     24  N7         7.3650   -7.2900   -6.0440 N.2   701  ANP701     -0.2095
     25  C5         8.6610   -7.5270   -5.6890 C.2   701  ANP701      0.2526
     26  C6         9.7810   -6.7400   -5.3580 C.2   701  ANP701      0.4393
     27  N6         9.7290   -5.3560   -5.3570 N.pl3 701  ANP701      0.2180
     28  N1        10.9250   -7.3630   -5.0570 N.2   701  ANP701      0.0021
     29  C2        11.0420   -8.6850   -5.0380 C.3   701  ANP701      0.5254
     30  N3        10.0260   -9.4660   -5.3380 N.2   701  ANP701     -0.0055
     31  C4         8.8410   -8.9220   -5.6580 C.2   701  ANP701      0.3518
@<TRIPOS>BOND
     1    10     9    2
     2     9    13    1
     3     9    12    1
     4     9    11    1
     5     4     1    2
     6     3     1    1
     7    16    15    1
     8    16    21    1
     9    14    13    1
    10    14    15    1
    11    12     5    1
    12    15    17    1
    13     1     8    1
    14     1     2    1
    15    23    24    1
    16    23    22    1
    17    21    22    1
    18    21    19    1
    19    24    25    2
    20    22    31    1
    21    25    31    1
    22    25    26    1
    23    31    30    2
    24     8     5    1
    25    26    27    1
    26    26    28    2
    27    30    29    1
    28     5     7    2
    29     5     6    1
    30    28    29    1
    31    17    19    1
    32    17    18    1
    33    19    20    1
