@<TRIPOS>MOLECULE
4fl6_UWN_A_1.pdb
 39 44 0 0 0
SMALL
GASTEIGER

@<TRIPOS>ATOM
      1  N3        34.6920   -9.3260   53.7740 N.pl3 1001  UWN1001    -0.2123
      2  N4        35.9600  -13.9270   50.8170 N.am  1001  UWN1001    -0.2760
      3  N2        32.0420   -7.8880   52.7820 N.am  1001  UWN1001    -0.2760
      4  N1        27.9510   -8.0520   51.7170 N.3   1001  UWN1001    -0.2738
      5  OAA       34.1830  -14.4290   52.1090 O.2   1001  UWN1001    -0.2699
      6  OAB       33.4300   -7.5370   51.0150 O.2   1001  UWN1001    -0.2699
      7  CAE       36.9110   -9.7170   56.6820 C.ar  1001  UWN1001     0.0013
      8  CAF       34.6380  -10.9190   55.6430 C.ar  1001  UWN1001     0.0165
      9  CAG       36.3590   -9.2240   55.4850 C.ar  1001  UWN1001     0.0165
     10  CAH       33.4340  -11.7500   50.6250 C.ar  1001  UWN1001     0.0047
     11  CAI       32.9480  -10.4430   50.7490 C.ar  1001  UWN1001     0.0060
     12  CAJ       34.7870  -11.4580   52.6010 C.ar  1001  UWN1001     0.0212
     13  CAM       26.5510   -8.4580   49.9810 C.3   1001  UWN1001     0.0188
     14  CAN       26.3490   -7.0010   50.2650 C.3   1001  UWN1001     0.0188
     15  CAQ       30.0070   -9.1490   52.7760 C.3   1001  UWN1001     0.0375
     16  CAR       30.1410   -6.6160   51.9140 C.3   1001  UWN1001     0.0375
     17  CAU       27.9900   -8.6470   50.3880 C.3   1001  UWN1001     0.0721
     18  CAV       27.1350   -6.8230   51.5640 C.3   1001  UWN1001     0.0721
     19  CAX       36.8270  -12.9350   50.0780 C.3   1001  UWN1001     0.0951
     20  CAY       31.2460   -8.8280   53.6020 C.3   1001  UWN1001     0.0951
     21  CAZ       31.4640   -6.5260   52.6880 C.3   1001  UWN1001     0.0951
     22  CBB       34.8100  -13.5850   51.4630 C.2   1001  UWN1001     0.2491
     23  CBC       32.9360   -8.3100   51.8420 C.2   1001  UWN1001     0.2503
     24  CBD       35.2150   -9.8290   54.9330 C.ar  1001  UWN1001     0.0705
     25  CBE       34.3680  -12.2550   51.5360 C.ar  1001  UWN1001     0.0549
     26  CBF       34.3180  -10.1410   52.7500 C.ar  1001  UWN1001     0.0750
     27  CBG       33.3870   -9.6370   51.8090 C.ar  1001  UWN1001     0.0688
     28  CBI       29.2540   -7.8400   52.3980 C.3   1001  UWN1001     0.0609
     29  C1        36.3420  -10.8110   57.3540 C.ar  1001  UWN1001     0.0001
     30  C2        35.2030  -11.4230   56.8270 C.ar  1001  UWN1001     0.0013
     31  C3        36.3760  -15.3730   50.8000 C.3   1001  UWN1001     0.0951
     32  C4        36.5390  -15.8090   49.3510 C.3   1001  UWN1001     0.0375
     33  C5        37.1430  -13.4180   48.6560 C.3   1001  UWN1001     0.0375
     34  C6        37.5960  -14.8960   48.6590 C.3   1001  UWN1001     0.0609
     35  C8        38.3090  -16.7420   47.2340 C.3   1001  UWN1001     0.0721
     36  C9        38.8710  -16.8110   45.8340 C.3   1001  UWN1001     0.0188
     37  C10       39.7080  -15.5650   45.7740 C.3   1001  UWN1001     0.0188
     38  C7        39.0780  -14.6250   46.7830 C.3   1001  UWN1001     0.0721
     39  N5        37.8970  -15.3310   47.2990 N.3   1001  UWN1001    -0.2738
@<TRIPOS>BOND
     1    37    36    1
     2    37    38    1
     3    36    35    1
     4    38    39    1
     5    35    39    1
     6    39    34    1
     7    33    34    1
     8    33    19    1
     9    34    32    1
    10    32    31    1
    11    13    14    1
    12    13    17    1
    13    19     2    1
    14    14    18    1
    15    17     4    1
    16    10    11   ar
    17    10    25   ar
    18    11    27   ar
    19    31     2    1
    20     2    22   am
    21     6    23    2
    22    22    25    1
    23    22     5    2
    24    25    12   ar
    25    18     4    1
    26     4    28    1
    27    27    23    1
    28    27    26   ar
    29    23     3   am
    30    16    28    1
    31    16    21    1
    32    28    15    1
    33    12    26   ar
    34    21     3    1
    35    26     1    1
    36    15    20    1
    37     3    20    1
    38     1    24    1
    39    24     9   ar
    40    24     8   ar
    41     9     7   ar
    42     8    30   ar
    43     7    29   ar
    44    30    29   ar
