@<TRIPOS>MOLECULE
4fl7_BHO_A_1.pdb
 10 10 0 0 0
SMALL
GASTEIGER

@<TRIPOS>ATOM
      1  C1        -5.6810    2.4480   15.8620 C.ar  304  BHO304      0.0227
      2  C2        -5.0170    3.2010   14.8390 C.ar  304  BHO304      0.0019
      3  C3        -5.0660    4.6050   14.8380 C.ar  304  BHO304      0.0001
      4  C4        -5.7730    5.2800   15.8490 C.ar  304  BHO304      0.0000
      5  C5        -6.4330    4.5750   16.8630 C.ar  304  BHO304      0.0001
      6  C6        -6.3910    3.1740   16.8750 C.ar  304  BHO304      0.0019
      7  C         -5.6510    0.9480   15.8760 C.2   304  BHO304      0.1101
      8  O1        -6.6010    0.3020   16.3000 O.2   304  BHO304     -0.5359
      9  N         -4.5690    0.3300   15.3970 N.am  304  BHO304     -0.1984
     10  O2        -4.6350   -1.0640   15.2500 O.3   304  BHO304     -0.4024
@<TRIPOS>BOND
     1     3     2   ar
     2     3     4   ar
     3     2     1   ar
     4    10     9    1
     5     9     7   am
     6     4     5   ar
     7     1     7    1
     8     1     6   ar
     9     7     8    2
    10     5     6   ar
