@<TRIPOS>MOLECULE
4flf_XXH_A_1.pdb
 11 11 0 0 0
SMALL
GASTEIGER

@<TRIPOS>ATOM
      1  O3       -76.6190   -4.5450   18.0010 O.2   307  XXH307     -0.2831
      2  C4       -74.8580   -4.3030   19.4400 C.ar  307  XXH307      0.0423
      3  C5       -75.5850   -5.0620   18.4000 C.2   307  XXH307      0.2342
      4  C6       -75.4640   -3.1200   19.8990 C.ar  307  XXH307      0.0050
      5  N1       -73.0410   -1.8510   22.3330 N.pl3 307  XXH307      0.0577
      6  C7       -74.8650   -2.3240   20.8710 C.ar  307  XXH307      0.0242
      7  C3       -73.6150   -4.6950   19.9660 C.ar  307  XXH307      0.0050
      8  C2       -73.0170   -3.8610   20.9430 C.ar  307  XXH307      0.0242
      9  C1       -73.6450   -2.6740   21.3750 C.ar  307  XXH307      0.1429
     10  O1       -71.9360   -2.2660   22.6810 O.2   307  XXH307     -0.1261
     11  O2       -73.5020   -0.7320   22.7850 O.2   307  XXH307     -0.1261
@<TRIPOS>BOND
     1     1     3    2
     2     3     2    1
     3     2     4   ar
     4     2     7   ar
     5     4     6   ar
     6     7     8   ar
     7     6     9   ar
     8     8     9   ar
     9     9     5    1
    10     5    10    2
    11     5    11    2
