@<TRIPOS>MOLECULE
4flg_III_C_1.pdb
 27 26 0 0 0
SMALL
GASTEIGER

@<TRIPOS>ATOM
      1  N         20.2060   29.8010   16.6360 N.3   260  ASP260     -0.1231
      2  CA        20.0720   28.5550   17.3940 C.3   260  ASP260      0.1694
      3  C         18.8880   27.7250   16.8960 C.2   260  ASP260      0.2592
      4  O         17.8240   28.2600   16.6050 O.2   260  ASP260     -0.2718
      5  CB        19.8560   28.7780   18.8750 C.3   260  ASP260      0.0304
      6  N         19.1430   26.4290   16.8710 N.am  261  GLN261     -0.1966
      7  CA        18.2250   25.3980   16.4410 C.3   261  GLN261      0.1728
      8  C         17.6870   24.5670   17.6090 C.2   261  GLN261      0.2616
      9  O         18.5010   23.9160   18.2710 O.2   261  GLN261     -0.2715
     10  CB        18.9220   24.4390   15.4730 C.3   261  GLN261      0.0334
     11  N         16.3780   24.6170   17.7900 N.am  262  ILE262     -0.1963
     12  CA        15.6860   23.7270   18.7280 C.3   262  ILE262      0.1727
     13  C         14.7480   22.8420   17.9510 C.2   262  ILE262      0.2617
     14  O         13.6870   23.2640   17.4980 O.2   262  ILE262     -0.2715
     15  CB        14.9330   24.5440   19.7800 C.3   262  ILE262      0.0290
     16  CG1       15.7650   25.7330   20.2680 C.3   262  ILE262      0.0022
     17  CG2       14.4810   23.6660   20.9380 C.3   262  ILE262      0.0023
     18  CD1       17.0000   25.2790   21.0500 C.3   262  ILE262      0.0001
     19  N         15.1710   21.5700   17.7870 N.am  263  ILE263     -0.1942
     20  CA        14.2120   20.7130   17.0770 C.3   263  ILE263      0.1977
     21  C         14.1670   19.3380   17.7320 C.2   263  ILE263      0.3842
     22  O         13.4940   18.4160   17.2770 O.co2 263  ILE263     -0.2437
     23  CB        14.4830   20.5600   15.5730 C.3   263  ILE263      0.0311
     24  CG1       15.9550   20.4590   15.1980 C.3   263  ILE263      0.0023
     25  CG2       13.7920   21.6980   14.8330 C.3   263  ILE263      0.0023
     26  CD1       16.5140   21.7020   14.5250 C.3   263  ILE263      0.0001
     27  OXT       14.9320   19.1230   18.7070 O.co2 263  ILE263     -0.2437
@<TRIPOS>BOND
     1    26    24    1
     2    25    23    1
     3    24    23    1
     4    10     7    1
     5    23    20    1
     6     7     6    1
     7     7     8    1
     8     4     3    2
     9     1     2    1
    10     6     3   am
    11     3     2    1
    12    20    21    1
    13    20    19    1
    14    22    21   ar
    15     2     5    1
    16    14    13    2
    17     8    11   am
    18     8     9    2
    19    21    27   ar
    20    19    13   am
    21    11    12    1
    22    13    12    1
    23    12    15    1
    24    15    16    1
    25    15    17    1
    26    16    18    1
