@<TRIPOS>MOLECULE
4flh_14K_A_1.pdb
 36 39 0 0 0
SMALL
GASTEIGER

@<TRIPOS>ATOM
      1  C15       29.3230   11.2700   20.8310 C.3   1205  14K1205     0.2543
      2  O14       28.4600   12.0220   19.9620 O.3   1205  14K1205    -0.4546
      3  C11       27.2920   12.4610   20.5450 C.ar  1205  14K1205     0.2534
      4  C12       26.3370   13.1070   19.7630 C.ar  1205  14K1205     0.1943
      5  C13       25.1490   13.5520   20.3260 C.ar  1205  14K1205     0.0526
      6  F16       26.5480   13.2850   18.4510 F     1205  14K1205    -0.1992
      7  N10       27.0470   12.2860   21.8560 N.ar  1205  14K1205    -0.2068
      8  C9        25.9270   12.7040   22.4200 C.ar  1205  14K1205     0.1187
      9  C8        24.9390   13.3580   21.6850 C.ar  1205  14K1205     0.0937
     10  N7        23.8090   13.7500   22.2890 N.pl3 1205  14K1205    -0.1919
     11  C2        23.2930   14.9900   22.2100 C.ar  1205  14K1205     0.1631
     12  N1        23.9600   15.9410   21.5340 N.ar  1205  14K1205    -0.2269
     13  C6        23.5160   17.1780   21.3970 C.ar  1205  14K1205     0.0974
     14  C5        22.3040   17.5440   21.9790 C.ar  1205  14K1205     0.0122
     15  C25       21.7690   18.9850   21.8440 C.3   1205  14K1205     0.0817
     16  C36       22.9330   20.0040   21.9350 C.3   1205  14K1205     0.0223
     17  N26       21.0380   19.0270   20.5690 N.3   1205  14K1205    -0.2678
     18  C31       21.3800   20.1550   19.7050 C.3   1205  14K1205     0.0917
     19  C30       20.6410   19.9720   18.3830 C.3   1205  14K1205     0.1128
     20  C27       19.5990   19.0830   20.8410 C.3   1205  14K1205     0.0917
     21  C28       18.8600   18.8380   19.5200 C.3   1205  14K1205     0.1128
     22  N29       19.1870   19.9350   18.6080 N.3   1205  14K1205    -0.1565
     23  S32       18.4330   19.7660   17.1550 S.O2  1205  14K1205     0.0457
     24  C33       17.6330   21.3090   16.7730 C.3   1205  14K1205     0.1960
     25  O35       17.4040   18.6670   17.1450 O.2   1205  14K1205    -0.1572
     26  O34       19.4760   19.4610   16.1270 O.2   1205  14K1205    -0.1572
     27  C4        21.5670   16.5970   22.6890 C.ar  1205  14K1205     0.0136
     28  C3        22.0560   15.3030   22.8060 C.ar  1205  14K1205     0.1202
     29  C17       21.3250   14.3700   23.5440 C.1   1205  14K1205     0.1642
     30  N22       20.0290   14.5640   23.8490 N.2   1205  14K1205    -0.2576
     31  N18       21.9460   13.2720   24.0150 N.2   1205  14K1205    -0.2775
     32  C19       21.2810   12.3600   24.7390 C.1   1205  14K1205     0.1395
     33  C23       22.0130   11.1260   25.2360 C.3   1205  14K1205     0.1448
     34  N20       19.9870   12.5350   25.0200 N.2   1205  14K1205    -0.2621
     35  C21       19.3640   13.6490   24.5810 C.1   1205  14K1205     0.2608
     36  N24       18.0790   13.8280   24.8560 N.pl3 1205  14K1205    -0.0220
@<TRIPOS>BOND
     1    26    23    2
     2    24    23    1
     3    25    23    2
     4    23    22    1
     5    19    22    1
     6    19    18    1
     7     6     4    1
     8    22    21    1
     9    21    20    1
    10    18    17    1
    11     4     5   ar
    12     4     3   ar
    13     2     3    1
    14     2     1    1
    15     5     9   ar
    16     3     7   ar
    17    17    20    1
    18    17    15    1
    19    13    12   ar
    20    13    14   ar
    21    12    11   ar
    22     9    10    1
    23     9     8   ar
    24    15    16    1
    25    15    14    1
    26     7     8   ar
    27    14    27   ar
    28    11    10    1
    29    11    28   ar
    30    27    28   ar
    31    28    29    1
    32    29    30    2
    33    29    31    2
    34    30    35    2
    35    31    32    2
    36    35    36    1
    37    35    34    2
    38    32    34    2
    39    32    33    1
