@<TRIPOS>MOLECULE
4fli_Y16_A_1.pdb
 22 21 0 0 0
SMALL
GASTEIGER

@<TRIPOS>ATOM
      1  N1        19.5560   -2.1360   15.0020 N.am  503  Y16503     -0.1933
      2  O1        23.8250   -2.9170    9.5530 O.3   503  Y16503     -0.2203
      3  N2        17.8540   -3.6420   17.9290 N.am  503  Y16503     -0.0862
      4  O2        22.3470   -1.8780   13.2130 O.3   503  Y16503     -0.2171
      5  O3        22.1320   -1.3580   10.7340 O.3   503  Y16503     -0.2176
      6  O4        19.7890   -4.3070   14.4190 O.2   503  Y16503     -0.2706
      7  O5        17.0240   -3.0060   15.9090 O.2   503  Y16503     -0.2697
      8  O6        19.3190   -3.1970   11.7680 O.3   503  Y16503     -0.3419
      9  C01       23.4920   -7.1810   11.6900 C.3   503  Y16503      0.0001
     10  C02       23.5670   -5.6810   11.5800 C.3   503  Y16503      0.0027
     11  C03       23.0360   -4.9320   10.6070 C.3   503  Y16503      0.0356
     12  C04       23.3280   -3.4820   10.8170 C.3   503  Y16503      0.1848
     13  C05       22.0130   -2.7500   11.1120 C.3   503  Y16503      0.2151
     14  C06       21.6050   -2.8650   12.5840 C.3   503  Y16503      0.2205
     15  C07       20.1250   -2.6420   12.8360 C.3   503  Y16503      0.2256
     16  C08       22.6640   -7.8080   10.6140 C.3   503  Y16503      0.0000
     17  C09       22.8030   -7.4160   13.0820 C.3   503  Y16503      0.0000
     18  C10       24.9000   -7.7410   11.7480 C.3   503  Y16503      0.0000
     19  C11       19.8350   -3.1600   14.2300 C.2   503  Y16503      0.2717
     20  C12       19.3380   -2.6110   16.3540 C.3   503  Y16503      0.2031
     21  C13       17.9660   -3.0950   16.6600 C.2   503  Y16503      0.2828
     22  C14       18.0320   -2.5920   11.6560 C.3   503  Y16503      0.1748
@<TRIPOS>BOND
     1     2    12    1
     2    11    12    1
     3    11    10    1
     4    16     9    1
     5     5    13    1
     6    12    13    1
     7    13    14    1
     8    10     9    1
     9    22     8    1
    10     9    18    1
    11     9    17    1
    12     8    15    1
    13    14    15    1
    14    14     4    1
    15    15    19    1
    16    19     6    2
    17    19     1   am
    18     1    20    1
    19     7    21    2
    20    20    21    1
    21    21     3   am
