@<TRIPOS>MOLECULE
4flj_Y08_A_1.pdb
 30 31 0 0 0
SMALL
GASTEIGER

@<TRIPOS>ATOM
      1  N1        19.4740   -2.4700   14.9510 N.am  503  Y08503     -0.2033
      2  O1        24.0250   -2.8390    9.7130 O.3   503  Y08503     -0.2155
      3  N2        20.4650   -4.9930   19.0360 N.am  503  Y08503     -0.2795
      4  O2        22.3010   -1.9040   13.2660 O.3   503  Y08503     -0.2171
      5  O3        22.1600   -1.2610   10.7770 O.3   503  Y08503     -0.2172
      6  O4        19.3710   -4.4770   13.8670 O.2   503  Y08503     -0.2706
      7  O5        20.9290   -3.3250   20.4410 O.2   503  Y08503     -0.2749
      8  O6        19.3990   -3.0180   11.4410 O.3   503  Y08503     -0.3419
      9  C01       23.6340   -7.1610   11.7490 C.3   503  Y08503      0.0184
     10  C02       23.7430   -5.6660   11.6400 C.2   503  Y08503     -0.0288
     11  C03       23.1570   -4.9100   10.7460 C.2   503  Y08503      0.0042
     12  C04       23.3890   -3.3960   10.8610 C.3   503  Y08503      0.2065
     13  C05       22.0400   -2.6760   11.0750 C.3   503  Y08503      0.2193
     14  C06       21.4930   -2.8320   12.5010 C.3   503  Y08503      0.2208
     15  C07       19.9910   -2.5100   12.6180 C.3   503  Y08503      0.2256
     16  C08       22.7950   -7.8340   10.6370 C.3   503  Y08503      0.0043
     17  C09       22.9910   -7.4550   13.0870 C.3   503  Y08503      0.0043
     18  C10       25.0510   -7.6840   11.6870 C.3   503  Y08503      0.0043
     19  C11       19.5700   -3.2460   13.8480 C.2   503  Y08503      0.2712
     20  C12       18.9480   -3.0440   16.2190 C.3   503  Y08503      0.1169
     21  C13       20.0460   -3.6950   17.0420 C.3   503  Y08503      0.0416
     22  C14       20.5770   -4.9630   16.3020 C.3   503  Y08503      0.0052
     23  C15       21.4610   -5.9860   17.0830 C.3   503  Y08503      0.0216
     24  C16       20.7580   -6.3070   18.4030 C.3   503  Y08503      0.0934
     25  C17       19.4290   -4.1580   18.3630 C.3   503  Y08503      0.0951
     26  C18       21.0370   -4.5180   20.1790 C.2   503  Y08503      0.2251
     27  C19       21.6800   -5.4510   21.1990 C.3   503  Y08503      0.0767
     28  C20       23.1070   -5.8990   20.8720 C.3   503  Y08503      0.0096
     29  C21       22.8830   -4.7670   21.8770 C.3   503  Y08503      0.0096
     30  C22       18.0430   -2.5000   11.3010 C.3   503  Y08503      0.1748
@<TRIPOS>BOND
     1     2    12    1
     2    16     9    1
     3    11    12    1
     4    11    10    2
     5     5    13    1
     6    12    13    1
     7    13    14    1
     8    30     8    1
     9     8    15    1
    10    10     9    1
    11    18     9    1
    12     9    17    1
    13    14    15    1
    14    14     4    1
    15    15    19    1
    16    19     6    2
    17    19     1   am
    18     1    20    1
    19    20    21    1
    20    22    21    1
    21    22    23    1
    22    21    25    1
    23    23    24    1
    24    25     3    1
    25    24     3    1
    26     3    26   am
    27    26     7    2
    28    26    27    1
    29    28    27    1
    30    28    29    1
    31    27    29    1
