@<TRIPOS>MOLECULE
4flk_Y10_A_1.pdb
 27 28 0 0 0
SMALL
GASTEIGER

@<TRIPOS>ATOM
      1  N         19.3390   -2.3730   14.8580 N.am  503  Y10503     -0.2044
      2  O1        23.7840   -2.8610    9.5630 O.3   503  Y10503     -0.2203
      3  O2        22.2010   -1.9350   13.1320 O.3   503  Y10503     -0.2171
      4  O3        22.0970   -1.2120   10.8050 O.3   503  Y10503     -0.2176
      5  O4        19.4150   -4.4060   13.9960 O.2   503  Y10503     -0.2706
      6  O5        19.2310   -3.0540   11.5120 O.3   503  Y10503     -0.3419
      7  C01       23.4220   -7.1650   11.8200 C.3   503  Y10503      0.0001
      8  C02       23.5130   -5.6400   11.6880 C.3   503  Y10503      0.0027
      9  C03       22.9490   -4.9300   10.6670 C.3   503  Y10503      0.0356
     10  C04       23.2020   -3.4100   10.7960 C.3   503  Y10503      0.1848
     11  C05       21.9010   -2.6330   11.0660 C.3   503  Y10503      0.2151
     12  C06       21.3960   -2.8230   12.5030 C.3   503  Y10503      0.2205
     13  C07       19.9200   -2.5230   12.6280 C.3   503  Y10503      0.2255
     14  C08       22.6650   -7.7820   10.6130 C.3   503  Y10503      0.0000
     15  C09       24.8260   -7.6630   11.7970 C.3   503  Y10503      0.0000
     16  C10       22.6600   -7.3860   13.1490 C.3   503  Y10503      0.0000
     17  C11       19.5400   -3.2260   13.8780 C.2   503  Y10503      0.2712
     18  C12       18.9820   -2.9640   16.2000 C.3   503  Y10503      0.1040
     19  C13       19.2210   -2.0240   17.3980 C.3   503  Y10503      0.0480
     20  C14       19.8450   -2.9940   18.4350 C.ar  503  Y10503     -0.0243
     21  C15       20.0840   -4.2720   17.9240 C.ar  503  Y10503     -0.0243
     22  C16       19.6810   -4.2830   16.4680 C.3   503  Y10503      0.0480
     23  C17       20.1980   -2.7620   19.7900 C.ar  503  Y10503     -0.0045
     24  C18       20.7850   -3.7840   20.5710 C.ar  503  Y10503     -0.0003
     25  C19       21.0470   -5.0490   20.0160 C.ar  503  Y10503     -0.0003
     26  C20       20.7130   -5.3300   18.6660 C.ar  503  Y10503     -0.0045
     27  C21       17.9100   -2.5280   11.3690 C.3   503  Y10503      0.1748
@<TRIPOS>BOND
     1     2    10    1
     2    14     7    1
     3     9    10    1
     4     9     8    1
     5    10    11    1
     6     4    11    1
     7    11    12    1
     8    27     6    1
     9     6    13    1
    10     8     7    1
    11    15     7    1
    12     7    16    1
    13    12    13    1
    14    12     3    1
    15    13    17    1
    16    17     5    2
    17    17     1   am
    18     1    18    1
    19    18    22    1
    20    18    19    1
    21    22    21    1
    22    19    20    1
    23    21    20   ar
    24    21    26   ar
    25    20    23   ar
    26    26    25   ar
    27    23    24   ar
    28    25    24   ar
