@<TRIPOS>MOLECULE
4fll_YZ6_A_1.pdb
 32 33 0 0 0
SMALL
GASTEIGER

@<TRIPOS>ATOM
      1  O4        19.3590   -4.4830   13.9850 O.2   503  YZ6503     -0.2706
      2  C11       19.5230   -3.2890   13.9690 C.2   503  YZ6503      0.2712
      3  C07       20.0190   -2.6730   12.6700 C.3   503  YZ6503      0.2256
      4  O6        19.2910   -3.0940   11.4870 O.3   503  YZ6503     -0.3419
      5  C25       17.9790   -2.5390   11.4070 C.3   503  YZ6503      0.1748
      6  C06       21.5150   -2.9290   12.4910 C.3   503  YZ6503      0.2208
      7  O2        22.1720   -1.9800   13.2320 O.3   503  YZ6503     -0.2171
      8  C05       21.9500   -2.7520   11.0430 C.3   503  YZ6503      0.2193
      9  O3        22.1150   -1.3490   10.7740 O.3   503  YZ6503     -0.2172
     10  C04       23.2850   -3.4780   10.8660 C.3   503  YZ6503      0.2065
     11  O1        23.8480   -2.9740    9.6060 O.3   503  YZ6503     -0.2155
     12  C03       23.0550   -4.9620   10.6620 C.2   503  YZ6503      0.0042
     13  C02       23.5290   -5.7570   11.6530 C.2   503  YZ6503     -0.0288
     14  C01       23.4360   -7.2610   11.7690 C.3   503  YZ6503      0.0184
     15  C10       22.7930   -7.4720   13.1170 C.3   503  YZ6503      0.0043
     16  C09       22.6820   -7.8660   10.6300 C.3   503  YZ6503      0.0043
     17  C08       24.8860   -7.7440   11.8020 C.3   503  YZ6503      0.0043
     18  N         19.1770   -2.3790   14.9100 N.am  503  YZ6503     -0.2033
     19  C12       18.6980   -3.0320   16.1460 C.3   503  YZ6503      0.1160
     20  C13       19.4750   -2.4030   17.2750 C.3   503  YZ6503      0.0353
     21  C14       19.1680   -2.8690   18.7490 C.3   503  YZ6503      0.0814
     22  C16       19.9560   -2.0870   19.8530 C.ar  503  YZ6503      0.1267
     23  C19       19.9530   -0.6720   20.0570 C.ar  503  YZ6503      0.0365
     24  C18       20.7850   -0.3450   21.1920 C.ar  503  YZ6503      0.0434
     25  C17       21.2560   -1.6400   21.6020 C.ar  503  YZ6503      0.1791
     26  O5        20.6950   -2.6640   20.7470 O.2   503  YZ6503     -0.4544
     27  C15       17.7230   -3.2010   19.1310 C.ar  503  YZ6503     -0.0153
     28  C24       17.5220   -4.0360   20.2900 C.ar  503  YZ6503     -0.0039
     29  C23       16.2450   -4.4120   20.7800 C.ar  503  YZ6503     -0.0003
     30  C22       15.0920   -3.9570   20.1070 C.ar  503  YZ6503     -0.0000
     31  C21       15.2520   -3.1340   18.9620 C.ar  503  YZ6503     -0.0003
     32  C20       16.5390   -2.7530   18.4870 C.ar  503  YZ6503     -0.0039
@<TRIPOS>BOND
     1    11    10    1
     2    16    14    1
     3    12    10    1
     4    12    13    2
     5     9     8    1
     6    10     8    1
     7     8     6    1
     8     5     4    1
     9     4     3    1
    10    13    14    1
    11    14    17    1
    12    14    15    1
    13     6     3    1
    14     6     7    1
    15     3     2    1
    16     2     1    2
    17     2    18   am
    18    18    19    1
    19    19    20    1
    20    20    21    1
    21    32    31   ar
    22    32    27   ar
    23    21    27    1
    24    21    22    1
    25    31    30   ar
    26    27    28   ar
    27    22    23   ar
    28    22    26   ar
    29    23    24   ar
    30    30    29   ar
    31    28    29   ar
    32    26    25   ar
    33    24    25   ar
