@<TRIPOS>MOLECULE
4fln_III_D_1.pdb
 29 30 0 0 0
SMALL
GASTEIGER

@<TRIPOS>ATOM
      1  N          5.0520   40.5870    6.9570 N.3   114  UNK114     -0.1231
      2  CA         5.0210   41.9340    6.3940 C.3   114  UNK114      0.1694
      3  C          5.6990   42.9550    7.3230 C.2   114  UNK114      0.2592
      4  O          5.2220   43.2030    8.4310 O.2   114  UNK114     -0.2718
      5  CB         3.5630   42.3530    6.0520 C.3   114  UNK114      0.0304
      6  N          6.8070   43.5410    6.8590 N.am  115  UNK115     -0.1966
      7  CA         7.6050   44.4840    7.6550 C.3   115  UNK115      0.1728
      8  C          7.5610   45.9340    7.1460 C.2   115  UNK115      0.2616
      9  O          7.5830   46.1770    5.9430 O.2   115  UNK115     -0.2715
     10  CB         9.0690   44.0020    7.7370 C.3   115  UNK115      0.0334
     11  N          7.5090   46.8970    8.0640 N.am  116  TRP116     -0.1960
     12  CA         7.6830   48.3060    7.7020 C.3   116  TRP116      0.1768
     13  C          9.1790   48.6160    7.5820 C.2   116  TRP116      0.2619
     14  O          9.9680   48.2310    8.4490 O.2   116  TRP116     -0.2715
     15  CB         7.0520   49.2400    8.7470 C.3   116  TRP116      0.0553
     16  CG         5.5310   49.2490    8.8180 C.2   116  TRP116     -0.0136
     17  CD1        4.7520   48.5630    9.7040 C.2   116  TRP116      0.0907
     18  CD2        4.6230   50.0100    7.9970 C.3   116  TRP116      0.0819
     19  NE1        3.4200   48.8320    9.4770 N.2   116  TRP116     -0.2482
     20  CE2        3.3140   49.7150    8.4360 C.2   116  TRP116      0.0665
     21  CE3        4.7910   50.8990    6.9300 C.2   116  TRP116     -0.0164
     22  CZ2        2.1810   50.2740    7.8470 C.2   116  TRP116      0.0153
     23  CZ3        3.6630   51.4520    6.3420 C.2   116  TRP116     -0.0038
     24  CH2        2.3750   51.1380    6.8030 C.2   116  TRP116      0.0009
     25  N          9.5690   49.3130    6.5150 N.am  117  UNK117     -0.1977
     26  CA        10.9820   49.6360    6.2860 C.3   117  UNK117      0.1597
     27  C         11.2170   51.1130    5.9650 C.2   117  UNK117      0.2287
     28  O         10.2870   51.8310    5.5960 O.2   117  UNK117     -0.2864
     29  CB        11.5570   48.7540    5.1950 C.3   117  UNK117      0.0319
@<TRIPOS>BOND
     1    29    26    1
     2    28    27    2
     3     9     8    2
     4    27    26    1
     5     5     2    1
     6    26    25    1
     7    23    24    1
     8    23    21    2
     9     2     1    1
    10     2     3    1
    11    25    13   am
    12    24    22    2
    13     6     3   am
    14     6     7    1
    15    21    18    1
    16     8     7    1
    17     8    11   am
    18     3     4    2
    19    13    12    1
    20    13    14    2
    21     7    10    1
    22    12    11    1
    23    12    15    1
    24    22    20    1
    25    18    20    1
    26    18    16    1
    27    20    19    2
    28    15    16    1
    29    16    17    2
    30    19    17    1
