@<TRIPOS>MOLECULE
4flp_JQ1_A_1.pdb
 31 34 0 0 0
SMALL
GASTEIGER

@<TRIPOS>ATOM
      1  CAA       10.1330   -6.3130  -28.3510 C.3   201  JQ1201      0.0742
      2  CAB        5.3720   -3.5490  -30.7030 C.3   201  JQ1201      0.0379
      3  CAC        5.9480   -1.2280  -28.5640 C.3   201  JQ1201      0.0313
      4  CAD        8.4030    2.1910  -29.8170 C.3   201  JQ1201      0.0437
      5  CAE        9.2960    2.8830  -27.5500 C.3   201  JQ1201      0.0437
      6  CAF       10.4930    3.5630  -29.6580 C.3   201  JQ1201      0.0437
      7  OAG       11.9400    1.9830  -27.7900 O.2   201  JQ1201     -0.2500
      8 CLAH        4.8890   -0.2050  -22.6460 Cl    201  JQ1201     -0.0822
      9  CAI        7.0570    0.4050  -24.2760 C.ar  201  JQ1201      0.0114
     10  CAJ        5.8600   -1.6510  -24.6330 C.ar  201  JQ1201      0.0114
     11  CAK        7.8700    0.0530  -25.3860 C.ar  201  JQ1201      0.0023
     12  CAL        6.6630   -1.9760  -25.7050 C.ar  201  JQ1201      0.0023
     13  CAM       11.9820   -0.4210  -28.0220 C.3   201  JQ1201      0.1415
     14  NAN        9.7800   -1.0640  -27.1710 N.2   201  JQ1201     -0.2640
     15  NAO       12.0590   -4.7300  -27.8660 N.ar  201  JQ1201     -0.1332
     16  NAP       12.2240   -3.4760  -27.8100 N.ar  201  JQ1201     -0.1313
     17  OAQ       10.2810    1.1430  -28.9460 O.3   201  JQ1201     -0.4557
     18  SAR        8.0510   -4.3760  -29.9190 S.2   201  JQ1201     -0.0740
     19  CAS       11.4250    0.9880  -28.2450 C.2   201  JQ1201      0.3192
     20  CAT        8.5260   -1.5120  -27.2220 C.2   201  JQ1201      0.0780
     21  CAU        6.0260   -0.4570  -23.9370 C.ar  201  JQ1201      0.0577
     22  CAV       10.7640   -4.9780  -28.1790 C.ar  201  JQ1201      0.1477
     23  CAW        7.6790   -1.1350  -26.1310 C.ar  201  JQ1201      0.0174
     24  CAX        6.6590   -3.3280  -29.8240 C.ar  201  JQ1201      0.0051
     25  CAY        6.8950   -2.3410  -28.9140 C.ar  201  JQ1201     -0.0165
     26  CAZ       11.0780   -2.8700  -28.1120 C.ar  201  JQ1201      0.1702
     27  CBA        8.1220   -2.4430  -28.2320 C.ar  201  JQ1201      0.0359
     28  CBB        8.8970   -3.5210  -28.6960 C.ar  201  JQ1201      0.0970
     29  CBC       10.7850   -1.3570  -28.2050 C.3   201  JQ1201      0.1727
     30  NBD       10.1470   -3.8080  -28.3230 N.ar  201  JQ1201     -0.2736
     31  CBE        9.6500    2.4610  -28.9800 C.3   201  JQ1201      0.1363
@<TRIPOS>BOND
     1     2    24    1
     2    18    24   ar
     3    18    28   ar
     4    24    25   ar
     5     4    31    1
     6     6    31    1
     7    31    17    1
     8    31     5    1
     9    17    19    1
    10    25     3    1
    11    25    27   ar
    12    28    30    1
    13    28    27   ar
    14     1    22    1
    15    30    22   ar
    16    30    26   ar
    17    19    13    1
    18    19     7    2
    19    27    20    1
    20    29    26    1
    21    29    13    1
    22    29    14    1
    23    22    15   ar
    24    26    16   ar
    25    15    16   ar
    26    20    14    2
    27    20    23    1
    28    23    12   ar
    29    23    11   ar
    30    12    10   ar
    31    11     9   ar
    32    10    21   ar
    33     9    21   ar
    34    21     8    1
