@<TRIPOS>MOLECULE
4fls_SUC_A_1.pdb
 23 24 0 0 0
SMALL
GASTEIGER

@<TRIPOS>ATOM
      1  C1       -20.5370  -25.9510   15.0510 C.3   700  SUC700      0.2713
      2  C2       -20.9790  -25.8720   16.5020 C.3   700  SUC700      0.2406
      3  C3       -19.7620  -26.0900   17.3920 C.3   700  SUC700      0.2198
      4  C4       -19.2420  -27.5070   17.1770 C.3   700  SUC700      0.2144
      5  C5       -19.0290  -27.8490   15.7030 C.3   700  SUC700      0.1835
      6  C6       -19.0750  -29.3680   15.5100 C.3   700  SUC700      0.2142
      7  O1       -19.6830  -24.8270   14.7660 O.3   700  SUC700     -0.3033
      8  O2       -21.6270  -24.6210   16.7510 O.3   700  SUC700     -0.2149
      9  O3       -20.1230  -25.9300   18.7670 O.3   700  SUC700     -0.2174
     10  O4       -17.9930  -27.6940   17.8580 O.3   700  SUC700     -0.2176
     11  O5       -19.9630  -27.2450   14.7900 O.3   700  SUC700     -0.3256
     12  O6       -20.3600  -29.8810   15.8970 O.3   700  SUC700     -0.2176
     13  C1'      -19.4450  -25.4780   12.3800 C.3   700  SUC700      0.2406
     14  C2'      -18.8230  -24.8200   13.6200 C.3   700  SUC700      0.2516
     15  C3'      -18.4530  -23.3620   13.3430 C.3   700  SUC700      0.2381
     16  C4'      -16.9570  -23.2580   13.4990 C.3   700  SUC700      0.2167
     17  C5'      -16.5450  -24.5260   14.2160 C.3   700  SUC700      0.1835
     18  C6'      -16.3820  -24.3050   15.7220 C.3   700  SUC700      0.2142
     19  O1'      -20.6400  -24.7820   11.9830 O.3   700  SUC700     -0.2149
     20  O2'      -17.5940  -25.4720   13.9690 O.3   700  SUC700     -0.3272
     21  O3'      -19.0480  -22.5000   14.3170 O.3   700  SUC700     -0.2150
     22  O4'      -16.3620  -23.2360   12.2060 O.3   700  SUC700     -0.2175
     23  O6'      -15.3130  -23.3940   15.9960 O.3   700  SUC700     -0.2176
@<TRIPOS>BOND
     1    19    13    1
     2    22    16    1
     3    13    14    1
     4    15    16    1
     5    15    14    1
     6    15    21    1
     7    16    17    1
     8    14    20    1
     9    14     7    1
    10    20    17    1
    11    17    18    1
    12     7     1    1
    13    11     1    1
    14    11     5    1
    15     1     2    1
    16     6     5    1
    17     6    12    1
    18     5     4    1
    19    18    23    1
    20     2     8    1
    21     2     3    1
    22     4     3    1
    23     4    10    1
    24     3     9    1
