@<TRIPOS>MOLECULE
4fm5_DF0_A_1.pdb
 17 18 0 0 0
SMALL
GASTEIGER

@<TRIPOS>ATOM
      1  O         22.7930  -12.8970  -50.9800 O.co2 706  DF0706     -0.2453
      2  C7        21.8400  -12.4770  -51.6200 C.2   706  DF0706      0.3692
      3  O1        20.7540  -12.1670  -50.9220 O.co2 706  DF0706     -0.2453
      4  C6        21.8590  -12.2840  -53.1390 C.3   706  DF0706      0.1404
      5  C4        21.4790  -13.5500  -53.8810 C.ar  706  DF0706     -0.0087
      6  C5        20.1520  -13.9500  -54.0140 C.ar  706  DF0706      0.0259
      7  C         19.8720  -15.1350  -54.7000 C.ar  706  DF0706      0.1398
      8  F         18.6300  -15.6190  -54.8900 F     706  DF0706     -0.2042
      9  C3        22.5050  -14.3070  -54.4110 C.ar  706  DF0706     -0.0036
     10  C2        22.2700  -15.4780  -55.1010 C.ar  706  DF0706      0.0019
     11  C1        20.9770  -15.9320  -55.2560 C.ar  706  DF0706      0.0275
     12  C8        20.6580  -17.1950  -55.9760 C.ar  706  DF0706      0.0022
     13  C13       19.7910  -18.1140  -55.3850 C.ar  706  DF0706      0.0001
     14  C12       19.4770  -19.2920  -56.0510 C.ar  706  DF0706      0.0000
     15  C11       20.0330  -19.5560  -57.2910 C.ar  706  DF0706      0.0000
     16  C10       20.9010  -18.6320  -57.8770 C.ar  706  DF0706      0.0000
     17  C9        21.2160  -17.4470  -57.2250 C.ar  706  DF0706      0.0001
@<TRIPOS>BOND
     1    16    15   ar
     2    16    17   ar
     3    15    14   ar
     4    17    12   ar
     5    14    13   ar
     6    12    13   ar
     7    12    11    1
     8    11    10   ar
     9    11     7   ar
    10    10     9   ar
    11     8     7    1
    12     7     6   ar
    13     9     5   ar
    14     6     5   ar
    15     5     4    1
    16     4     2    1
    17     2     1   ar
    18     2     3   ar
