@<TRIPOS>MOLECULE
4fm5_HEM_A_1.pdb
 43 50 0 0 0
SMALL
GASTEIGER

@<TRIPOS>ATOM
      1  CHA       18.7000  -31.2480  -66.8110 C.2   705  HEM705      0.0000
      2  CHB       15.1240  -30.8070  -70.3190 C.2   705  HEM705      0.0000
      3  CHC       15.1280  -26.0320  -69.5150 C.2   705  HEM705      0.0000
      4  CHD       17.9480  -26.6290  -65.4400 C.2   705  HEM705      0.0000
      5  C1A       17.7310  -31.4790  -67.8680 C.ar  705  HEM705      0.0000
      6  C2A       17.5280  -32.8680  -68.3860 C.ar  705  HEM705      0.0000
      7  C3A       16.4750  -32.7170  -69.4100 C.ar  705  HEM705      0.0000
      8  C4A       16.1420  -31.2700  -69.3970 C.ar  705  HEM705      0.0000
      9  CMA       15.8660  -33.8090  -70.2480 C.3   705  HEM705      0.0000
     10  CAA       18.2320  -34.1590  -68.0040 C.3   705  HEM705      0.0000
     11  CBA       17.8420  -34.6990  -66.6300 C.3   705  HEM705      0.0000
     12  CGA       18.4060  -36.1060  -66.4350 C.2   705  HEM705      0.0000
     13  O1A       17.7970  -36.9560  -65.7270 O.co2 705  HEM705      0.0000
     14  O2A       19.4920  -36.3790  -67.0050 O.co2 705  HEM705      0.0000
     15  C1B       14.8400  -29.3990  -70.4380 C.2   705  HEM705      0.0000
     16  C2B       14.1250  -28.8880  -71.6320 C.2   705  HEM705      0.0000
     17  C3B       14.1840  -27.4490  -71.3630 C.2   705  HEM705      0.0000
     18  C4B       14.9020  -27.3440  -70.0780 C.2   705  HEM705      0.0000
     19  CMB       13.5300  -29.6430  -72.7820 C.3   705  HEM705      0.0000
     20  CAB       13.6110  -26.2920  -72.1080 C.2   705  HEM705      0.0000
     21  CBB       12.8290  -26.4360  -73.1600 C.2   705  HEM705      0.0000
     22  C1C       15.8630  -25.8270  -68.3110 C.ar  705  HEM705      0.0000
     23  C2C       15.9060  -24.4740  -67.7360 C.ar  705  HEM705      0.0000
     24  C3C       16.7240  -24.6450  -66.5370 C.ar  705  HEM705      0.0000
     25  C4C       17.1190  -26.0720  -66.4880 C.ar  705  HEM705      0.0000
     26  CMC       15.2470  -23.2230  -68.2460 C.3   705  HEM705      0.0000
     27  CAC       17.0650  -23.4800  -65.6820 C.2   705  HEM705      0.0000
     28  CBC       18.0830  -23.4350  -64.8550 C.2   705  HEM705      0.0000
     29  C1D       18.4220  -27.9980  -65.5030 C.2   705  HEM705      0.0000
     30  C2D       19.5790  -28.3390  -64.6650 C.2   705  HEM705      0.0000
     31  C3D       19.8250  -29.7190  -65.0740 C.2   705  HEM705      0.0000
     32  C4D       18.7840  -29.9730  -66.1050 C.2   705  HEM705      0.0000
     33  CMD       20.2860  -27.4670  -63.6720 C.3   705  HEM705      0.0000
     34  CAD       20.9100  -30.6440  -64.6060 C.3   705  HEM705      0.0000
     35  CBD       22.0300  -30.6050  -65.6600 C.3   705  HEM705      0.0000
     36  CGD       22.9650  -31.7840  -65.4880 C.2   705  HEM705      0.0000
     37  O1D       22.4700  -32.9180  -65.2750 O.co2 705  HEM705      0.0000
     38  O2D       24.2030  -31.5880  -65.5700 O.co2 705  HEM705      0.0000
     39  NA        16.9890  -30.4060  -68.5480 N.ar  705  HEM705      0.0000
     40  NB        15.3450  -28.4960  -69.5480 N.2   705  HEM705      0.0000
     41  NC        16.6900  -26.8350  -67.6710 N.ar  705  HEM705      0.0000
     42  ND        17.9710  -28.9390  -66.3900 N.2   705  HEM705      0.0000
     43 FE         16.3190  -28.7660  -67.6910 Fe    705  HEM705      0.0000
@<TRIPOS>BOND
     1    21    20    2
     2    19    16    1
     3    20    17    1
     4    16    17    2
     5    16    15    1
     6    17    18    1
     7    15     2    1
     8    15    40    2
     9     2     8    2
    10     9     7    1
    11    18    40    1
    12    18     3    2
    13    40    43    1
    14     3    22    1
    15     7     8   ar
    16     7     6   ar
    17     8    39   ar
    18    39     5   ar
    19    39    43    1
    20     6    10    1
    21     6     5   ar
    22    22    23   ar
    23    22    41   ar
    24    26    23    1
    25    10    11    1
    26     5     1    2
    27    23    24   ar
    28    43    41    1
    29    43    42    1
    30    41    25   ar
    31    14    12   ar
    32     1    32    1
    33    11    12    1
    34    24    25   ar
    35    24    27    1
    36    25     4    1
    37    12    13   ar
    38    42    32    2
    39    42    29    1
    40    32    31    1
    41    27    28    2
    42    35    36    1
    43    35    34    1
    44    38    36   ar
    45    29     4    2
    46    29    30    1
    47    36    37   ar
    48    31    30    2
    49    31    34    1
    50    30    33    1
