@<TRIPOS>MOLECULE
4fm6_III_C_1.pdb
 34 33 0 0 0
SMALL
GASTEIGER

@<TRIPOS>ATOM
      1  N        -20.8240   31.3190  -13.5700 N.3   259  TYR259     -0.1231
      2  CA       -20.2690   31.2030  -14.9140 C.3   259  TYR259      0.1694
      3  C        -20.3050   29.7650  -15.4090 C.2   259  TYR259      0.2592
      4  O        -20.1700   28.8800  -14.5720 O.2   259  TYR259     -0.2718
      5  CB       -18.8210   31.6670  -14.9630 C.3   259  TYR259      0.0304
      6  N        -20.4520   29.6190  -16.7170 N.am  260  ASP260     -0.1960
      7  CA       -20.3550   28.3100  -17.3680 C.3   260  ASP260      0.1840
      8  C        -19.0660   27.5970  -16.9450 C.2   260  ASP260      0.2622
      9  O        -18.0510   28.2010  -16.6220 O.2   260  ASP260     -0.2715
     10  CB       -20.4720   28.4210  -18.8890 C.3   260  ASP260      0.1450
     11  CG       -21.8780   28.6670  -19.4150 C.2   260  ASP260      0.3671
     12  OD1      -22.9090   28.7510  -18.6880 O.co2 260  ASP260     -0.2456
     13  OD2      -22.0610   28.7960  -20.6650 O.co2 260  ASP260     -0.2456
     14  N        -19.1740   26.2580  -16.9640 N.am  261  GLN261     -0.1963
     15  CA       -18.0530   25.4590  -16.5170 C.3   261  GLN261      0.1728
     16  C        -17.5720   24.5210  -17.6160 C.2   261  GLN261      0.2616
     17  O        -18.3740   23.8770  -18.2970 O.2   261  GLN261     -0.2715
     18  CB       -18.4750   24.7240  -15.2470 C.3   261  GLN261      0.0334
     19  N        -16.2720   24.4450  -17.7940 N.am  262  ILE262     -0.1963
     20  CA       -15.6390   23.5690  -18.7810 C.3   262  ILE262      0.1727
     21  C        -14.6060   22.7010  -18.0670 C.2   262  ILE262      0.2616
     22  O        -13.5310   23.1760  -17.6870 O.2   262  ILE262     -0.2715
     23  CB       -14.9890   24.3180  -19.9460 C.3   262  ILE262      0.0290
     24  CG1      -15.9820   25.1190  -20.7810 C.3   262  ILE262      0.0022
     25  CG2      -14.2270   23.3880  -20.8700 C.3   262  ILE262      0.0023
     26  CD1      -15.4670   25.6380  -22.1020 C.3   262  ILE262      0.0001
     27  N        -14.9370   21.4340  -17.8590 N.am  263  ILE263     -0.1977
     28  CA       -13.9270   20.5380  -17.2530 C.3   263  ILE263      0.1596
     29  C        -13.8800   19.2250  -18.0170 C.2   263  ILE263      0.2287
     30  O        -13.3210   18.2040  -17.5830 O.2   263  ILE263     -0.2864
     31  CB       -14.2240   20.3440  -15.7590 C.3   263  ILE263      0.0276
     32  CG1      -15.6890   19.9880  -15.5220 C.3   263  ILE263      0.0022
     33  CG2      -13.8340   21.5250  -14.8840 C.3   263  ILE263      0.0022
     34  CD1      -16.4450   21.0500  -14.7640 C.3   263  ILE263      0.0001
@<TRIPOS>BOND
     1    26    24    1
     2    25    23    1
     3    24    23    1
     4    13    11   ar
     5    23    20    1
     6    11    10    1
     7    11    12   ar
     8    10     7    1
     9    20    21    1
    10    20    19    1
    11    17    16    2
    12    21    27   am
    13    21    22    2
    14    29    30    2
    15    29    28    1
    16    27    28    1
    17    19    16   am
    18    16    15    1
    19     7     8    1
    20     7     6    1
    21    28    31    1
    22    14     8   am
    23    14    15    1
    24     8     9    2
    25     6     3   am
    26    15    18    1
    27    31    32    1
    28    31    33    1
    29    32    34    1
    30     3     2    1
    31     3     4    2
    32     5     2    1
    33     2     1    1
