@<TRIPOS>MOLECULE
4fm7_0UP_A_1.pdb
 33 36 0 0 0
SMALL
GASTEIGER

@<TRIPOS>ATOM
      1  C1        26.9070   36.8440   45.1420 C.ar  501  0UP501      0.0036
      2  C2        26.0280   38.5330   41.2850 C.ar  501  0UP501      0.0006
      3  C3        25.6480   36.2860   45.0580 C.ar  501  0UP501      0.0163
      4  C4        27.2880   38.6560   41.8310 C.ar  501  0UP501      0.0449
      5  C5        27.0400   38.2020   45.3200 C.ar  501  0UP501      0.0297
      6  C6        26.3790   36.2050   40.9090 C.ar  501  0UP501      0.0373
      7  C7        24.6450   38.4260   45.4100 C.ar  501  0UP501      0.0458
      8  C8        25.5550   37.3150   40.8480 C.ar  501  0UP501     -0.0029
      9  C9        24.5190   37.0720   45.1610 C.ar  501  0UP501      0.0720
     10  C10       28.0910   37.5390   41.8990 C.ar  501  0UP501      0.2293
     11  C11       27.6460   36.3250   41.4120 C.ar  501  0UP501      0.1767
     12  C12       25.9100   38.9830   45.4520 C.ar  501  0UP501      0.1414
     13  C13       22.3450   35.3040   43.1560 C.3   501  0UP501      0.0388
     14  C14       21.9140   37.7160   43.4530 C.3   501  0UP501      0.0375
     15  C15       20.8880   36.1120   44.9670 C.3   501  0UP501      0.1171
     16  C16       23.4550   35.5890   42.1630 C.3   501  0UP501      0.0741
     17  C17       22.9520   37.9970   42.3860 C.3   501  0UP501      0.0595
     18  C18       22.1490   36.4110   44.1600 C.3   501  0UP501      0.0994
     19  C19       22.4430   39.1720   41.5810 C.3   501  0UP501      0.0174
     20  C20       28.5170   34.2740   39.2890 C.3   501  0UP501      0.0472
     21  C21       29.0570   32.9920   41.3310 C.3   501  0UP501      0.0472
     22  C22       20.2170   35.0950   47.1330 C.3   501  0UP501      0.1164
     23  C23       24.1540   37.1500   40.3330 C.3   501  0UP501      0.0992
     24  C24       28.1920   34.0990   40.7610 C.3   501  0UP501      0.1663
     25  N25       23.2460   36.4180   45.1710 N.pl3 501  0UP501     -0.1826
     26  N26       21.2770   35.2710   46.1150 N.3   501  0UP501     -0.1394
     27  N27       23.1560   36.8480   41.4360 N.3   501  0UP501     -0.2702
     28  O28       23.6490   34.5040   46.8140 O.2   501  0UP501     -0.1377
     29  O29       22.7190   36.6490   47.7190 O.2   501  0UP501     -0.1377
     30  O30       29.3830   37.5960   42.4020 O.3   501  0UP501     -0.2833
     31  O31       28.5390   35.2700   41.5190 O.3   501  0UP501     -0.4760
     32  F32       26.0540   40.3110   45.6380 F     501  0UP501     -0.2041
     33  S33       22.8200   35.6820   46.6560 S.O2  501  0UP501      0.1160
@<TRIPOS>BOND
     1    20    24    1
     2    23     8    1
     3    23    27    1
     4    24    21    1
     5    24    31    1
     6     8     6   ar
     7     8     2   ar
     8     6    11   ar
     9     2     4   ar
    10    11    31    1
    11    11    10   ar
    12    27    16    1
    13    27    17    1
    14    19    17    1
    15     4    10   ar
    16    10    30    1
    17    16    13    1
    18    17    14    1
    19    13    18    1
    20    14    18    1
    21    18    15    1
    22    18    25    1
    23    15    26    1
    24     3     1   ar
    25     3     9   ar
    26     1     5   ar
    27     9    25    1
    28     9     7   ar
    29    25    33    1
    30     5    12   ar
    31     7    12   ar
    32    12    32    1
    33    26    33    1
    34    26    22    1
    35    33    28    2
    36    33    29    2
