@<TRIPOS>MOLECULE
4fm8_0UQ_A_1.pdb
 32 35 0 0 0
SMALL
GASTEIGER

@<TRIPOS>ATOM
      1  C1        22.3880   34.6370   42.4680 C.3   501  0UQ501      0.0388
      2  C2        23.4070   34.9270   41.3780 C.3   501  0UQ501      0.0741
      3  N1        23.1740   36.2520   40.7110 N.3   501  0UQ501     -0.2702
      4  C3        22.9030   37.4190   41.6370 C.3   501  0UQ501      0.0595
      5  C4        21.8420   37.0960   42.6800 C.3   501  0UQ501      0.0375
      6  C5        22.0960   35.7900   43.4220 C.3   501  0UQ501      0.0994
      7  C6        22.4830   38.6370   40.8600 C.3   501  0UQ501      0.0174
      8  N2        23.0590   35.9860   44.5500 N.pl3 501  0UQ501     -0.1826
      9  C7        20.7980   35.4670   44.1460 C.3   501  0UQ501      0.1171
     10  C8        24.4520   36.3620   44.5020 C.ar  501  0UQ501      0.0720
     11  C9        25.5520   35.5650   44.2420 C.ar  501  0UQ501      0.0163
     12  C10       26.8220   36.1190   44.2720 C.ar  501  0UQ501      0.0036
     13  C11       26.9970   37.4610   44.5860 C.ar  501  0UQ501      0.0297
     14  C12       25.8860   38.2380   44.8500 C.ar  501  0UQ501      0.1414
     15  C13       24.6260   37.6940   44.8100 C.ar  501  0UQ501      0.0458
     16  F1        25.9580   39.5390   45.1550 F     501  0UQ501     -0.2041
     17  C14       24.2100   36.5280   39.6480 C.3   501  0UQ501      0.0992
     18  C15       25.6250   36.6520   40.1160 C.ar  501  0UQ501     -0.0031
     19  C16       26.4140   35.5250   40.1700 C.ar  501  0UQ501      0.0340
     20  C17       27.7260   35.6050   40.5990 C.ar  501  0UQ501      0.1381
     21  C18       28.2620   36.8250   40.9710 C.ar  501  0UQ501      0.0369
     22  C19       27.4800   37.9600   40.9030 C.ar  501  0UQ501      0.0028
     23  C20       26.1760   37.8710   40.4700 C.ar  501  0UQ501     -0.0027
     24  O1        28.5790   34.4990   40.6880 O.3   501  0UQ501     -0.4792
     25  C21       28.2440   33.3890   39.8690 C.3   501  0UQ501      0.1661
     26  C22       28.4710   33.6970   38.3940 C.3   501  0UQ501      0.0472
     27  C23       29.1740   32.2630   40.3080 C.3   501  0UQ501      0.0472
     28  S1        22.6730   35.0490   45.9250 S.O2  501  0UQ501      0.1160
     29  N3        21.1410   34.6280   45.3120 N.3   501  0UQ501     -0.1394
     30  O2        22.5770   36.0330   46.9890 O.2   501  0UQ501     -0.1377
     31  C24       20.0320   34.5610   46.2860 C.3   501  0UQ501      0.1164
     32  O3        23.4900   33.8670   46.0660 O.2   501  0UQ501     -0.1377
@<TRIPOS>BOND
     1    26    25    1
     2    17    18    1
     3    17     3    1
     4    25    27    1
     5    25    24    1
     6    18    19   ar
     7    18    23   ar
     8    19    20   ar
     9    23    22   ar
    10    20    24    1
    11    20    21   ar
    12     3     2    1
    13     3     4    1
    14     7     4    1
    15    22    21   ar
    16     2     1    1
    17     4     5    1
    18     1     6    1
    19     5     6    1
    20     6     9    1
    21     6     8    1
    22     9    29    1
    23    11    12   ar
    24    11    10   ar
    25    12    13   ar
    26    10     8    1
    27    10    15   ar
    28     8    28    1
    29    13    14   ar
    30    15    14   ar
    31    14    16    1
    32    29    28    1
    33    29    31    1
    34    28    32    2
    35    28    30    2
