@<TRIPOS>MOLECULE
4fmb_GDP_B_1.pdb
 28 30 0 0 0
SMALL
GASTEIGER

@<TRIPOS>ATOM
      1  PB       -29.6770  -24.6680   48.3280 P.3   202  GDP202      0.5373
      2  O1B      -28.9810  -24.8730   46.9070 O.2   202  GDP202     -0.2221
      3  O2B      -29.3350  -25.7790   49.2880 O.3   202  GDP202     -0.1143
      4  O3B      -29.3830  -23.2380   48.7020 O.3   202  GDP202     -0.1143
      5  O3A      -31.2650  -24.8900   48.0900 O.3   202  GDP202     -0.2261
      6  PA       -32.3790  -23.8960   47.4090 P.3   202  GDP202      0.2231
      7  O1A      -32.9770  -23.0680   48.5280 O.3   202  GDP202     -0.4370
      8  O2A      -31.9890  -23.1820   46.1190 O.2   202  GDP202     -0.5169
      9  O5'      -33.4540  -25.0870   46.9970 O.3   202  GDP202     -0.3111
     10  C5'      -33.4560  -25.8140   45.7450 C.3   202  GDP202      0.1813
     11  C4'      -34.8960  -26.1940   45.4920 C.3   202  GDP202      0.1799
     12  O4'      -35.3920  -26.5120   46.7580 O.3   202  GDP202     -0.3326
     13  C3'      -35.8680  -25.0470   45.2450 C.3   202  GDP202      0.2158
     14  O3'      -35.8410  -24.2870   44.0270 O.3   202  GDP202     -0.2175
     15  C2'      -37.2190  -25.6610   45.5020 C.3   202  GDP202      0.2310
     16  O2'      -37.8120  -26.4560   44.4260 O.3   202  GDP202     -0.2158
     17  C1'      -36.8150  -26.5030   46.6910 C.3   202  GDP202      0.2293
     18  N9       -37.3700  -25.8920   47.9010 N.pl3 202  GDP202     -0.2354
     19  C8       -36.7900  -25.0360   48.7220 C.3   202  GDP202      0.2246
     20  N7       -37.6710  -24.7270   49.7150 N.2   202  GDP202     -0.2322
     21  C5       -38.7970  -25.4070   49.4940 C.2   202  GDP202      0.2182
     22  C6       -40.1080  -25.5130   50.1890 C.1   202  GDP202      0.2372
     23  O6       -40.4140  -24.8360   51.3340 O.2   202  GDP202     -0.2069
     24  N1       -41.0350  -26.3330   49.6410 N.2   202  GDP202     -0.2485
     25  C2       -40.7800  -27.0390   48.4900 C.1   202  GDP202      0.2531
     26  N2       -41.7390  -27.8660   47.9470 N.pl3 202  GDP202     -0.0226
     27  N3       -39.5640  -26.9230   47.8730 N.2   202  GDP202     -0.3074
     28  C4       -38.5860  -26.1300   48.3480 C.2   202  GDP202      0.2300
@<TRIPOS>BOND
     1    14    13    1
     2    16    15    1
     3    13    11    1
     4    13    15    1
     5    11    10    1
     6    11    12    1
     7    15    17    1
     8    10     9    1
     9     8     6    2
    10    17    12    1
    11    17    18    1
    12     2     1    2
    13     9     6    1
    14     6     5    1
    15     6     7    1
    16    27    28    2
    17    27    25    2
    18    18    28    1
    19    18    19    1
    20    26    25    1
    21     5     1    1
    22     1     4    1
    23     1     3    1
    24    28    21    1
    25    25    24    2
    26    19    20    1
    27    21    20    2
    28    21    22    1
    29    24    22    2
    30    22    23    2
