@<TRIPOS>MOLECULE
4fmc_GDP_B_1.pdb
 28 30 0 0 0
SMALL
GASTEIGER

@<TRIPOS>ATOM
      1  PB       -37.8240   42.6960   50.0700 P.3   202  GDP202      0.5373
      2  O1B      -37.3070   43.7790   49.1640 O.2   202  GDP202     -0.2221
      3  O2B      -38.4210   41.5200   49.1640 O.3   202  GDP202     -0.1143
      4  O3B      -36.6910   42.1130   51.0510 O.3   202  GDP202     -0.1143
      5  O3A      -39.1380   43.2230   50.8720 O.3   202  GDP202     -0.2261
      6  PA       -38.9340   43.3640   52.4730 P.3   202  GDP202      0.2231
      7  O1A      -37.7160   44.3430   52.8470 O.2   202  GDP202     -0.5169
      8  O2A      -38.7550   42.0590   53.1460 O.3   202  GDP202     -0.4370
      9  O5'      -40.2950   43.9890   53.0310 O.3   202  GDP202     -0.3111
     10  C5'      -40.5530   45.3220   52.6030 C.3   202  GDP202      0.1813
     11  C4'      -41.5780   45.9460   53.5560 C.3   202  GDP202      0.1799
     12  O4'      -42.9270   45.5020   53.3120 O.3   202  GDP202     -0.3326
     13  C3'      -41.2750   45.6120   55.0110 C.3   202  GDP202      0.2158
     14  O3'      -40.6180   46.6960   55.6810 O.3   202  GDP202     -0.2175
     15  C2'      -42.6190   45.3810   55.6540 C.3   202  GDP202      0.2310
     16  O2'      -42.9680   46.5460   56.3960 O.3   202  GDP202     -0.2158
     17  C1'      -43.6250   45.2170   54.5330 C.3   202  GDP202      0.2293
     18  N9       -44.1340   43.8150   54.6170 N.pl3 202  GDP202     -0.2354
     19  C8       -43.4300   42.7160   54.3090 C.3   202  GDP202      0.2246
     20  N7       -44.1880   41.6220   54.5020 N.2   202  GDP202     -0.2322
     21  C5       -45.3800   42.0340   54.9470 C.2   202  GDP202      0.2182
     22  C6       -46.6250   41.3210   55.3400 C.1   202  GDP202      0.2372
     23  O6       -46.6940   39.9730   55.2880 O.2   202  GDP202     -0.2069
     24  N1       -47.6890   42.0390   55.7480 N.2   202  GDP202     -0.2485
     25  C2       -47.6150   43.3960   55.8010 C.1   202  GDP202      0.2531
     26  N2       -48.7160   44.0830   56.2250 N.pl3 202  GDP202     -0.0226
     27  N3       -46.4700   44.0650   55.4500 N.2   202  GDP202     -0.3074
     28  C4       -45.3510   43.4150   55.0260 C.2   202  GDP202      0.2300
@<TRIPOS>BOND
     1     2     1    2
     2     3     1    1
     3     1     5    1
     4     1     4    1
     5     5     6    1
     6     6     7    2
     7     6     9    1
     8     6     8    1
     9    10     9    1
    10    10    11    1
    11    12    11    1
    12    12    17    1
    13    11    13    1
    14    19    20    1
    15    19    18    1
    16    20    21    2
    17    17    18    1
    18    17    15    1
    19    18    28    1
    20    21    28    1
    21    21    22    1
    22    13    15    1
    23    13    14    1
    24    28    27    2
    25    23    22    2
    26    22    24    2
    27    27    25    2
    28    15    16    1
    29    24    25    2
    30    25    26    1
