@<TRIPOS>MOLECULE
4fmd_GDP_B_1.pdb
 28 30 0 0 0
SMALL
GASTEIGER

@<TRIPOS>ATOM
      1  PB       -15.6180  -42.8050   50.9000 P.3   202  GDP202      0.5373
      2  O1B      -15.1710  -41.6010   49.9500 O.2   202  GDP202     -0.2221
      3  O2B      -16.1360  -43.9600   50.0930 O.3   202  GDP202     -0.1143
      4  O3B      -16.6840  -42.2410   51.9610 O.3   202  GDP202     -0.1143
      5  O3A      -14.3160  -43.3630   51.6740 O.3   202  GDP202     -0.2261
      6  PA       -14.4420  -43.5510   53.2810 P.3   202  GDP202      0.2231
      7  O1A      -15.6150  -44.5300   53.7590 O.2   202  GDP202     -0.5169
      8  O2A      -14.5950  -42.2600   53.9560 O.3   202  GDP202     -0.4370
      9  O5'      -13.0060  -44.1170   53.6750 O.3   202  GDP202     -0.3111
     10  C5'      -13.0280  -45.5270   53.4970 C.3   202  GDP202      0.1813
     11  C4'      -11.9000  -46.1400   54.3140 C.3   202  GDP202      0.1799
     12  O4'      -10.6570  -45.5230   53.9660 O.3   202  GDP202     -0.3326
     13  C3'      -12.0950  -45.9100   55.8040 C.3   202  GDP202      0.2158
     14  O3'      -12.6530  -47.0600   56.4430 O.3   202  GDP202     -0.2175
     15  C2'      -10.7070  -45.6330   56.3300 C.3   202  GDP202      0.2310
     16  O2'      -10.1870  -46.7890   56.9780 O.3   202  GDP202     -0.2158
     17  C1'       -9.8400  -45.3390   55.1230 C.3   202  GDP202      0.2293
     18  N9        -9.3440  -43.9430   55.2520 N.pl3 202  GDP202     -0.2354
     19  C8       -10.0320  -42.8380   54.9260 C.3   202  GDP202      0.2246
     20  N7        -9.2860  -41.7450   55.1710 N.2   202  GDP202     -0.2322
     21  C5        -8.1170  -42.1830   55.6720 C.2   202  GDP202      0.2182
     22  C6        -6.8900  -41.4920   56.1370 C.1   202  GDP202      0.2372
     23  O6        -6.8170  -40.1300   56.1070 O.2   202  GDP202     -0.2069
     24  N1        -5.8600  -42.2440   56.5850 N.2   202  GDP202     -0.2485
     25  C2        -5.9400  -43.5910   56.6080 C.1   202  GDP202      0.2531
     26  N2        -4.8740  -44.2920   57.0640 N.pl3 202  GDP202     -0.0226
     27  N3        -7.0600  -44.2340   56.1910 N.2   202  GDP202     -0.3074
     28  C4        -8.1500  -43.5620   55.7260 C.2   202  GDP202      0.2300
@<TRIPOS>BOND
     1     2     1    2
     2     3     1    1
     3     1     5    1
     4     1     4    1
     5     5     6    1
     6     6     9    1
     7     6     7    2
     8     6     8    1
     9    10     9    1
    10    10    11    1
    11    12    11    1
    12    12    17    1
    13    11    13    1
    14    19    20    1
    15    19    18    1
    16    17    18    1
    17    17    15    1
    18    20    21    2
    19    18    28    1
    20    21    28    1
    21    21    22    1
    22    28    27    2
    23    13    15    1
    24    13    14    1
    25    23    22    2
    26    22    24    2
    27    27    25    2
    28    15    16    1
    29    24    25    2
    30    25    26    1
