@<TRIPOS>MOLECULE
4fme_GDP_B_1.pdb
 28 30 0 0 0
SMALL
GASTEIGER

@<TRIPOS>ATOM
      1  PB       -30.0650   45.7220    1.5000 P.3   202  GDP202      0.5373
      2  O1B      -29.0840   46.0190    2.5760 O.3   202  GDP202     -0.1143
      3  O2B      -30.3690   47.0360    0.6190 O.3   202  GDP202     -0.1143
      4  O3B      -29.5150   44.5560    0.5350 O.2   202  GDP202     -0.2221
      5  O3A      -31.4580   45.2580    2.1640 O.3   202  GDP202     -0.2261
      6  PA       -31.2370   43.9800    3.1240 P.3   202  GDP202      0.2231
      7  O1A      -30.4990   42.9090    2.4210 O.2   202  GDP202     -0.5169
      8  O2A      -30.4330   44.4130    4.4490 O.3   202  GDP202     -0.4370
      9  O5'      -32.6950   43.4300    3.5260 O.3   202  GDP202     -0.3111
     10  C5'      -32.6570   42.9140    4.8540 C.3   202  GDP202      0.1813
     11  C4'      -33.9000   43.4340    5.5610 C.3   202  GDP202      0.1799
     12  O4'      -34.8820   43.7720    4.5800 O.3   202  GDP202     -0.3326
     13  C3'      -34.5390   42.4390    6.5370 C.3   202  GDP202      0.2158
     14  O3'      -34.3860   42.8930    7.8860 O.3   202  GDP202     -0.2175
     15  C2'      -36.0120   42.3990    6.1670 C.3   202  GDP202      0.2310
     16  O2'      -36.7800   42.9610    7.2370 O.3   202  GDP202     -0.2158
     17  C1'      -36.1740   43.2750    4.9310 C.3   202  GDP202      0.2293
     18  N9       -36.6770   42.4330    3.8140 N.pl3 202  GDP202     -0.2354
     19  C8       -36.0350   42.1670    2.6660 C.3   202  GDP202      0.2246
     20  N7       -36.8130   41.3670    1.9010 N.2   202  GDP202     -0.2322
     21  C5       -37.9510   41.1370    2.5860 C.2   202  GDP202      0.2182
     22  C6       -39.1840   40.3580    2.3110 C.1   202  GDP202      0.2372
     23  O6       -39.3340   39.6730    1.1430 O.2   202  GDP202     -0.2069
     24  N1       -40.1550   40.3460    3.2480 N.2   202  GDP202     -0.2485
     25  C2       -40.0030   41.0280    4.4080 C.1   202  GDP202      0.2531
     26  N2       -40.9970   40.9970    5.3300 N.pl3 202  GDP202     -0.0226
     27  N3       -38.8830   41.7430    4.6730 N.2   202  GDP202     -0.3074
     28  C4       -37.8590   41.8110    3.7880 C.2   202  GDP202      0.2300
@<TRIPOS>BOND
     1     4     1    2
     2     3     1    1
     3    23    22    2
     4     1     5    1
     5     1     2    1
     6    20    21    2
     7    20    19    1
     8     5     6    1
     9    22    21    1
    10    22    24    2
    11     7     6    2
    12    21    28    1
    13    19    18    1
    14     6     9    1
    15     6     8    1
    16    24    25    2
    17     9    10    1
    18    28    18    1
    19    28    27    2
    20    18    17    1
    21    25    27    2
    22    25    26    1
    23    12    17    1
    24    12    11    1
    25    10    11    1
    26    17    15    1
    27    11    13    1
    28    15    13    1
    29    15    16    1
    30    13    14    1
