@<TRIPOS>MOLECULE
4fme_GTP_C_1.pdb
 32 34 0 0 0
SMALL
GASTEIGER

@<TRIPOS>ATOM
      1  PG         1.3520   62.6400   -0.8830 P.3   201  GTP201      0.5373
      2  O1G        0.7170   63.3990   -1.9820 O.2   201  GTP201     -0.2221
      3  O2G        0.6210   62.6920    0.4030 O.3   201  GTP201     -0.1143
      4  O3G        2.8150   62.8320   -0.7680 O.3   201  GTP201     -0.1143
      5  O3B        1.2080   61.1040   -1.3400 O.3   201  GTP201     -0.2258
      6  PB         2.2970   60.4440   -2.3250 P.3   201  GTP201      0.2277
      7  O1B        2.4990   61.3430   -3.4830 O.2   201  GTP201     -0.5168
      8  O2B        3.4750   60.0270   -1.5330 O.3   201  GTP201     -0.4368
      9  O3A        1.5430   59.1170   -2.8340 O.3   201  GTP201     -0.2700
     10  PA         1.6120   57.7630   -1.9680 P.3   201  GTP201      0.2189
     11  O1A        3.0270   57.3500   -1.8360 O.2   201  GTP201     -0.5170
     12  O2A        0.8050   57.9350   -0.7400 O.3   201  GTP201     -0.4371
     13  O5'        0.8560   56.7120   -2.9250 O.3   201  GTP201     -0.3112
     14  C5'       -0.4260   57.0500   -3.4600 C.3   201  GTP201      0.1813
     15  C4'       -1.0680   55.8340   -4.1320 C.3   201  GTP201      0.1799
     16  O4'       -0.2090   55.3850   -5.1970 O.3   201  GTP201     -0.3326
     17  C3'       -1.1440   54.6810   -3.1430 C.3   201  GTP201      0.2158
     18  O3'       -2.3510   53.9320   -3.3490 O.3   201  GTP201     -0.2175
     19  C2'        0.0500   53.8450   -3.5600 C.3   201  GTP201      0.2310
     20  O2'       -0.1280   52.4810   -3.1500 O.3   201  GTP201     -0.2158
     21  C1'       -0.1220   53.9570   -5.0620 C.3   201  GTP201      0.2293
     22  N9         1.0150   53.3820   -5.8150 N.pl3 201  GTP201     -0.2354
     23  C8         2.3030   53.5950   -5.5640 C.3   201  GTP201      0.2246
     24  N7         3.0050   53.0100   -6.5310 N.2   201  GTP201     -0.2322
     25  C5         2.1530   52.4290   -7.3700 C.2   201  GTP201      0.2182
     26  C6         2.3620   51.6700   -8.4430 C.1   201  GTP201      0.2372
     27  O6         3.5030   51.4590   -8.8500 O.2   201  GTP201     -0.2069
     28  N1         1.2740   51.1060   -9.1180 N.2   201  GTP201     -0.2485
     29  C2        -0.0120   51.3690   -8.6330 C.1   201  GTP201      0.2531
     30  N2        -1.0750   50.8130   -9.2060 N.pl3 201  GTP201     -0.0226
     31  N3        -0.1520   52.1500   -7.5530 N.2   201  GTP201     -0.3074
     32  C4         0.9190   52.6660   -6.9310 C.2   201  GTP201      0.2300
@<TRIPOS>BOND
     1    30    29    1
     2    28    29    2
     3    28    26    2
     4    27    26    2
     5    29    31    2
     6    26    25    1
     7    31    32    2
     8    25    32    1
     9    25    24    2
    10    32    22    1
    11    24    23    1
    12    22    23    1
    13    22    21    1
    14    16    21    1
    15    16    15    1
    16    21    19    1
    17    15    14    1
    18    15    17    1
    19    19    20    1
    20    19    17    1
    21     7     6    2
    22    14    13    1
    23    18    17    1
    24    13    10    1
    25     9     6    1
    26     9    10    1
    27     6     8    1
    28     6     5    1
    29     2     1    2
    30    10    11    2
    31    10    12    1
    32     5     1    1
    33     1     4    1
    34     1     3    1
