@<TRIPOS>MOLECULE
4fmh_SIA_B_1.pdb
 20 20 0 0 0
SMALL
GASTEIGER

@<TRIPOS>ATOM
      1  C1        25.9610  -17.7080   15.6470 C.2   401  SIA401      0.3914
      2  C2        26.6460  -18.9140   15.0000 C.3   401  SIA401      0.2203
      3  C3        25.9300  -19.2530   13.6790 C.3   401  SIA401      0.0760
      4  C4        26.2500  -18.3000   12.5220 C.3   401  SIA401      0.1773
      5  C5        27.7550  -18.0940   12.3680 C.3   401  SIA401      0.1552
      6  C6        28.4260  -17.7350   13.7000 C.3   401  SIA401      0.1710
      7  C7        29.9570  -17.7110   13.5350 C.3   401  SIA401      0.2134
      8  C8        30.7120  -16.9830   14.6570 C.3   401  SIA401      0.2173
      9  C9        30.7990  -17.7790   15.9560 C.3   401  SIA401      0.2175
     10  C10       28.6330  -17.3140   10.2100 C.2   401  SIA401      0.2420
     11  C11       28.7590  -16.1480    9.2810 C.3   401  SIA401      0.0964
     12  N5        27.9780  -17.0760   11.3520 N.am  401  SIA401     -0.2020
     13  O1A       24.7290  -17.5410   15.4730 O.co2 401  SIA401     -0.2430
     14  O1B       26.6310  -16.9140   16.3530 O.co2 401  SIA401     -0.2430
     15  O4        25.7300  -18.8110   11.2800 O.3   401  SIA401     -0.2211
     16  O6        28.0470  -18.6570   14.7450 O.3   401  SIA401     -0.3429
     17  O7        30.4490  -19.0490   13.3730 O.3   401  SIA401     -0.2176
     18  O8        32.0490  -16.6710   14.2340 O.3   401  SIA401     -0.2175
     19  O9        29.7890  -17.2930   16.8430 O.3   401  SIA401     -0.2175
     20  O10       29.1080  -18.4020    9.9290 O.2   401  SIA401     -0.2733
@<TRIPOS>BOND
     1    11    10    1
     2    20    10    2
     3    10    12   am
     4    15     4    1
     5    12     5    1
     6     5     4    1
     7     5     6    1
     8     4     3    1
     9    17     7    1
    10     7     6    1
    11     7     8    1
    12     3     2    1
    13     6    16    1
    14    18     8    1
    15     8     9    1
    16    16     2    1
    17     2     1    1
    18    13     1   ar
    19     1    14   ar
    20     9    19    1
