@<TRIPOS>MOLECULE
4fmi_SIA_A_1.pdb
 20 20 0 0 0
SMALL
GASTEIGER

@<TRIPOS>ATOM
      1  C1        25.2110    9.2230   22.1920 C.2   401  SIA401      0.3914
      2  C2        26.6100    9.7280   21.8090 C.3   401  SIA401      0.2203
      3  C3        26.8170    9.6340   20.2740 C.3   401  SIA401      0.0760
      4  C4        25.9630   10.6530   19.4960 C.3   401  SIA401      0.1773
      5  C5        26.1390   12.0600   20.0620 C.3   401  SIA401      0.1552
      6  C6        25.9010   12.0260   21.5790 C.3   401  SIA401      0.1710
      7  C7        26.0120   13.3680   22.2880 C.3   401  SIA401      0.2134
      8  C8        25.9770   13.1510   23.7980 C.3   401  SIA401      0.2173
      9  C9        25.9240   14.4910   24.5070 C.3   401  SIA401      0.2175
     10  C10       25.7740   13.9820   18.5850 C.2   401  SIA401      0.2420
     11  C11       24.7600   14.8910   17.9570 C.3   401  SIA401      0.0964
     12  N5        25.2820   13.0230   19.3770 N.am  401  SIA401     -0.2020
     13  O1A       24.6730    8.3020   21.5210 O.co2 401  SIA401     -0.2430
     14  O1B       24.6400    9.7380   23.1880 O.co2 401  SIA401     -0.2430
     15  O4        26.2780   10.6680   18.0960 O.3   401  SIA401     -0.2211
     16  O6        26.8120   11.0960   22.2080 O.3   401  SIA401     -0.3429
     17  O7        27.2150   14.0670   21.9230 O.3   401  SIA401     -0.2176
     18  O8        24.8190   12.3860   24.1700 O.3   401  SIA401     -0.2175
     19  O9        24.7150   15.1520   24.1160 O.3   401  SIA401     -0.2175
     20  O10       26.9730   14.1240   18.3750 O.2   401  SIA401     -0.2733
@<TRIPOS>BOND
     1    11    10    1
     2    15     4    1
     3    20    10    2
     4    10    12   am
     5    12     5    1
     6     4     5    1
     7     4     3    1
     8     5     6    1
     9     3     2    1
    10    13     1   ar
    11     6    16    1
    12     6     7    1
    13     2     1    1
    14     2    16    1
    15    17     7    1
    16     1    14   ar
    17     7     8    1
    18     8    18    1
    19     8     9    1
    20    19     9    1
