@<TRIPOS>MOLECULE
4fmj_SIA_H_1.pdb
 21 21 0 0 0
SMALL
GASTEIGER

@<TRIPOS>ATOM
      1  C1        59.9580   16.9880  108.5200 C.2   401  SIA401      0.4179
      2  C2        58.5880   17.6560  108.4740 C.3   401  SIA401      0.3155
      3  C3        58.4360   18.7180  109.5780 C.3   401  SIA401      0.1056
      4  C4        59.1800   20.0300  109.2890 C.3   401  SIA401      0.1798
      5  C5        58.9490   20.5480  107.8630 C.3   401  SIA401      0.1554
      6  C6        59.1360   19.4050  106.8570 C.3   401  SIA401      0.1734
      7  C7        58.8660   19.7990  105.3980 C.3   401  SIA401      0.2135
      8  C8        58.8830   18.5850  104.4600 C.3   401  SIA401      0.2173
      9  C9        58.8090   18.9890  102.9870 C.3   401  SIA401      0.2175
     10  C10       59.5310   22.8650  107.1660 C.2   401  SIA401      0.2420
     11  C11       60.6710   23.7750  106.8330 C.3   401  SIA401      0.0964
     12  N5        59.8750   21.6220  107.5160 N.am  401  SIA401     -0.2020
     13  O1A       60.5580   16.7480  107.4470 O.co2 401  SIA401     -0.2401
     14  O1B       60.4510   16.6720  109.6300 O.co2 401  SIA401     -0.2401
     15  O2        57.6090   16.6200  108.6550 O.3   401  SIA401     -0.1830
     16  O4        58.7890   21.0210  110.2530 O.3   401  SIA401     -0.2210
     17  O6        58.3230   18.2730  107.2030 O.3   401  SIA401     -0.3220
     18  O7        57.5960   20.4570  105.3170 O.3   401  SIA401     -0.2176
     19  O8        60.0540   17.7810  104.6840 O.3   401  SIA401     -0.2175
     20  O9        60.1270   19.1890  102.4540 O.3   401  SIA401     -0.2175
     21  O10       58.3790   23.2590  107.1200 O.2   401  SIA401     -0.2733
@<TRIPOS>BOND
     1    20     9    1
     2     9     8    1
     3     8    19    1
     4     8     7    1
     5    18     7    1
     6     7     6    1
     7    11    10    1
     8     6    17    1
     9     6     5    1
    10    21    10    2
    11    10    12   am
    12    17     2    1
    13    13     1   ar
    14    12     5    1
    15     5     4    1
    16     2     1    1
    17     2    15    1
    18     2     3    1
    19     1    14   ar
    20     4     3    1
    21     4    16    1
