@<TRIPOS>MOLECULE
4fmq_ANP_A_1.pdb
 31 33 0 0 0
SMALL
GASTEIGER

@<TRIPOS>ATOM
      1  PG        -8.8760   -4.7610   19.5680 P.3   401  ANP401      0.4884
      2  O1G       -8.4300   -3.3470   19.8730 O.2   401  ANP401     -0.2331
      3  O2G      -10.3420   -4.9920   20.0940 O.3   401  ANP401     -0.1240
      4  O3G       -7.9040   -5.8280   20.2920 O.3   401  ANP401     -0.1240
      5  PB        -9.6610   -3.9090   16.9920 P.3   401  ANP401      0.4669
      6  O1B       -8.8190   -4.1880   15.6650 O.2   401  ANP401     -0.2351
      7  O2B       -9.7660   -2.4320   17.5380 O.3   401  ANP401     -0.1253
      8  N3B       -8.8280   -5.1190   17.9450 N.3   401  ANP401     -0.0163
      9  PA       -11.6630   -5.9520   16.9910 P.3   401  ANP401      0.2220
     10  O1A      -11.1980   -6.4460   18.3840 O.3   401  ANP401     -0.4370
     11  O2A      -11.4130   -6.9990   15.9430 O.2   401  ANP401     -0.5170
     12  O3A      -10.9980   -4.6140   16.4860 O.3   401  ANP401     -0.2360
     13  O5'      -13.2090   -5.6530   16.9870 O.3   401  ANP401     -0.3111
     14  C5'      -13.7430   -4.7710   17.9600 C.3   401  ANP401      0.1813
     15  C4'      -15.1040   -5.0240   18.4370 C.3   401  ANP401      0.1821
     16  O4'      -15.9890   -5.0000   17.3730 O.3   401  ANP401     -0.3135
     17  C3'      -15.1740   -6.3960   18.9860 C.3   401  ANP401      0.2184
     18  O3'      -14.8380   -6.4610   20.3300 O.3   401  ANP401     -0.2174
     19  C2'      -16.5080   -6.8130   18.7220 C.3   401  ANP401      0.2570
     20  O2'      -17.3790   -6.3610   19.7010 O.3   401  ANP401     -0.2130
     21  C1'      -16.8090   -6.1660   17.4420 C.3   401  ANP401      0.3186
     22  N9       -16.6520   -7.0360   16.2510 N.pl3 401  ANP401     -0.1439
     23  C8       -15.5140   -7.2730   15.5660 C.3   401  ANP401      0.3377
     24  N7       -15.7800   -8.1200   14.5640 N.2   401  ANP401     -0.2095
     25  C5       -17.0960   -8.4380   14.6040 C.2   401  ANP401      0.2526
     26  C6       -17.9320   -9.2560   13.8300 C.2   401  ANP401      0.4393
     27  N6       -17.3870   -9.9810   12.7130 N.pl3 401  ANP401      0.2180
     28  N1       -19.2340   -9.3660   14.1320 N.2   401  ANP401      0.0021
     29  C2       -19.7410   -8.6920   15.1710 C.3   401  ANP401      0.5254
     30  N3       -18.9780   -7.8940   15.9400 N.2   401  ANP401     -0.0055
     31  C4       -17.6570   -7.7500   15.6780 C.2   401  ANP401      0.3518
@<TRIPOS>BOND
     1    27    26    1
     2    26    28    2
     3    26    25    1
     4    28    29    1
     5    24    25    2
     6    24    23    1
     7    25    31    1
     8    29    30    1
     9    23    22    1
    10     6     5    2
    11    31    30    2
    12    31    22    1
    13    11     9    2
    14    22    21    1
    15    12     9    1
    16    12     5    1
    17    13     9    1
    18    13    14    1
    19     9    10    1
    20     5     7    1
    21     5     8    1
    22    16    21    1
    23    16    15    1
    24    21    19    1
    25     8     1    1
    26    14    15    1
    27    15    17    1
    28    19    17    1
    29    19    20    1
    30    17    18    1
    31     1     2    2
    32     1     3    1
    33     1     4    1
