@<TRIPOS>MOLECULE
4fmu_0UM_A_1.pdb
 30 32 0 0 0
SMALL
GASTEIGER

@<TRIPOS>ATOM
      1  C4        -1.1980   31.2530   18.2360 C.2   1804  0UM1804     0.3518
      2  C5         0.1390   31.1310   18.1530 C.2   1804  0UM1804     0.2526
      3  C6         0.9210   32.2130   18.3790 C.2   1804  0UM1804     0.4393
      4  C8        -0.7370   29.2000   17.6990 C.3   1804  0UM1804     0.3377
      5  N1         0.3880   33.4150   18.6430 N.2   1804  0UM1804     0.0021
      6  N3        -1.7990   32.4360   18.5550 N.2   1804  0UM1804    -0.0055
      7  O         -5.9570   25.9460   21.8640 O.co2 1804  0UM1804    -0.2441
      8  C         -5.7800   25.4600   20.7410 C.2   1804  0UM1804     0.3819
      9  CA        -4.5970   26.0170   19.8890 C.3   1804  0UM1804     0.1944
     10  N         -3.6480   26.8240   20.6790 N.3   1804  0UM1804    -0.1208
     11  CB        -3.8610   24.8700   19.2060 C.3   1804  0UM1804     0.0320
     12  CAM       -2.9560   25.3050   18.0360 C.3   1804  0UM1804     0.0195
     13  CAY       -3.7340   25.5250   16.7020 C.3   1804  0UM1804     0.0753
     14  NAR       -3.5760   24.3600   15.8090 N.3   1804  0UM1804    -0.2194
     15  CAK       -2.2940   24.2010   15.0770 C.3   1804  0UM1804     0.0886
     16  CAJ       -2.3790   22.9280   14.2270 C.3   1804  0UM1804     0.0188
     17  CAA       -1.1180   22.7260   13.3880 C.3   1804  0UM1804     0.0015
     18  CAN       -3.3110   26.8450   15.9670 C.3   1804  0UM1804     0.0498
     19  CBB       -3.9730   28.0880   16.5540 C.3   1804  0UM1804     0.1537
     20  OAS       -3.3880   28.3950   17.8390 O.3   1804  0UM1804    -0.3161
     21  CAZ       -3.6860   29.2800   15.6640 C.3   1804  0UM1804     0.2159
     22  OAF       -4.7150   29.3510   14.7190 O.3   1804  0UM1804    -0.2175
     23  CBA       -3.7840   30.4310   16.6450 C.3   1804  0UM1804     0.2569
     24  OAG       -5.1400   30.7550   16.8870 O.3   1804  0UM1804    -0.2130
     25  CBC       -3.1830   29.8210   17.9410 C.3   1804  0UM1804     0.3185
     26  N9        -1.7210   30.0490   18.0160 N.pl3 1804  0UM1804    -0.1439
     27  N7         0.4080   29.8600   17.8120 N.2   1804  0UM1804    -0.2095
     28  C2        -0.9990   33.5510   18.7760 C.3   1804  0UM1804     0.5254
     29  N6         2.2420   32.0820   18.2570 N.pl3 1804  0UM1804     0.2180
     30  OXT       -6.5570   24.6200   20.2260 O.co2 1804  0UM1804    -0.2441
@<TRIPOS>BOND
     1    17    16    1
     2    16    15    1
     3    22    21    1
     4    15    14    1
     5    21    19    1
     6    21    23    1
     7    14    13    1
     8    18    19    1
     9    18    13    1
    10    19    20    1
    11    23    24    1
    12    23    25    1
    13    13    12    1
    14     4    27    1
    15     4    26    1
    16    27     2    2
    17    20    25    1
    18    25    26    1
    19    26     1    1
    20    12    11    1
    21     2     1    1
    22     2     3    1
    23     1     6    2
    24    29     3    1
    25     3     5    2
    26     6    28    1
    27     5    28    1
    28    11     9    1
    29     9    10    1
    30     9     8    1
    31    30     8   ar
    32     8     7   ar
