@<TRIPOS>MOLECULE
4fmw_SAH_A_1.pdb
 26 28 0 0 0
SMALL
GASTEIGER

@<TRIPOS>ATOM
      1  N         11.3440   22.1050   58.9740 N.3   301  SAH301     -0.1208
      2  CA        11.5530   21.6190   57.6110 C.3   301  SAH301      0.1952
      3  CB        10.2240   21.3730   56.8160 C.3   301  SAH301      0.0422
      4  CG        10.2030   20.0430   56.0710 C.3   301  SAH301      0.0597
      5  SD         8.7960   20.1380   54.9180 S.3   301  SAH301     -0.1375
      6  C         12.4760   22.5900   56.8260 C.2   301  SAH301      0.3819
      7  O         12.2450   22.8730   55.6340 O.co2 301  SAH301     -0.2441
      8  OXT       13.4780   23.0610   57.5160 O.co2 301  SAH301     -0.2441
      9  C5'        9.4730   19.4370   53.3880 C.3   301  SAH301      0.0899
     10  C4'        9.9700   20.4860   52.4120 C.3   301  SAH301      0.1630
     11  O4'        8.9100   21.1470   51.6910 O.3   301  SAH301     -0.3153
     12  C3'       10.8110   21.6190   52.9840 C.3   301  SAH301      0.2168
     13  O3'       12.1360   21.2010   53.2870 O.3   301  SAH301     -0.2175
     14  C2'       10.7400   22.6680   51.8760 C.3   301  SAH301      0.2569
     15  O2'       11.7170   22.4590   50.8590 O.3   301  SAH301     -0.2130
     16  C1'        9.3200   22.4590   51.3300 C.3   301  SAH301      0.3185
     17  N9         8.3340   23.4190   51.8290 N.pl3 301  SAH301     -0.1439
     18  C8         7.4060   23.2150   52.8180 C.3   301  SAH301      0.3377
     19  N7         6.6160   24.2390   53.0290 N.2   301  SAH301     -0.2095
     20  C5         7.0540   25.1870   52.1170 C.2   301  SAH301      0.2526
     21  C6         6.6220   26.4990   51.8270 C.2   301  SAH301      0.4393
     22  N6         5.6040   27.0990   52.4460 N.pl3 301  SAH301      0.2180
     23  N1         7.2820   27.1790   50.8600 N.2   301  SAH301      0.0021
     24  C2         8.3010   26.5810   50.2300 C.3   301  SAH301      0.5254
     25  N3         8.7920   25.3500   50.4130 N.2   301  SAH301     -0.0055
     26  C4         8.1180   24.6980   51.3760 C.2   301  SAH301      0.3518
@<TRIPOS>BOND
     1    24    25    1
     2    24    23    1
     3    25    26    2
     4    15    14    1
     5    23    21    2
     6    16    11    1
     7    16    17    1
     8    16    14    1
     9    26    17    1
    10    26    20    1
    11    11    10    1
    12    21    20    1
    13    21    22    1
    14    17    18    1
    15    14    12    1
    16    20    19    2
    17    10    12    1
    18    10     9    1
    19    18    19    1
    20    12    13    1
    21     9     5    1
    22     5     4    1
    23     7     6   ar
    24     4     3    1
    25     3     2    1
    26     6     8   ar
    27     6     2    1
    28     2     1    1
