@<TRIPOS>MOLECULE
4fmx_HEM_A_1.pdb
 49 56 0 0 0
SMALL
GASTEIGER

@<TRIPOS>ATOM
      1  CHA        3.8910    4.7390   52.6900 C.2   501  HEM501      0.0000
      2  CHB        5.2580    1.3630   49.4720 C.2   501  HEM501      0.0000
      3  CHC        7.4060    4.8330   46.8050 C.2   501  HEM501      0.0000
      4  CHD        6.4840    8.1530   50.2500 C.2   501  HEM501      0.0000
      5  C1A        4.0230    3.5280   52.0480 C.ar  501  HEM501      0.0000
      6  C2A        3.4650    2.2500   52.4800 C.ar  501  HEM501      0.0000
      7  C3A        3.8570    1.3300   51.5770 C.ar  501  HEM501      0.0000
      8  C4A        4.6650    1.9780   50.5650 C.ar  501  HEM501      0.0000
      9  CMA        3.5360   -0.1850   51.5870 C.3   501  HEM501      0.0000
     10  CAA        2.5650    1.9850   53.7240 C.3   501  HEM501      0.0000
     11  CBA        3.2680    2.2550   55.0410 C.3   501  HEM501      0.0000
     12  CGA        2.5530    1.6340   56.2240 C.2   501  HEM501      0.0000
     13  O1A        1.4550    1.0370   56.0940 O.co2 501  HEM501      0.0000
     14  O2A        3.0930    1.7560   57.3520 O.co2 501  HEM501      0.0000
     15  C1B        5.9210    2.0070   48.4450 C.2   501  HEM501      0.0000
     16  C2B        6.3190    1.4260   47.1850 C.2   501  HEM501      0.0000
     17  C3B        6.9310    2.3720   46.4570 C.2   501  HEM501      0.0000
     18  C4B        6.8920    3.6110   47.2090 C.2   501  HEM501      0.0000
     19  CMB        6.0910   -0.0540   46.8320 C.3   501  HEM501      0.0000
     20  CAB        7.5320    2.2800   45.0310 C.2   501  HEM501      0.0000
     21  CBB        7.2030    1.3340   44.1420 C.2   501  HEM501      0.0000
     22  C1C        7.3190    6.0470   47.4770 C.ar  501  HEM501      0.0000
     23  C2C        7.7690    7.3420   46.9950 C.ar  501  HEM501      0.0000
     24  C3C        7.5200    8.2600   47.9380 C.ar  501  HEM501      0.0000
     25  C4C        6.9020    7.5870   49.0600 C.ar  501  HEM501      0.0000
     26  CMC        8.4180    7.5780   45.6240 C.3   501  HEM501      0.0000
     27  CAC        7.7920    9.7840   47.9280 C.2   501  HEM501      0.0000
     28  CBC        8.2820   10.4940   46.9070 C.2   501  HEM501      0.0000
     29  C1D        5.7480    7.5200   51.2320 C.2   501  HEM501      0.0000
     30  C2D        5.3320    8.1360   52.4620 C.2   501  HEM501      0.0000
     31  C3D        4.5360    7.0850   53.2070 C.2   501  HEM501      0.0000
     32  C4D        4.5270    5.9120   52.3620 C.2   501  HEM501      0.0000
     33  CMD        5.6150    9.5690   52.9490 C.3   501  HEM501      0.0000
     34  CAD        3.8750    7.2770   54.5770 C.3   501  HEM501      0.0000
     35  CBD        2.4850    7.8400   54.3140 C.3   501  HEM501      0.0000
     36  CGD        1.7500    8.0710   55.5980 C.2   501  HEM501      0.0000
     37  O1D        0.6190    8.6300   55.5370 O.co2 501  HEM501      0.0000
     38  O2D        2.2750    7.6550   56.6620 O.co2 501  HEM501      0.0000
     39  NA         4.7410    3.3260   50.8860 N.ar  501  HEM501      0.0000
     40  NB         6.2850    3.3460   48.4180 N.2   501  HEM501      0.0000
     41  NC         6.7890    6.2460   48.7340 N.ar  501  HEM501      0.0000
     42  ND         5.2590    6.2010   51.2070 N.2   501  HEM501      0.0000
     43 FE          5.4980    4.8250   49.6490 Fe    501  HEM501      0.0000
     44  HHB        5.2830    0.3830   49.4720 H     501  HEM501      0.0000
     45  HHC        7.8840    4.8420   45.9490 H     501  HEM501      0.0000
     46  HHD        6.7960    9.0620   50.4440 H     501  HEM501      0.0000
     47  HAB        8.1770    2.9410   44.7690 H     501  HEM501      0.0000
     48  HAC        7.5890   10.2660   48.7330 H     501  HEM501      0.0000
     49  HHA        3.2830    4.7670   53.4580 H     501  HEM501      0.0000
@<TRIPOS>BOND
     1    21    20    2
     2    47    20    1
     3    20    17    1
     4    26    23    1
     5    45     3    1
     6    17    16    2
     7    17    18    1
     8     3    18    2
     9     3    22    1
    10    19    16    1
    11    28    27    2
    12    23    22   ar
    13    23    24   ar
    14    16    15    1
    15    18    40    1
    16    22    41   ar
    17    27    24    1
    18    27    48    1
    19    24    25   ar
    20    40    15    2
    21    40    43    1
    22    15     2    1
    23    41    25   ar
    24    41    43    1
    25    25     4    1
    26    44     2    1
    27     2     8    2
    28    43    39    1
    29    43    42    1
    30     4    46    1
    31     4    29    2
    32     8    39   ar
    33     8     7   ar
    34    39     5   ar
    35    42    29    1
    36    42    32    2
    37    29    30    1
    38     7     9    1
    39     7     6   ar
    40     5     6   ar
    41     5     1    2
    42    32     1    1
    43    32    31    1
    44    30    33    1
    45    30    31    2
    46     6    10    1
    47     1    49    1
    48    31    34    1
    49    10    11    1
    50    35    34    1
    51    35    36    1
    52    11    12    1
    53    37    36   ar
    54    36    38   ar
    55    13    12   ar
    56    12    14   ar
