@<TRIPOS>MOLECULE
4fmx_CNL_A_1.pdb
 11 12 0 0 0
SMALL
GASTEIGER

@<TRIPOS>ATOM
      1  C1         9.1340    4.0370   53.4220 C.3   502  CNL502      0.0926
      2  C2         7.7890    4.3000   54.0280 C.3   502  CNL502      0.0273
      3  C3         7.4260    3.3560   55.0990 C.3   502  CNL502      0.0047
      4  C4         8.3860    2.2200   55.1370 C.3   502  CNL502      0.0251
      5  C5         9.7120    2.7060   55.3810 C.3   502  CNL502      0.0047
      6  C6        10.1580    3.8060   54.4770 C.3   502  CNL502      0.0273
      7  C7         9.4750    5.0660   52.4120 C.3   502  CNL502      0.0296
      8  C8         8.3700    1.6670   53.7250 C.3   502  CNL502      0.0926
      9  C9         6.9730    1.3860   53.2710 C.3   502  CNL502      0.0296
     10  C10        9.1450    0.3920   53.5530 C.3   502  CNL502      0.0296
     11  O          8.9770    2.7500   52.7700 O.3   502  CNL502     -0.3633
@<TRIPOS>BOND
     1     7     1    1
     2    11     1    1
     3    11     8    1
     4     9     8    1
     5     1     2    1
     6     1     6    1
     7    10     8    1
     8     8     4    1
     9     2     3    1
    10     6     5    1
    11     3     4    1
    12     4     5    1
