@<TRIPOS>MOLECULE
4fn2_854_A_1.pdb
 21 22 0 0 0
SMALL
GASTEIGER

@<TRIPOS>ATOM
      1  O3        22.6780    6.8920   72.9030 O.2   300  854300     -0.1569
      2  S         22.4260    5.9020   73.8650 S.O2  300  854300      0.0485
      3  O2        21.1940    5.2970   73.6710 O.2   300  854300     -0.1569
      4  N         23.5440    4.8030   73.7850 N.3   300  854300     -0.1497
      5  C7        24.9510    5.2400   73.6970 C.3   300  854300      0.0960
      6  C6        25.7650    4.2580   72.8650 C.3   300  854300      0.0192
      7  C5        25.4020    2.7800   72.9720 C.3   300  854300      0.0035
      8  C4        23.9100    2.6150   72.9460 C.3   300  854300      0.0291
      9  C3        23.2300    3.3990   74.0440 C.3   300  854300      0.1775
     10  C2        23.7190    2.8540   75.3500 C.2   300  854300      0.3332
     11  O1        23.5940    1.6450   75.6200 O.2   300  854300     -0.2485
     12  O         24.3190    3.7080   76.3120 O.3   300  854300     -0.4475
     13  C1        24.9030    3.0900   77.4900 C.3   300  854300      0.2086
     14  C         26.0830    3.9190   77.9780 C.3   300  854300      0.0513
     15  C8        22.4320    6.6500   75.3630 C.3   300  854300      0.1955
     16  C9        21.4460    7.8210   75.4450 C.ar  300  854300      0.0029
     17  C14       20.0710    7.6300   75.6780 C.ar  300  854300     -0.0025
     18  C13       19.1980    8.7160   75.7810 C.ar  300  854300     -0.0003
     19  C12       19.6550    9.9910   75.6280 C.ar  300  854300     -0.0000
     20  C11       21.0030   10.1710   75.3680 C.ar  300  854300     -0.0003
     21  C10       21.8830    9.0970   75.2730 C.ar  300  854300     -0.0025
@<TRIPOS>BOND
     1     6     7    1
     2     6     5    1
     3     1     2    2
     4     8     7    1
     5     8     9    1
     6     3     2    2
     7     5     4    1
     8     4     2    1
     9     4     9    1
    10     2    15    1
    11     9    10    1
    12    21    20   ar
    13    21    16   ar
    14    10    11    2
    15    10    12    1
    16    15    16    1
    17    20    19   ar
    18    16    17   ar
    19    19    18   ar
    20    17    18   ar
    21    12    13    1
    22    13    14    1
