@<TRIPOS>MOLECULE
4fn4_NAD_A_1.pdb
 44 48 0 0 0
SMALL
GASTEIGER

@<TRIPOS>ATOM
      1  PA        44.9480   51.4060    7.0610 P.3   501  NAD501      0.2189
      2  O1A       44.5260   51.4490    5.6370 O.2   501  NAD501     -0.5170
      3  O2A       46.0790   50.5110    7.4670 O.3   501  NAD501     -0.4371
      4  O5B       45.2380   52.9040    7.4920 O.3   501  NAD501     -0.3112
      5  C5B       45.7070   53.1970    8.8370 C.3   501  NAD501      0.1813
      6  C4B       46.8200   54.2050    8.7330 C.3   501  NAD501      0.1821
      7  O4B       47.2360   54.3800   10.1400 O.3   501  NAD501     -0.3135
      8  C3B       48.0790   53.6830    7.9740 C.3   501  NAD501      0.2184
      9  O3B       48.4470   54.6390    6.9330 O.3   501  NAD501     -0.2174
     10  C2B       49.1410   53.5160    9.0160 C.3   501  NAD501      0.2570
     11  O2B       50.4760   53.6440    8.6510 O.3   501  NAD501     -0.2130
     12  C1B       48.6400   54.4810   10.1170 C.3   501  NAD501      0.3186
     13  N9A       49.1600   54.0450   11.3900 N.pl3 501  NAD501     -0.1439
     14  C8A       49.2420   52.7940   12.0030 C.3   501  NAD501      0.3377
     15  N7A       49.8170   52.8200   13.1850 N.2   501  NAD501     -0.2095
     16  C5A       50.1480   54.0960   13.4250 C.2   501  NAD501      0.2526
     17  C6A       50.8110   54.7560   14.5430 C.2   501  NAD501      0.4393
     18  N6A       51.2320   54.0960   15.6030 N.pl3 501  NAD501      0.2180
     19  N1A       50.9630   56.1290   14.3960 N.2   501  NAD501      0.0021
     20  C2A       50.5640   56.8630   13.3420 C.3   501  NAD501      0.5254
     21  N3A       49.9340   56.2840   12.2410 N.2   501  NAD501     -0.0055
     22  C4A       49.7450   54.8930   12.3240 C.2   501  NAD501      0.3518
     23  O3        43.7260   51.0260    8.0190 O.3   501  NAD501     -0.2703
     24  PN        42.1440   51.4520    8.0190 P.3   501  NAD501      0.2189
     25  O1N       41.4270   50.2160    7.6940 O.3   501  NAD501     -0.4371
     26  O2N       42.0280   52.6860    7.1820 O.2   501  NAD501     -0.5170
     27  O5D       41.7430   51.7040    9.5200 O.3   501  NAD501     -0.3112
     28  C5D       42.0550   52.8410   10.2990 C.3   501  NAD501      0.1813
     29  C4D       41.1200   52.7070   11.4630 C.3   501  NAD501      0.1799
     30  O4D       39.8310   51.9870   11.0460 O.3   501  NAD501     -0.3327
     31  C3D       41.7010   51.8040   12.5860 C.3   501  NAD501      0.2158
     32  O3D       41.4170   52.3540   13.8740 O.3   501  NAD501     -0.2175
     33  C2D       40.9890   50.4490   12.3860 C.3   501  NAD501      0.2309
     34  O2D       41.0540   49.6410   13.5270 O.3   501  NAD501     -0.2158
     35  C1D       39.5560   50.9280   12.0000 C.3   501  NAD501      0.2263
     36  N1N       38.6680   49.8520   11.4010 N.pl3 501  NAD501     -0.2787
     37  C2N       38.9830   49.3010   10.1130 C.3   501  NAD501      0.1244
     38  C3N       38.2170   48.3420    9.5550 C.2   501  NAD501      0.0544
     39  C7N       38.5500   47.7740    8.2070 C.2   501  NAD501      0.2818
     40  O7N       37.9940   46.7040    7.8710 O.2   501  NAD501     -0.2670
     41  N7N       39.4080   48.4210    7.4110 N.am  501  NAD501     -0.0839
     42  C4N       36.9660   47.7690   10.2380 C.2   501  NAD501      0.0033
     43  C5N       36.6740   48.3830   11.5900 C.2   501  NAD501      0.0157
     44  C6N       37.5250   49.3900   12.1180 C.2   501  NAD501      0.0633
@<TRIPOS>BOND
     1     2     1    2
     2     9     8    1
     3     1     3    1
     4     1     4    1
     5     1    23    1
     6    26    24    2
     7    41    39   am
     8     4     5    1
     9    25    24    1
    10    40    39    2
    11     8     6    1
    12     8    10    1
    13    23    24    1
    14    24    27    1
    15    39    38    1
    16    11    10    1
    17     6     5    1
    18     6     7    1
    19    10    12    1
    20    27    28    1
    21    38    37    1
    22    38    42    2
    23    37    36    1
    24    12     7    1
    25    12    13    1
    26    42    43    1
    27    28    29    1
    28    30    29    1
    29    30    35    1
    30    13    14    1
    31    13    22    1
    32    36    35    1
    33    36    44    1
    34    29    31    1
    35    43    44    2
    36    35    33    1
    37    14    15    1
    38    21    22    2
    39    21    20    1
    40    22    16    1
    41    33    31    1
    42    33    34    1
    43    31    32    1
    44    15    16    2
    45    20    19    1
    46    16    17    1
    47    19    17    2
    48    17    18    1
