@<TRIPOS>MOLECULE
4fn9_STR_A_1.pdb
 23 26 0 0 0
SMALL
GASTEIGER

@<TRIPOS>ATOM
      1  C1       -21.1960   28.3880  -15.7420 C.3   301  STR301      0.0078
      2  C2       -22.0250   28.9550  -14.6350 C.3   301  STR301      0.0645
      3  C3       -22.5400   27.9430  -13.6570 C.2   301  STR301      0.1506
      4  O3       -22.7660   28.2510  -12.4780 O.2   301  STR301     -0.2961
      5  C4       -22.7920   26.5580  -14.1520 C.3   301  STR301      0.0645
      6  C5       -22.7070   26.3660  -15.6290 C.3   301  STR301      0.0073
      7  C6       -23.0370   25.0420  -16.2570 C.3   301  STR301      0.0004
      8  C7       -23.5160   25.2330  -17.6750 C.3   301  STR301      0.0000
      9  C8       -22.5790   26.1220  -18.5180 C.3   301  STR301      0.0000
     10  C9       -22.2210   27.4180  -17.8160 C.3   301  STR301      0.0000
     11  C10      -21.6920   27.1300  -16.4080 C.3   301  STR301      0.0008
     12  C11      -21.2620   28.2760  -18.6770 C.3   301  STR301      0.0000
     13  C12      -21.7660   28.4830  -20.0970 C.3   301  STR301      0.0004
     14  C13      -22.2120   27.1680  -20.8250 C.3   301  STR301      0.0065
     15  C14      -23.1270   26.3400  -19.9760 C.3   301  STR301      0.0004
     16  C15      -23.4610   25.1200  -20.7960 C.3   301  STR301      0.0004
     17  C16      -23.1760   25.4960  -22.2250 C.3   301  STR301      0.0073
     18  C17      -22.7660   27.0130  -22.1980 C.3   301  STR301      0.0576
     19  C18      -20.8800   26.5960  -20.9240 C.3   301  STR301      0.0004
     20  C19      -20.4040   26.3370  -16.4600 C.3   301  STR301      0.0000
     21  C20      -21.9290   27.4480  -23.4470 C.2   301  STR301      0.1507
     22  O20      -21.2680   26.6230  -24.0440 O.2   301  STR301     -0.2961
     23  C21      -21.9390   28.9060  -23.9450 C.3   301  STR301      0.0722
@<TRIPOS>BOND
     1    22    21    2
     2    23    21    1
     3    21    18    1
     4    17    18    1
     5    17    16    1
     6    18    14    1
     7    19    14    1
     8    14    13    1
     9    14    15    1
    10    16    15    1
    11    13    12    1
    12    15     9    1
    13    12    10    1
    14     9    10    1
    15     9     8    1
    16    10    11    1
    17     8     7    1
    18    20    11    1
    19    11     1    1
    20    11     6    1
    21     7     6    1
    22     1     2    1
    23     6     5    1
    24     2     3    1
    25     5     3    1
    26     3     4    2
