@<TRIPOS>MOLECULE
4fnc_HMU_A_1.pdb
 10 10 0 0 0
SMALL
GASTEIGER

@<TRIPOS>ATOM
      1  N1       161.0090  -67.6750  350.9960 N.2   401  HMU401     -0.1700
      2  C2       160.5570  -67.7240  349.6110 C.1   401  HMU401      0.3068
      3  O2       160.3140  -66.6640  349.0340 O.2   401  HMU401     -0.1881
      4  N3       160.3940  -69.0050  348.9250 N.2   401  HMU401     -0.2427
      5  C4       160.6780  -70.2280  349.6070 C.1   401  HMU401      0.2176
      6  O3       162.0330  -71.3700  352.9780 O.2   401  HMU401     -0.2826
      7  O4       160.5370  -71.2960  349.0300 O.2   401  HMU401     -0.2087
      8  C5       161.1380  -70.1880  351.0050 C.2   401  HMU401      0.1405
      9  CM5      161.4450  -71.4570  351.7330 C.2   401  HMU401      0.2445
     10  C6       161.2990  -68.8940  351.6840 C.3   401  HMU401      0.1827
@<TRIPOS>BOND
     1     4     5    2
     2     4     2    2
     3     7     5    2
     4     3     2    2
     5     5     8    1
     6     2     1    2
     7     1    10    1
     8     8    10    1
     9     8     9    2
    10     9     6    1
