@<TRIPOS>MOLECULE
4fne_1CA_A_1.pdb
 24 27 0 0 0
SMALL
GASTEIGER

@<TRIPOS>ATOM
      1  C1         7.8600   28.1280   15.8270 C.3   301  1CA301      0.0078
      2  C2         8.0410   28.2640   14.3350 C.3   301  1CA301      0.0645
      3  C3         8.9470   27.5260   13.6760 C.2   301  1CA301      0.1506
      4  C4         9.2890   26.3170   14.1530 C.3   301  1CA301      0.0645
      5  C5         9.1810   26.0190   15.4640 C.3   301  1CA301      0.0073
      6  C6         9.9630   25.0280   15.9410 C.3   301  1CA301      0.0004
      7  C7        10.2330   24.8480   17.4200 C.3   301  1CA301      0.0000
      8  C8         9.1390   25.4940   18.2480 C.3   301  1CA301      0.0000
      9  C9         8.8850   26.9000   17.7080 C.3   301  1CA301      0.0000
     10  C10        8.1900   26.7400   16.3690 C.3   301  1CA301      0.0008
     11  C11        8.1460   27.8470   18.6830 C.3   301  1CA301      0.0000
     12  C12        8.6710   27.7910   20.1310 C.3   301  1CA301      0.0004
     13  C13        8.6490   26.3540   20.6310 C.3   301  1CA301      0.0066
     14  C14        9.5620   25.5570   19.7050 C.3   301  1CA301      0.0004
     15  C15        9.7540   24.2190   20.3920 C.3   301  1CA301      0.0004
     16  C16        9.9350   24.6530   21.8360 C.3   301  1CA301      0.0074
     17  C17        9.4270   26.0990   21.9300 C.3   301  1CA301      0.0603
     18  C18        7.1920   25.8380   20.6830 C.3   301  1CA301      0.0004
     19  C19        6.9260   25.8710   16.5050 C.3   301  1CA301      0.0000
     20  C20        8.6770   26.2910   23.2350 C.2   301  1CA301      0.1834
     21  C21        8.6170   27.6780   23.8070 C.3   301  1CA301      0.2458
     22  O3         9.4590   27.9540   12.6460 O.2   301  1CA301     -0.2961
     23  O20        8.1220   25.3610   23.8340 O.2   301  1CA301     -0.2933
     24  O21        7.2690   28.1160   23.6080 O.3   301  1CA301     -0.2119
@<TRIPOS>BOND
     1    22     3    2
     2     3     4    1
     3     3     2    1
     4     4     5    1
     5     2     1    1
     6     5     6    1
     7     5    10    1
     8     1    10    1
     9     6     7    1
    10    10    19    1
    11    10     9    1
    12     7     8    1
    13     9     8    1
    14     9    11    1
    15     8    14    1
    16    11    12    1
    17    14    15    1
    18    14    13    1
    19    12    13    1
    20    15    16    1
    21    13    18    1
    22    13    17    1
    23    16    17    1
    24    17    20    1
    25    20    21    1
    26    20    23    2
    27    24    21    1
