@<TRIPOS>MOLECULE
4fnh_HEM_A_1.pdb
 43 50 0 0 0
SMALL
GASTEIGER

@<TRIPOS>ATOM
      1  CHA       12.4980  -18.0680  -13.4660 C.2   200  HEM200      0.0000
      2  CHB       12.7420  -14.0600  -10.7580 C.2   200  HEM200      0.0000
      3  CHC       17.2260  -15.4140   -9.4400 C.2   200  HEM200      0.0000
      4  CHD       17.3450  -17.8010  -13.6810 C.2   200  HEM200      0.0000
      5  C1A       12.1190  -16.9400  -12.7920 C.2   200  HEM200      0.0000
      6  C2A       10.7960  -16.3680  -12.6970 C.2   200  HEM200      0.0000
      7  C3A       10.8790  -15.2490  -11.9540 C.2   200  HEM200      0.0000
      8  C4A       12.2510  -15.0870  -11.5470 C.2   200  HEM200      0.0000
      9  CMA        9.7180  -14.3110  -11.5740 C.3   200  HEM200      0.0000
     10  CAA        9.5130  -16.9810  -13.3050 C.3   200  HEM200      0.0000
     11  CBA        9.1560  -18.0240  -12.2300 C.3   200  HEM200      0.0000
     12  CGA        7.7930  -18.6790  -12.3640 C.2   200  HEM200      0.0000
     13  O1A        7.1460  -18.9220  -11.3080 O.co2 200  HEM200      0.0000
     14  O2A        7.3880  -19.0000  -13.4970 O.co2 200  HEM200      0.0000
     15  C1B       13.9470  -14.1170  -10.0780 C.ar  200  HEM200      0.0000
     16  C2B       14.3220  -13.2930   -8.9580 C.ar  200  HEM200      0.0000
     17  C3B       15.5620  -13.6770   -8.5820 C.ar  200  HEM200      0.0000
     18  C4B       16.0120  -14.7400   -9.4570 C.ar  200  HEM200      0.0000
     19  CMB       13.3990  -12.1970   -8.3580 C.3   200  HEM200      0.0000
     20  CAB       16.3950  -13.0920   -7.4360 C.2   200  HEM200      0.0000
     21  CBB       16.4280  -11.7690   -7.2600 C.2   200  HEM200      0.0000
     22  C1C       17.7110  -16.1050  -10.5400 C.2   200  HEM200      0.0000
     23  C2C       19.0890  -16.4930  -10.8160 C.2   200  HEM200      0.0000
     24  C3C       19.1020  -17.1440  -11.9980 C.2   200  HEM200      0.0000
     25  C4C       17.7460  -17.2070  -12.4960 C.2   200  HEM200      0.0000
     26  CMC       20.3220  -16.1990   -9.9290 C.3   200  HEM200      0.0000
     27  CAC       20.3230  -17.7420  -12.7320 C.2   200  HEM200      0.0000
     28  CBC       21.2920  -18.3680  -12.0600 C.2   200  HEM200      0.0000
     29  C1D       16.0650  -18.1610  -14.0140 C.ar  200  HEM200      0.0000
     30  C2D       15.6860  -19.0160  -15.1200 C.ar  200  HEM200      0.0000
     31  C3D       14.1690  -19.0940  -15.0540 C.ar  200  HEM200      0.0000
     32  C4D       13.7820  -18.2980  -13.9130 C.ar  200  HEM200      0.0000
     33  CMD       16.5830  -19.7010  -16.1770 C.3   200  HEM200      0.0000
     34  CAD       13.2470  -19.8830  -16.0090 C.3   200  HEM200      0.0000
     35  CBD       12.6270  -21.0770  -15.2950 C.3   200  HEM200      0.0000
     36  CGD       13.5380  -22.2790  -15.1790 C.2   200  HEM200      0.0000
     37  O1D       14.6690  -22.2740  -15.7300 O.co2 200  HEM200      0.0000
     38  O2D       13.1020  -23.2670  -14.5320 O.co2 200  HEM200      0.0000
     39  NA        12.9850  -16.1440  -12.0590 N.2   200  HEM200      0.0000
     40  NB        14.9880  -15.0050  -10.3430 N.ar  200  HEM200      0.0000
     41  NC        16.9260  -16.5730  -11.5910 N.2   200  HEM200      0.0000
     42  ND        14.9210  -17.7570  -13.3340 N.ar  200  HEM200      0.0000
     43 FE         14.9340  -16.4250  -11.8030 Fe    200  HEM200      0.0000
@<TRIPOS>BOND
     1    33    30    1
     2    34    35    1
     3    34    31    1
     4    37    36   ar
     5    35    36    1
     6    36    38   ar
     7    30    31   ar
     8    30    29   ar
     9    31    32   ar
    10    29     4    2
    11    29    42   ar
    12    32     1    2
    13    32    42   ar
    14     4    25    1
    15    14    12   ar
    16     1     5    1
    17    42    43    1
    18    10     6    1
    19    10    11    1
    20     5     6    1
    21     5    39    2
    22    27    28    2
    23    27    24    1
    24     6     7    2
    25    25    24    1
    26    25    41    2
    27    12    11    1
    28    12    13   ar
    29    39    43    1
    30    39     8    1
    31    24    23    2
    32     7     9    1
    33     7     8    1
    34    43    41    1
    35    43    40    1
    36    41    22    1
    37     8     2    2
    38    23    22    1
    39    23    26    1
    40     2    15    1
    41    22     3    2
    42    40    15   ar
    43    40    18   ar
    44    15    16   ar
    45    18     3    1
    46    18    17   ar
    47    16    17   ar
    48    16    19    1
    49    17    20    1
    50    20    21    2
