@<TRIPOS>MOLECULE
4fni_HEM_A_1.pdb
 43 50 0 0 0
SMALL
GASTEIGER

@<TRIPOS>ATOM
      1  CHA       10.3300  -28.7890  -13.1220 C.2   201  HEM201      0.0000
      2  CHB       11.0670  -24.6180  -10.8050 C.2   201  HEM201      0.0000
      3  CHC       15.3960  -26.3870   -9.6100 C.2   201  HEM201      0.0000
      4  CHD       15.1910  -28.9890  -13.6750 C.2   201  HEM201      0.0000
      5  C1A       10.0610  -27.5650  -12.5490 C.2   201  HEM201      0.0000
      6  C2A        8.8020  -26.8320  -12.4550 C.2   201  HEM201      0.0000
      7  C3A        9.0260  -25.6780  -11.8000 C.2   201  HEM201      0.0000
      8  C4A       10.4310  -25.6360  -11.4820 C.2   201  HEM201      0.0000
      9  CMA        8.0370  -24.5420  -11.4310 C.3   201  HEM201      0.0000
     10  CAA        7.4520  -27.3400  -12.9800 C.3   201  HEM201      0.0000
     11  CBA        6.9260  -28.2350  -11.8510 C.3   201  HEM201      0.0000
     12  CGA        5.4180  -28.2750  -11.8290 C.2   201  HEM201      0.0000
     13  O1A        4.8220  -28.3660  -10.7280 O.co2 201  HEM201      0.0000
     14  O2A        4.8200  -28.2450  -12.9160 O.co2 201  HEM201      0.0000
     15  C1B       12.3010  -24.7370  -10.2160 C.ar  201  HEM201      0.0000
     16  C2B       12.9040  -23.7950   -9.2970 C.ar  201  HEM201      0.0000
     17  C3B       14.1130  -24.2800   -8.9640 C.ar  201  HEM201      0.0000
     18  C4B       14.3050  -25.5440   -9.6630 C.ar  201  HEM201      0.0000
     19  CMB       12.2180  -22.4850   -8.8440 C.3   201  HEM201      0.0000
     20  CAB       15.1430  -23.6460   -8.0080 C.2   201  HEM201      0.0000
     21  CBB       15.4940  -22.3550   -8.1240 C.2   201  HEM201      0.0000
     22  C1C       15.8040  -27.2010  -10.6510 C.2   201  HEM201      0.0000
     23  C2C       17.1280  -27.7410  -10.8980 C.2   201  HEM201      0.0000
     24  C3C       17.0800  -28.4590  -12.0240 C.2   201  HEM201      0.0000
     25  C4C       15.7140  -28.4090  -12.5360 C.2   201  HEM201      0.0000
     26  CMC       18.3640  -27.5170   -9.9960 C.3   201  HEM201      0.0000
     27  CAC       18.2600  -29.2180  -12.6690 C.2   201  HEM201      0.0000
     28  CBC       18.3280  -29.3560  -13.9920 C.2   201  HEM201      0.0000
     29  C1D       13.8520  -29.2630  -13.8800 C.ar  201  HEM201      0.0000
     30  C2D       13.3340  -30.2050  -14.8400 C.ar  201  HEM201      0.0000
     31  C3D       11.8120  -30.1400  -14.6760 C.ar  201  HEM201      0.0000
     32  C4D       11.5670  -29.1750  -13.6160 C.ar  201  HEM201      0.0000
     33  CMD       14.1510  -31.0700  -15.8340 C.3   201  HEM201      0.0000
     34  CAD       10.7520  -30.9620  -15.4390 C.3   201  HEM201      0.0000
     35  CBD       10.4030  -32.0350  -14.4130 C.3   201  HEM201      0.0000
     36  CGD       10.4360  -33.4580  -14.9010 C.2   201  HEM201      0.0000
     37  O1D        9.5990  -34.2270  -14.3640 O.co2 201  HEM201      0.0000
     38  O2D       11.2650  -33.8350  -15.7790 O.co2 201  HEM201      0.0000
     39  NA        11.0150  -26.8060  -11.9360 N.2   201  HEM201      0.0000
     40  NB        13.1700  -25.7900  -10.4150 N.ar  201  HEM201      0.0000
     41  NC        14.9870  -27.6420  -11.6680 N.2   201  HEM201      0.0000
     42  ND        12.7860  -28.6760  -13.1840 N.ar  201  HEM201      0.0000
     43 FE         12.9720  -27.2310  -11.8040 Fe    201  HEM201      0.0000
@<TRIPOS>BOND
     1    33    30    1
     2    38    36   ar
     3    34    31    1
     4    34    35    1
     5    36    35    1
     6    36    37   ar
     7    30    31   ar
     8    30    29   ar
     9    31    32   ar
    10    28    27    2
    11    29     4    2
    12    29    42   ar
    13     4    25    1
    14    32    42   ar
    15    32     1    2
    16    42    43    1
    17     1     5    1
    18    10     6    1
    19    10    11    1
    20    14    12   ar
    21    27    24    1
    22     5     6    1
    23     5    39    2
    24    25    24    1
    25    25    41    2
    26     6     7    2
    27    24    23    2
    28    39    43    1
    29    39     8    1
    30    11    12    1
    31    12    13   ar
    32    43    41    1
    33    43    40    1
    34     7     8    1
    35     7     9    1
    36    41    22    1
    37     8     2    2
    38    23    22    1
    39    23    26    1
    40     2    15    1
    41    22     3    2
    42    40    15   ar
    43    40    18   ar
    44    15    16   ar
    45    18     3    1
    46    18    17   ar
    47    16    17   ar
    48    16    19    1
    49    17    20    1
    50    21    20    2
