@<TRIPOS>MOLECULE
4fnn_STE_B_1.pdb
 20 19 0 0 0
SMALL
GASTEIGER

@<TRIPOS>ATOM
      1  C1       -33.8530  -17.8050  -40.6870 C.2   201  STE201      0.3649
      2  O1       -32.7480  -17.3260  -40.4740 O.co2 201  STE201     -0.2457
      3  O2       -34.8020  -17.1250  -41.0400 O.co2 201  STE201     -0.2457
      4  C2       -34.0480  -19.2700  -40.5170 C.3   201  STE201      0.1141
      5  C3       -35.4510  -19.6600  -40.9610 C.3   201  STE201      0.0118
      6  C4       -35.4700  -21.1260  -41.3850 C.3   201  STE201      0.0006
      7  C5       -36.8830  -21.6700  -41.4480 C.3   201  STE201      0.0000
      8  C6       -36.9550  -22.8010  -42.4450 C.3   201  STE201      0.0000
      9  C7       -36.6960  -24.1870  -41.8900 C.3   201  STE201      0.0000
     10  C8       -36.0670  -25.0990  -42.9420 C.3   201  STE201      0.0000
     11  C9       -34.9600  -24.3950  -43.6920 C.3   201  STE201      0.0000
     12  C10      -34.7730  -22.9810  -43.1480 C.3   201  STE201      0.0000
     13  C11      -33.2900  -22.6060  -43.0260 C.3   201  STE201      0.0000
     14  C12      -32.4330  -23.7190  -42.4420 C.3   201  STE201      0.0000
     15  C13      -32.2140  -23.5880  -40.9290 C.3   201  STE201      0.0000
     16  C14      -33.4960  -23.6100  -40.0910 C.3   201  STE201      0.0000
     17  C15      -33.5180  -24.8330  -39.1690 C.3   201  STE201      0.0000
     18  C16      -34.9270  -25.2540  -38.7350 C.3   201  STE201      0.0000
     19  C17      -35.0990  -26.7610  -38.6400 C.3   201  STE201      0.0000
     20  C18      -36.4420  -27.2610  -39.1240 C.3   201  STE201      0.0000
@<TRIPOS>BOND
     1    11    12    1
     2    11    10    1
     3    12    13    1
     4    13    14    1
     5    10     9    1
     6     8     9    1
     7     8     7    1
     8    14    15    1
     9     7     6    1
    10     6     5    1
    11     3     1   ar
    12     5     4    1
    13    15    16    1
    14     1     4    1
    15     1     2   ar
    16    16    17    1
    17    17    18    1
    18    20    19    1
    19    18    19    1
