@<TRIPOS>MOLECULE
4fns_DGJ_A_1.pdb
 11 11 0 0 0
SMALL
GASTEIGER

@<TRIPOS>ATOM
      1  C1       -93.3920   12.2300  -44.7850 C.3   801  DGJ801      0.1243
      2  C2       -93.2390   10.8620  -44.1340 C.3   801  DGJ801      0.2020
      3  O2       -92.5570   10.9570  -42.9190 O.3   801  DGJ801     -0.2188
      4  C3       -92.5750    9.9440  -45.1300 C.3   801  DGJ801      0.2151
      5  O3       -92.3170    8.7010  -44.5530 O.3   801  DGJ801     -0.2176
      6  C4       -93.4760    9.7870  -46.3210 C.3   801  DGJ801      0.2031
      7  O4       -94.6140    9.1110  -45.9300 O.3   801  DGJ801     -0.2187
      8  C5       -93.7820   11.1600  -46.9110 C.3   801  DGJ801      0.1386
      9  N5       -94.2450   12.1310  -45.9540 N.3   801  DGJ801     -0.2113
     10  C6       -94.8070   10.9560  -48.0120 C.3   801  DGJ801      0.2020
     11  O6       -95.3270   12.1850  -48.4230 O.3   801  DGJ801     -0.2188
@<TRIPOS>BOND
     1    11    10    1
     2    10     8    1
     3     8     6    1
     4     8     9    1
     5     6     7    1
     6     6     4    1
     7     9     1    1
     8     4     5    1
     9     4     2    1
    10     1     2    1
    11     2     3    1
