@<TRIPOS>MOLECULE
4fnt_RAF_B_1.pdb
 34 36 0 0 0
SMALL
GASTEIGER

@<TRIPOS>ATOM
      1  O6'      -40.6350   29.4830   12.9520 O.3   801  RAF801     -0.2176
      2  C6'      -41.4560   29.7310   14.0190 C.3   801  RAF801      0.2142
      3  C5'      -42.8310   30.2340   13.6850 C.3   801  RAF801      0.1835
      4  C4'      -43.6540   30.1370   14.8820 C.3   801  RAF801      0.2167
      5  O4'      -43.6900   31.3820   15.6060 O.3   801  RAF801     -0.2175
      6  C3'      -44.9490   29.7920   14.3800 C.3   801  RAF801      0.2381
      7  O3'      -45.6470   29.0990   15.3480 O.3   801  RAF801     -0.2150
      8  O2'      -43.3790   29.4230   12.6510 O.3   801  RAF801     -0.3272
      9  C2'      -44.6690   28.9480   13.1560 C.3   801  RAF801      0.2516
     10  C1'      -45.6830   29.3880   12.0940 C.3   801  RAF801      0.2406
     11  O1'      -45.5270   30.6630   11.5780 O.3   801  RAF801     -0.2149
     12  O1       -44.6690   27.5360   13.4320 O.3   801  RAF801     -0.3033
     13  C1       -43.7370   27.0930   14.3370 C.3   801  RAF801      0.2713
     14  C2       -42.6760   26.2080   13.7430 C.3   801  RAF801      0.2406
     15  O2       -42.0480   26.8250   12.6230 O.3   801  RAF801     -0.2149
     16  C3       -43.1990   24.8840   13.3680 C.3   801  RAF801      0.2198
     17  O3       -42.1580   23.9700   13.0260 O.3   801  RAF801     -0.2174
     18  C4       -44.1050   24.2400   14.3510 C.3   801  RAF801      0.2143
     19  O4       -45.0130   23.5040   13.6330 O.3   801  RAF801     -0.2176
     20  C5       -44.9110   25.1100   15.2810 C.3   801  RAF801      0.1802
     21  O5       -44.4000   26.4460   15.5100 O.3   801  RAF801     -0.3257
     22  C6       -44.9660   24.3980   16.5910 C.3   801  RAF801      0.1770
     23  O6       -45.6880   23.2070   16.5940 O.3   801  RAF801     -0.3259
     24  C1X      -45.2990   22.0990   17.3100 C.3   801  RAF801      0.2695
     25  O5X      -44.4820   22.5320   18.4230 O.3   801  RAF801     -0.3256
     26  C5X      -45.1880   23.0690   19.5630 C.3   801  RAF801      0.1835
     27  C6X      -44.2370   23.0400   20.7070 C.3   801  RAF801      0.2142
     28  O6X      -43.0660   23.7380   20.5480 O.3   801  RAF801     -0.2176
     29  C4X      -46.5020   22.3910   19.9350 C.3   801  RAF801      0.2144
     30  O4X      -46.2560   21.2240   20.7710 O.3   801  RAF801     -0.2176
     31  C3X      -47.2930   22.0480   18.7680 C.3   801  RAF801      0.2198
     32  O3X      -48.4620   21.2960   19.0970 O.3   801  RAF801     -0.2174
     33  C2X      -46.4870   21.3090   17.8180 C.3   801  RAF801      0.2406
     34  O2X      -47.2730   20.7220   16.7980 O.3   801  RAF801     -0.2149
@<TRIPOS>BOND
     1    11    10    1
     2    10     9    1
     3    15    14    1
     4     8     9    1
     5     8     3    1
     6     1     2    1
     7    17    16    1
     8     9    12    1
     9     9     6    1
    10    16    14    1
    11    16    18    1
    12    12    13    1
    13    19    18    1
    14     3     2    1
    15     3     4    1
    16    14    13    1
    17    13    21    1
    18    18    20    1
    19     6     4    1
    20     6     7    1
    21     4     5    1
    22    20    21    1
    23    20    22    1
    24    22    23    1
    25    23    24    1
    26    34    33    1
    27    24    33    1
    28    24    25    1
    29    33    31    1
    30    25    26    1
    31    31    32    1
    32    31    29    1
    33    26    29    1
    34    26    27    1
    35    29    30    1
    36    28    27    1
