@<TRIPOS>MOLECULE
4fnu_FRU_D_1.pdb
 12 12 0 0 0
SMALL
GASTEIGER

@<TRIPOS>ATOM
      1  C1       -91.2990   42.6740   12.3800 C.3   804  FRU804      0.2434
      2  C2       -91.0050   43.1080   10.9670 C.3   804  FRU804      0.2807
      3  C3       -92.2810   43.3500   10.2410 C.3   804  FRU804      0.2409
      4  C4       -91.9300   43.1180    8.8510 C.3   804  FRU804      0.2168
      5  C5       -91.0140   41.9930    8.9280 C.3   804  FRU804      0.1836
      6  C6       -90.1060   42.0340    7.7360 C.3   804  FRU804      0.2142
      7  O1       -91.3520   43.6000   13.3970 O.3   804  FRU804     -0.2148
      8  O2       -90.2590   44.3330   10.9870 O.3   804  FRU804     -0.1896
      9  O3       -92.7180   44.6460   10.3420 O.3   804  FRU804     -0.2149
     10  O4       -93.0880   42.8160    8.1470 O.3   804  FRU804     -0.2175
     11  O5       -90.3600   42.1120   10.2290 O.3   804  FRU804     -0.3253
     12  O6       -89.8070   40.8430    7.0780 O.3   804  FRU804     -0.2176
@<TRIPOS>BOND
     1    12     6    1
     2     6     5    1
     3    10     4    1
     4     4     5    1
     5     4     3    1
     6     5    11    1
     7    11     2    1
     8     3     9    1
     9     3     2    1
    10     2     8    1
    11     2     1    1
    12     1     7    1
