@<TRIPOS>MOLECULE
4fnu_GLA_A_1.pdb
 11 11 0 0 0
SMALL
GASTEIGER

@<TRIPOS>ATOM
      1  C1       -96.5570   12.0880  -43.2300 C.3   801  GLA801      0.1777
      2  C2       -96.2800   10.8980  -42.3480 C.3   801  GLA801      0.2141
      3  C3       -95.5930    9.8800  -43.0480 C.3   801  GLA801      0.2173
      4  C4       -96.2980    9.4510  -44.2720 C.3   801  GLA801      0.2142
      5  C5       -96.7020   10.6400  -45.1480 C.3   801  GLA801      0.1810
      6  C6       -97.6370   10.2140  -46.2600 C.3   801  GLA801      0.2141
      7  O2       -95.5200   11.3090  -41.2230 O.3   801  GLA801     -0.2176
      8  O3       -95.5020    8.7560  -42.1970 O.3   801  GLA801     -0.2175
      9  O4       -97.4470    8.7200  -43.9700 O.3   801  GLA801     -0.2176
     10  O5       -97.3100   11.6730  -44.4410 O.3   801  GLA801     -0.3481
     11  O6       -98.4280   11.2200  -46.8130 O.3   801  GLA801     -0.2176
@<TRIPOS>BOND
     1    11     6    1
     2     6     5    1
     3     5    10    1
     4     5     4    1
     5    10     1    1
     6     4     9    1
     7     4     3    1
     8     1     2    1
     9     3     2    1
    10     3     8    1
    11     2     7    1
