@<TRIPOS>MOLECULE
4fny_I3K_A_1.pdb
 32 36 0 0 0
SMALL
GASTEIGER

@<TRIPOS>ATOM
      1  C19        1.1990    7.6560   43.3110 C.3   1501  I3K1501     0.2521
      2  O18        2.5440    8.0080   43.7350 O.2   1501  I3K1501    -0.4726
      3  C13        3.1470    9.1220   43.1930 C.2   1501  I3K1501     0.1519
      4  C14        2.5020    9.9700   42.2750 C.3   1501  I3K1501     0.1122
      5  C12        4.4540    9.4190   43.5810 C.2   1501  I3K1501     0.1505
      6  O16        5.0490    8.5830   44.4740 O.2   1501  I3K1501    -0.4726
      7  C17        6.4220    8.9490   44.7980 C.3   1501  I3K1501     0.2521
      8  C15        5.1060   10.5520   43.0710 C.3   1501  I3K1501     0.0973
      9  C6         4.4530   11.3890   42.1530 C.ar  1501  I3K1501     0.0340
     10  C7         3.1470   11.0970   41.7610 C.ar  1501  I3K1501     0.0661
     11  N8         2.5040   11.8930   40.8780 N.ar  1501  I3K1501    -0.2478
     12  C9         3.0730   12.9680   40.3660 C.ar  1501  I3K1501     0.1016
     13  C10        4.3700   13.3220   40.7160 C.ar  1501  I3K1501     0.0578
     14  C11        5.0790   12.5220   41.6200 C.ar  1501  I3K1501     0.1439
     15  O20        6.3710   12.8020   42.0150 O.3   1501  I3K1501    -0.4575
     16  C21        7.0560   13.8810   41.5460 C.2   1501  I3K1501     0.1300
     17  C22        7.4450   13.9900   40.2070 C.3   1501  I3K1501     0.1267
     18  C24        7.3880   14.8690   42.4650 C.2   1501  I3K1501     0.0366
     19  C23        8.1050   15.9750   42.0430 C.2   1501  I3K1501     0.0428
     20  C1         8.4890   16.0810   40.7090 C.2   1501  I3K1501     0.1753
     21  O5         9.1760   17.0500   40.0640 O.2   1501  I3K1501    -0.4129
     22  C2         8.1610   15.1010   39.7700 C.2   1501  I3K1501     0.1558
     23  N3         8.6440   15.4810   38.5720 N.2   1501  I3K1501    -0.3541
     24  C4         9.2600   16.6630   38.7640 C.2   1501  I3K1501     0.3687
     25  N25        9.8900   17.4670   37.9010 N.pl3 1501  I3K1501    -0.1502
     26  C26       10.2130   17.1840   36.6450 C.ar  1501  I3K1501     0.0762
     27  C27        9.3340   16.5090   35.8040 C.ar  1501  I3K1501     0.0176
     28  C28        9.6740   16.2470   34.4840 C.ar  1501  I3K1501     0.0127
     29  C29       10.9020   16.6740   34.0090 C.ar  1501  I3K1501     0.0578
     30 CL3        11.3250   16.3350   32.3700 Cl    1501  I3K1501    -0.0822
     31  C30       11.7870   17.3630   34.8390 C.ar  1501  I3K1501     0.0127
     32  C31       11.4430   17.6210   36.1620 C.ar  1501  I3K1501     0.0176
@<TRIPOS>BOND
     1    30    29    1
     2    29    28   ar
     3    29    31   ar
     4    28    27   ar
     5    31    32   ar
     6    27    26   ar
     7    32    26   ar
     8    26    25    1
     9    25    24    1
    10    23    24    2
    11    23    22    2
    12    24    21    1
    13    22    17    1
    14    22    20    1
    15    21    20    1
    16    17    16    1
    17    12    13   ar
    18    12    11   ar
    19    20    19    2
    20    13    14   ar
    21    11    10   ar
    22    16    15    1
    23    16    18    2
    24    14    15    1
    25    14     9   ar
    26    10     9   ar
    27    10     4    1
    28    19    18    1
    29     9     8    1
    30     4     3    1
    31     8     5    1
    32     3     5    2
    33     3     2    1
    34     1     2    1
    35     5     6    1
    36     6     7    1
