@<TRIPOS>MOLECULE
4fnz_NZF_A_1.pdb
 40 43 0 0 0
SMALL
GASTEIGER

@<TRIPOS>ATOM
      1  C17       18.8820    8.4190   59.4410 C.3   1501  NZF1501     0.2526
      2  O1        19.8870    8.5940   58.4000 O.3   1501  NZF1501    -0.4682
      3  C15       21.1900    8.6590   58.8600 C.ar  1501  NZF1501     0.1768
      4  C16       21.5500    9.6760   59.7590 C.ar  1501  NZF1501     0.0576
      5  C14       22.1670    7.7300   58.4400 C.ar  1501  NZF1501     0.2061
      6  O2        21.8740    6.7130   57.5720 O.3   1501  NZF1501    -0.4654
      7  C18       22.4030    6.9290   56.2460 C.3   1501  NZF1501     0.2528
      8  C13       23.4650    7.8330   58.9320 C.ar  1501  NZF1501     0.1768
      9  O3        24.4410    6.9690   58.5580 O.3   1501  NZF1501    -0.4682
     10  C19       25.4000    6.8120   59.6110 C.3   1501  NZF1501     0.2526
     11  C12       23.7940    8.8550   59.8100 C.ar  1501  NZF1501     0.0576
     12  C11       22.8600    9.7860   60.2290 C.ar  1501  NZF1501     0.0888
     13  N4        23.3120   10.7060   61.0950 N.pl3 1501  NZF1501    -0.1355
     14  C10       22.7410   11.8850   61.3970 C.1   1501  NZF1501     0.1709
     15  N3        21.5780   12.2890   60.8620 N.2   1501  NZF1501    -0.3207
     16  N2        23.3810   12.6740   62.2870 N.2   1501  NZF1501    -0.1683
     17  C9        22.8910   13.8460   62.6610 C.2   1501  NZF1501     0.1158
     18  C8        21.6870   14.2910   62.1250 C.2   1501  NZF1501     0.0701
     19  C7        21.0370   13.4670   61.2070 C.2   1501  NZF1501     0.1978
     20  N1        19.8180   13.8450   60.6310 N.pl3 1501  NZF1501    -0.2823
     21  C3        19.1340   15.0940   61.0190 C.3   1501  NZF1501     0.1022
     22  C2        19.1270   12.9150   59.6990 C.3   1501  NZF1501     0.0932
     23  C1        17.8070   12.5300   60.3570 C.3   1501  NZF1501     0.0220
     24  C5        17.0220   13.7900   60.7290 C.3   1501  NZF1501     0.0126
     25  C4        17.8240   14.7030   61.6850 C.3   1501  NZF1501     0.0980
     26  C6        17.0120   15.9500   62.0920 C.2   1501  NZF1501     0.2429
     27  O4        16.5540   16.7620   61.2830 O.2   1501  NZF1501    -0.2733
     28  N5        16.8590   16.0920   63.3910 N.am  1501  NZF1501    -0.2005
     29  C20       16.1190   17.2340   63.9340 C.3   1501  NZF1501     0.1416
     30  C21       16.4320   17.3950   65.4140 C.ar  1501  NZF1501     0.0025
     31  C27       15.4130   17.4780   66.3600 C.ar  1501  NZF1501     0.0346
     32  C22       17.7580   17.4650   65.8000 C.ar  1501  NZF1501    -0.0024
     33  C23       18.0740   17.6130   67.1420 C.ar  1501  NZF1501     0.0028
     34  C24       17.0780   17.6980   68.1000 C.ar  1501  NZF1501     0.0372
     35  C25       15.7510   17.6180   67.7060 C.ar  1501  NZF1501     0.1465
     36  O5        14.7880   17.7290   68.6510 O.3   1501  NZF1501    -0.4045
     37  C26       14.3600   16.5470   69.2690 C.3   1501  NZF1501     0.5753
     38  F2        15.3540   16.0370   69.9990 F     1501  NZF1501    -0.1328
     39  F3        13.3760   16.9560   70.0720 F     1501  NZF1501    -0.1328
     40  F1        13.9040   15.6540   68.3540 F     1501  NZF1501    -0.1328
@<TRIPOS>BOND
     1     7     6    1
     2     6     5    1
     3     2     3    1
     4     2     1    1
     5     5     3   ar
     6     5     8   ar
     7     9     8    1
     8     9    10    1
     9     3     4   ar
    10     8    11   ar
    11    22    23    1
    12    22    20    1
    13     4    12   ar
    14    11    12   ar
    15    12    13    1
    16    23    24    1
    17    20    21    1
    18    20    19    1
    19    24    25    1
    20    15    19    2
    21    15    14    2
    22    21    25    1
    23    13    14    1
    24    19    18    1
    25    27    26    2
    26    14    16    2
    27    25    26    1
    28    26    28   am
    29    18    17    2
    30    16    17    1
    31    28    29    1
    32    29    30    1
    33    30    32   ar
    34    30    31   ar
    35    32    33   ar
    36    31    35   ar
    37    33    34   ar
    38    35    34   ar
    39    35    36    1
    40    40    37    1
    41    36    37    1
    42    37    38    1
    43    37    39    1
