@<TRIPOS>MOLECULE
4fo0_ATP_A_1.pdb
 31 33 0 0 0
SMALL
GASTEIGER

@<TRIPOS>ATOM
      1  PG       -34.2990   15.0300  -14.8460 P.3   702  ATP702      0.5373
      2  O1G      -33.6780   15.2390  -16.2000 O.2   702  ATP702     -0.2221
      3  O2G      -35.0040   13.7090  -14.6570 O.3   702  ATP702     -0.1143
      4  O3G      -33.4310   15.4130  -13.6660 O.3   702  ATP702     -0.1143
      5  PB       -36.4260   16.6430  -15.9940 P.3   702  ATP702      0.2277
      6  O1B      -37.8040   16.6850  -15.3900 O.3   702  ATP702     -0.4368
      7  O2B      -36.1280   16.0160  -17.3480 O.2   702  ATP702     -0.5168
      8  O3B      -35.4870   16.1020  -14.8060 O.3   702  ATP702     -0.2258
      9  PA       -36.0880   19.2540  -17.0950 P.3   702  ATP702      0.2189
     10  O1A      -37.5760   19.4020  -17.2810 O.3   702  ATP702     -0.4371
     11  O2A      -35.1550   19.0660  -18.2640 O.2   702  ATP702     -0.5170
     12  O3A      -35.8460   18.1400  -15.9750 O.3   702  ATP702     -0.2700
     13  O5'      -35.5950   20.5380  -16.2850 O.3   702  ATP702     -0.3112
     14  C5'      -36.3230   20.8920  -15.1200 C.3   702  ATP702      0.1813
     15  C4'      -35.5370   21.9400  -14.3720 C.3   702  ATP702      0.1821
     16  O4'      -35.3540   23.0430  -15.2470 O.3   702  ATP702     -0.3135
     17  C3'      -36.2690   22.4690  -13.1500 C.3   702  ATP702      0.2184
     18  O3'      -35.3890   22.4590  -12.0210 O.3   702  ATP702     -0.2174
     19  C2'      -36.6270   23.8870  -13.5210 C.3   702  ATP702      0.2570
     20  O2'      -36.6390   24.7670  -12.4070 O.3   702  ATP702     -0.2130
     21  C1'      -35.4990   24.2210  -14.4640 C.3   702  ATP702      0.3186
     22  N9       -35.8110   25.4230  -15.2510 N.pl3 702  ATP702     -0.1439
     23  C8       -36.7910   25.5460  -16.1570 C.3   702  ATP702      0.3377
     24  N7       -36.8000   26.7940  -16.6830 N.2   702  ATP702     -0.2095
     25  C5       -35.8070   27.4810  -16.1060 C.2   702  ATP702      0.2526
     26  C6       -35.2800   28.8510  -16.2010 C.2   702  ATP702      0.4393
     27  N6       -35.8480   29.7330  -17.0620 N.pl3 702  ATP702      0.2180
     28  N1       -34.2230   29.1730  -15.4090 N.2   702  ATP702      0.0021
     29  C2       -33.6630   28.2940  -14.5550 C.3   702  ATP702      0.5254
     30  N3       -34.1070   27.0270  -14.4140 N.2   702  ATP702     -0.0055
     31  C4       -35.1540   26.5740  -15.1520 C.2   702  ATP702      0.3518
@<TRIPOS>BOND
     1    11     9    2
     2     7     5    2
     3    10     9    1
     4     9    13    1
     5     9    12    1
     6    27    26    1
     7    24    23    1
     8    24    25    2
     9    13    14    1
    10    26    25    1
    11    26    28    2
    12     2     1    2
    13    23    22    1
    14    25    31    1
    15     5    12    1
    16     5     6    1
    17     5     8    1
    18    28    29    1
    19    22    31    1
    20    22    21    1
    21    16    21    1
    22    16    15    1
    23    31    30    2
    24    14    15    1
    25     1     8    1
    26     1     3    1
    27     1     4    1
    28    29    30    1
    29    21    19    1
    30    15    17    1
    31    19    17    1
    32    19    20    1
    33    17    18    1
