@<TRIPOS>MOLECULE
4fo4_IMP_A_1.pdb
 23 25 0 0 0
SMALL
GASTEIGER

@<TRIPOS>ATOM
      1  P          7.6620   39.1070   10.2600 P.3   501  IMP501      0.5327
      2  O1P        9.0820   38.8460   10.5350 O.3   501  IMP501     -0.1145
      3  O2P        7.4930   39.0470    8.6910 O.2   501  IMP501     -0.2224
      4  O3P        7.2720   40.4970   10.8260 O.3   501  IMP501     -0.1145
      5  O5'        6.7130   38.1250   11.0760 O.3   501  IMP501     -0.2675
      6  C5'        6.8090   36.7210   10.8640 C.3   501  IMP501      0.1860
      7  C4'        5.9760   36.0270   11.8910 C.3   501  IMP501      0.1823
      8  O4'        4.5670   36.1910   11.6750 O.3   501  IMP501     -0.3135
      9  C3'        6.1680   34.5220   11.9070 C.3   501  IMP501      0.2184
     10  O3'        7.3590   34.1210   12.5970 O.3   501  IMP501     -0.2174
     11  C2'        4.9550   34.0980   12.6950 C.3   501  IMP501      0.2570
     12  O2'        5.0390   34.3730   14.1170 O.3   501  IMP501     -0.2130
     13  C1'        3.8720   35.0620   12.2250 C.3   501  IMP501      0.3186
     14  N9         2.9870   34.5810   11.1220 N.pl3 501  IMP501     -0.1435
     15  C8         3.2330   33.7140   10.1230 C.3   501  IMP501      0.3382
     16  N7         2.1300   33.6520    9.3110 N.2   501  IMP501     -0.2054
     17  C5         1.1860   34.4370    9.8620 C.2   501  IMP501      0.2446
     18  C6        -0.1060   34.7670    9.5050 C.1   501  IMP501      0.1792
     19  O6        -0.6940   34.3280    8.4840 O.2   501  IMP501     -0.2203
     20  N1        -0.7660   35.6040   10.2880 N.2   501  IMP501     -0.1458
     21  C2        -0.1890   36.1420   11.4110 C.3   501  IMP501      0.4017
     22  N3         1.0670   35.8990   11.7970 N.2   501  IMP501     -0.0334
     23  C4         1.7550   35.0220   10.9990 C.2   501  IMP501      0.3528
@<TRIPOS>BOND
     1    19    18    2
     2     3     1    2
     3    16    17    2
     4    16    15    1
     5    18    17    1
     6    18    20    2
     7    17    23    1
     8    15    14    1
     9     1     2    1
    10     1     4    1
    11     1     5    1
    12    20    21    1
    13     6     5    1
    14     6     7    1
    15    23    14    1
    16    23    22    2
    17    14    13    1
    18    21    22    1
    19     8     7    1
    20     8    13    1
    21     7     9    1
    22     9    10    1
    23     9    11    1
    24    13    11    1
    25    11    12    1
