@<TRIPOS>MOLECULE
4fo4_MOA_A_1.pdb
 23 24 0 0 0
SMALL
GASTEIGER

@<TRIPOS>ATOM
      1  C1        -0.2390   35.1770   15.0950 C.2   502  MOA502      0.3445
      2  C2        -1.6690   30.6600   11.7130 C.2   502  MOA502     -0.0296
      3  C3        -1.7900   29.3920   11.2280 C.2   502  MOA502     -0.0473
      4  C4        -3.0260   28.5430   11.4540 C.3   502  MOA502      0.0335
      5  C5        -2.7870   27.4540   12.5090 C.3   502  MOA502      0.1184
      6  C6        -2.8520   28.1450   13.8500 C.2   502  MOA502      0.3652
      7  C7         3.2550   31.6860   15.1590 C.3   502  MOA502      0.0340
      8  C8         1.6350   29.2960   13.5560 C.3   502  MOA502      0.2524
      9  C9        -0.6890   28.7770   10.4250 C.3   502  MOA502      0.0260
     10  C10        1.6850   34.3230   16.1760 C.3   502  MOA502      0.2355
     11  C11        1.3430   33.4450   15.0120 C.ar  502  MOA502      0.0296
     12  C12        2.0010   32.2500   14.5370 C.ar  502  MOA502      0.0117
     13  C13        1.4190   31.6150   13.3260 C.ar  502  MOA502      0.1339
     14  C14        0.1960   32.1330   12.6610 C.ar  502  MOA502      0.0549
     15  C15       -0.4650   33.3160   13.1790 C.ar  502  MOA502      0.2009
     16  C16        0.1320   33.9440   14.3720 C.ar  502  MOA502      0.1135
     17  C17       -0.4090   31.4630   11.4400 C.3   502  MOA502      0.0580
     18  O1        -1.1050   35.9580   14.8350 O.2   502  MOA502     -0.2448
     19  O2         0.7330   35.4040   16.1240 O.3   502  MOA502     -0.4404
     20  O3         2.0480   30.4790   12.8690 O.3   502  MOA502     -0.4720
     21  O4        -1.5790   33.8210   12.6050 O.3   502  MOA502     -0.2866
     22  O5        -3.7780   28.9160   14.0470 O.co2 502  MOA502     -0.2456
     23  O6        -2.0020   27.9340   14.7370 O.co2 502  MOA502     -0.2456
@<TRIPOS>BOND
     1     9     3    1
     2     3     4    1
     3     3     2    2
     4    17     2    1
     5    17    14    1
     6     4     5    1
     7     5     6    1
     8    21    15    1
     9    14    15   ar
    10    14    13   ar
    11    20    13    1
    12    20     8    1
    13    15    16   ar
    14    13    12   ar
    15     6    22   ar
    16     6    23   ar
    17    16    11   ar
    18    16     1    1
    19    12    11   ar
    20    12     7    1
    21    18     1    2
    22    11    10    1
    23     1    19    1
    24    19    10    1
