@<TRIPOS>MOLECULE
4fo6_F2A_A_1.pdb
 30 32 0 0 0
SMALL
GASTEIGER

@<TRIPOS>ATOM
      1  PA        15.5780    8.2840  -14.5790 P.3   606  F2A606      0.3820
      2  O1A       16.1100    7.0570  -13.8250 O.2   606  F2A606     -0.2548
      3  O2A       14.8850    9.2070  -13.5160 O.3   606  F2A606     -0.1392
      4  C3A       16.9250    9.0800  -15.4800 C.3   606  F2A606      0.2357
      5  O5'       14.4970    7.7340  -15.6170 O.3   606  F2A606     -0.2896
      6  PB        18.1120    8.0110  -16.4240 P.3   606  F2A606      0.3895
      7  O1B       17.8590    8.2540  -17.9080 O.2   606  F2A606     -0.2544
      8  O2B       18.0040    6.4930  -15.9600 O.3   606  F2A606     -0.1388
      9  O3B       19.5340    8.5740  -16.0920 O.3   606  F2A606     -0.2026
     10  PG        20.0850    8.5360  -14.5560 P.3   606  F2A606      0.5389
     11  O1G       20.2220    9.9350  -14.0510 O.3   606  F2A606     -0.1143
     12  O2G       21.4040    7.8760  -14.5150 O.2   606  F2A606     -0.2220
     13  O3G       19.1260    7.7610  -13.6710 O.3   606  F2A606     -0.1143
     14  C5'       14.6070    6.4450  -16.2070 C.3   606  F2A606      0.1835
     15  C4'       13.9070    6.3440  -17.5200 C.3   606  F2A606      0.1795
     16  O4'       12.4480    6.6320  -17.3910 O.3   606  F2A606     -0.3155
     17  C1'       12.0610    7.3940  -18.4840 C.3   606  F2A606      0.2873
     18  N9        11.6950    8.7570  -18.0720 N.pl3 606  F2A606     -0.1460
     19  C4        10.7710    9.5450  -18.6700 C.2   606  F2A606      0.3518
     20  N3         9.9210    9.3750  -19.7220 N.2   606  F2A606     -0.0055
     21  C2         9.0890   10.3520  -20.0910 C.3   606  F2A606      0.5254
     22  N1         9.0740   11.5360  -19.4290 N.2   606  F2A606      0.0021
     23  C6         9.8940   11.7660  -18.3820 C.2   606  F2A606      0.4393
     24  N6         9.8780   12.9870  -17.7010 N.pl3 606  F2A606      0.2180
     25  C5        10.7630   10.7550  -17.9890 C.2   606  F2A606      0.2526
     26  N7        11.6830   10.6720  -17.0040 N.2   606  F2A606     -0.2095
     27  C8        12.2560    9.4500  -17.0650 C.3   606  F2A606      0.3377
     28  C2'       13.2540    7.4190  -19.4000 C.3   606  F2A606      0.1151
     29  C3'       14.3870    7.3350  -18.4500 C.3   606  F2A606      0.1883
     30  O3'       15.5260    6.9610  -19.1160 O.3   606  F2A606     -0.2202
@<TRIPOS>BOND
     1    21    20    1
     2    21    22    1
     3    20    19    2
     4    22    23    2
     5    28    17    1
     6    28    29    1
     7    30    29    1
     8    19    18    1
     9    19    25    1
    10    17    18    1
    11    17    16    1
    12    29    15    1
    13    23    25    1
    14    23    24    1
    15    18    27    1
    16    25    26    2
    17     7     6    2
    18    15    16    1
    19    15    14    1
    20    27    26    1
    21     6     9    1
    22     6     8    1
    23     6     4    1
    24    14     5    1
    25     9    10    1
    26     5     1    1
    27     4     1    1
    28     1     2    2
    29     1     3    1
    30    10    12    2
    31    10    11    1
    32    10    13    1
