@<TRIPOS>MOLECULE
4fob_0US_A_1.pdb
 40 44 0 0 0
SMALL
GASTEIGER

@<TRIPOS>ATOM
      1  C16       16.7440   10.9660   11.0970 C.2   1501  0US1501    -0.0034
      2  C15       16.4190   11.7600   10.0690 C.2   1501  0US1501    -0.0054
      3  C21       17.4530   12.5970    9.3750 C.3   1501  0US1501     0.1415
      4  N5        17.3770   13.9640    9.8630 N.3   1501  0US1501    -0.0730
      5  S1        18.4450   14.9760    9.1370 S.O2  1501  0US1501     0.0771
      6  O1        18.1200   16.3710    9.5860 O.2   1501  0US1501    -0.1516
      7  O2        18.3860   14.8520    7.6490 O.2   1501  0US1501    -0.1516
      8  C5        20.0350   14.5410    9.7140 C.ar  1501  0US1501     0.1237
      9  C7        20.7470   13.4970    9.1200 C.ar  1501  0US1501     0.0245
     10  C22       20.5880   15.2480   10.7710 C.ar  1501  0US1501     0.0200
     11  C26       21.8560   14.9310   11.2340 C.ar  1501  0US1501     0.0015
     12  C23       22.5730   13.9010   10.6590 C.ar  1501  0US1501     0.0047
     13  C6        22.0280   13.1890    9.5950 C.ar  1501  0US1501     0.0568
     14  C4        22.8420   12.0440    9.0060 C.2   1501  0US1501     0.2721
     15  O3        24.0130   11.8750    9.3630 O.2   1501  0US1501    -0.2679
     16  N3        22.1550   11.2410    8.1850 N.am  1501  0US1501    -0.1317
     17  C1        22.6680   10.1210    7.6460 C.2   1501  0US1501     0.2683
     18  N1        23.9100    9.6700    7.8250 N.2   1501  0US1501    -0.3741
     19  C2        24.0360    8.5200    7.1590 C.2   1501  0US1501     0.1297
     20  C10       25.0980    7.6340    7.0000 C.3   1501  0US1501     0.0837
     21  C11       24.9240    6.4820    6.2200 C.2   1501  0US1501    -0.0212
     22  C12       26.0960    5.5000    6.0130 C.3   1501  0US1501     0.0953
     23  N4        25.7370    4.1050    6.3210 N.3   1501  0US1501    -0.2692
     24  C24       26.9100    3.2920    5.9120 C.3   1501  0US1501     0.0724
     25  C29       26.8000    1.8200    6.3560 C.3   1501  0US1501     0.0174
     26  C30       26.5430    1.6990    7.8640 C.3   1501  0US1501     0.0029
     27  C28       25.3070    2.5170    8.2310 C.3   1501  0US1501     0.0174
     28  C25       25.4560    3.9840    7.7690 C.3   1501  0US1501     0.0724
     29  C17       23.7010    6.2330    5.6090 C.2   1501  0US1501    -0.0054
     30  C9        22.6410    7.1110    5.7660 C.2   1501  0US1501     0.0166
     31  C3        22.8230    8.2580    6.5420 C.2   1501  0US1501     0.0805
     32  N2        22.0160    9.2580    6.8670 N.pl3 1501  0US1501    -0.2487
     33  C8        20.6280    9.3050    6.3950 C.3   1501  0US1501     0.0808
     34  C14       19.5900    9.2390    7.5220 C.3   1501  0US1501     0.0203
     35  C19       18.2360    8.9570    6.8650 C.3   1501  0US1501     0.0043
     36  C13       20.3670   10.5060    5.5260 C.3   1501  0US1501     0.0203
     37  C18       19.0370   10.2870    4.8070 C.3   1501  0US1501     0.0043
     38  C20       17.8760    9.9600    5.7530 C.3   1501  0US1501     0.0331
     39  C27       17.3400   11.2520    6.3860 C.3   1501  0US1501     0.1820
     40  O4        17.0430   12.2250    5.3670 O.3   1501  0US1501    -0.2204
@<TRIPOS>BOND
     1    37    36    1
     2    37    38    1
     3    40    39    1
     4    36    33    1
     5    29    30    1
     6    29    21    2
     7    38    39    1
     8    38    35    1
     9    30    31    2
    10    24    23    1
    11    24    25    1
    12    22    21    1
    13    22    23    1
    14    21    20    1
    15    23    28    1
    16    25    26    1
    17    33    32    1
    18    33    34    1
    19    31    32    1
    20    31    19    1
    21    35    34    1
    22    32    17    1
    23    20    19    1
    24    19    18    2
    25    17    18    2
    26    17    16    1
    27     7     5    2
    28    28    27    1
    29    26    27    1
    30    16    14   am
    31    14    15    2
    32    14    13    1
    33     9    13   ar
    34     9     8   ar
    35     5     6    2
    36     5     8    1
    37     5     4    1
    38     3     4    1
    39     3     2    1
    40    13    12   ar
    41     8    10   ar
    42     2     1    2
    43    12    11   ar
    44    10    11   ar
