@<TRIPOS>MOLECULE
4foc_0UU_A_1.pdb
 35 39 0 0 0
SMALL
GASTEIGER

@<TRIPOS>ATOM
      1  C28       16.8190   12.0180    9.6340 C.3   1501  0UU1501     0.2556
      2  O2        17.2510   10.9690    8.7260 O.3   1501  0UU1501    -0.4444
      3  C27       17.6060   11.3970    7.4700 C.2   1501  0UU1501     0.3165
      4  O3        17.7600   12.5930    7.2240 O.2   1501  0UU1501    -0.2501
      5  C15       17.8310   10.3520    6.3690 C.3   1501  0UU1501     0.0992
      6  C16       18.3630    9.0650    7.0150 C.3   1501  0UU1501     0.0128
      7  C17       19.7980    9.2080    7.5170 C.3   1501  0UU1501     0.0208
      8  C14       18.8310   10.8690    5.3210 C.3   1501  0UU1501     0.0128
      9  C13       20.2490   11.0010    5.8700 C.3   1501  0UU1501     0.0208
     10  C12       20.7310    9.6470    6.3830 C.3   1501  0UU1501     0.0809
     11  N2        22.1010    9.6300    6.9200 N.pl3 1501  0UU1501    -0.2488
     12  C3        22.9680    8.6500    6.6480 C.2   1501  0UU1501     0.0802
     13  C5        22.8950    7.4980    5.8480 C.2   1501  0UU1501     0.0140
     14  C6        24.0050    6.6560    5.7520 C.2   1501  0UU1501    -0.0087
     15  C18       23.9400    5.3820    4.8780 C.3   1501  0UU1501     0.0989
     16  N3        24.6400    5.5450    3.5930 N.3   1501  0UU1501    -0.2690
     17  C7        24.0380    6.5960    2.7660 C.3   1501  0UU1501     0.0724
     18  C8        24.9460    6.8330    1.5480 C.3   1501  0UU1501     0.0174
     19  C9        25.1460    5.5440    0.7330 C.3   1501  0UU1501     0.0029
     20  C10       25.4420    4.3240    1.6140 C.3   1501  0UU1501     0.0174
     21  C11       24.5250    4.2770    2.8440 C.3   1501  0UU1501     0.0724
     22  C4        25.1620    6.9600    6.4590 C.2   1501  0UU1501    -0.0215
     23  C2        25.2240    8.0980    7.2730 C.3   1501  0UU1501     0.0861
     24  C1        24.1240    8.9480    7.3530 C.2   1501  0UU1501     0.1300
     25  N1        23.9200   10.0900    8.0330 N.2   1501  0UU1501    -0.3741
     26  C19       22.6820   10.4940    7.7570 C.2   1501  0UU1501     0.2683
     27  N4        22.1060   11.5800    8.2920 N.am  1501  0UU1501    -0.1317
     28  C20       22.7520   12.3760    9.1550 C.2   1501  0UU1501     0.2721
     29  O1        23.9220   12.2560    9.5220 O.2   1501  0UU1501    -0.2679
     30  C21       21.8790   13.4670    9.7910 C.ar  1501  0UU1501     0.0555
     31  C22       20.5450   13.6390    9.4170 C.ar  1501  0UU1501     0.0046
     32  C23       19.7510   14.6380   10.0050 C.ar  1501  0UU1501     0.0001
     33  C24       20.3180   15.4340   11.0000 C.ar  1501  0UU1501     0.0000
     34  C25       21.6460   15.2380   11.3840 C.ar  1501  0UU1501     0.0001
     35  C26       22.4290   14.2660   10.7920 C.ar  1501  0UU1501     0.0046
@<TRIPOS>BOND
     1    19    18    1
     2    19    20    1
     3    18    17    1
     4    20    21    1
     5    17    16    1
     6    21    16    1
     7    16    15    1
     8    15    14    1
     9     8     9    1
    10     8     5    1
    11    14    13    1
    12    14    22    2
    13    13    12    2
    14     9    10    1
    15     5     6    1
    16     5     3    1
    17    10    11    1
    18    10     7    1
    19    22    23    1
    20    12    11    1
    21    12    24    1
    22    11    26    1
    23     6     7    1
    24     4     3    2
    25    23    24    1
    26    24    25    2
    27     3     2    1
    28    26    25    2
    29    26    27    1
    30    27    28   am
    31     2     1    1
    32    28    29    2
    33    28    30    1
    34    31    30   ar
    35    31    32   ar
    36    30    35   ar
    37    32    33   ar
    38    35    34   ar
    39    33    34   ar
