@<TRIPOS>MOLECULE
4fod_0UV_A_1.pdb
 42 46 0 0 0
SMALL
GASTEIGER

@<TRIPOS>ATOM
      1  C24       14.6190   11.9760    9.0930 C.3   1501  0UV1501     0.0234
      2  C23       16.1270   11.8150    9.3280 C.3   1501  0UV1501     0.0954
      3  C25       16.4060   11.3540   10.7510 C.3   1501  0UV1501     0.0234
      4  N5        16.6650   10.8250    8.3620 N.am  1501  0UV1501    -0.2072
      5  C22       17.5280   11.1660    7.4000 C.2   1501  0UV1501     0.2408
      6  O2        17.9350   12.3100    7.2210 O.2   1501  0UV1501    -0.2734
      7  C19       17.9770   10.0200    6.4760 C.3   1501  0UV1501     0.0783
      8  C20       19.0060   10.5160    5.4330 C.3   1501  0UV1501     0.0108
      9  C21       20.4390   10.6480    5.9780 C.3   1501  0UV1501     0.0207
     10  C18       18.5120    8.8580    7.3200 C.3   1501  0UV1501     0.0108
     11  C17       19.9360    9.1120    7.8310 C.3   1501  0UV1501     0.0207
     12  C16       20.8910    9.3650    6.6600 C.3   1501  0UV1501     0.0809
     13  N1        22.2830    9.4600    7.1760 N.pl3 1501  0UV1501    -0.2487
     14  C4        23.2470    8.5550    6.9690 C.2   1501  0UV1501     0.0804
     15  C3        23.3000    7.3460    6.2640 C.2   1501  0UV1501    -0.0032
     16  C2        24.4800    6.6020    6.2280 C.3   1501  0UV1501     0.0613
     17  C15       24.5480    5.2730    5.4500 C.3   1501  0UV1501     0.0809
     18  N4        24.4330    4.1140    6.3520 N.3   1501  0UV1501    -0.2721
     19  C30       25.4840    4.1440    7.3870 C.3   1501  0UV1501     0.0722
     20  C29       25.3250    2.9490    8.3330 C.3   1501  0UV1501     0.0198
     21  C26       24.5460    2.8760    5.5510 C.3   1501  0UV1501     0.0722
     22  C27       24.4130    1.6290    6.4330 C.3   1501  0UV1501     0.0198
     23  C28       25.4480    1.6410    7.5540 C.3   1501  0UV1501     0.0308
     24  C31       25.3060    0.4140    8.4560 C.3   1501  0UV1501     0.1268
     25  C32       23.9010    0.3630    9.0590 C.3   1501  0UV1501     0.0329
     26  C33       26.3400    0.4670    9.5700 C.3   1501  0UV1501     0.0329
     27  O3        25.5440   -0.7500    7.6370 O.3   1501  0UV1501    -0.2257
     28  C1        25.6080    7.0740    6.8950 C.2   1501  0UV1501    -0.0180
     29  C6        25.5500    8.2800    7.5920 C.2   1501  0UV1501     0.0292
     30  C5        24.3720    9.0220    7.6370 C.2   1501  0UV1501     0.1475
     31  N2        24.0540   10.1890    8.2260 N.2   1501  0UV1501    -0.3700
     32  C7        22.7810   10.4460    7.9250 C.2   1501  0UV1501     0.2686
     33  N3        22.1000   11.5010    8.3620 N.am  1501  0UV1501    -0.1317
     34  C8        22.6930   12.3480    9.2130 C.2   1501  0UV1501     0.2721
     35  O1        23.8690   12.2670    9.5720 O.2   1501  0UV1501    -0.2679
     36  C9        21.7920   13.4450    9.7610 C.ar  1501  0UV1501     0.0556
     37  C10       20.4870   13.5880    9.2990 C.ar  1501  0UV1501     0.0069
     38  C11       19.6770   14.5830    9.8330 C.ar  1501  0UV1501     0.0298
     39  C12       20.1670   15.4150   10.8300 C.ar  1501  0UV1501     0.1401
     40  F1        19.3870   16.3740   11.3570 F     1501  0UV1501    -0.2042
     41  C13       21.4630   15.2630   11.2980 C.ar  1501  0UV1501     0.0298
     42  C14       22.2730   14.2700   10.7710 C.ar  1501  0UV1501     0.0069
@<TRIPOS>BOND
     1     8     9    1
     2     8     7    1
     3    17    16    1
     4    17    18    1
     5    21    18    1
     6    21    22    1
     7     9    12    1
     8    16    15    1
     9    16    28    1
    10    15    14    2
    11    18    19    1
    12    22    23    1
    13     7    10    1
    14     7     5    1
    15    12    13    1
    16    12    11    1
    17    28    29    2
    18    14    13    1
    19    14    30    1
    20    13    32    1
    21     6     5    2
    22    10    11    1
    23    19    20    1
    24     5     4   am
    25    23    20    1
    26    23    24    1
    27    29    30    1
    28    27    24    1
    29    30    31    2
    30    32    31    2
    31    32    33    1
    32    33    34   am
    33     4     2    1
    34    24    25    1
    35    24    26    1
    36     1     2    1
    37    34    35    2
    38    34    36    1
    39    37    36   ar
    40    37    38   ar
    41     2     3    1
    42    36    42   ar
    43    38    39   ar
    44    42    41   ar
    45    39    41   ar
    46    39    40    1
