@<TRIPOS>MOLECULE
4fof_VRB_A_1.pdb
 43 46 0 0 0
SMALL
GASTEIGER

@<TRIPOS>ATOM
      1  C01       17.6300   63.4680   44.2390 C.3   601  VRB601      0.0047
      2  C02       16.7400   64.5790   43.6720 C.3   601  VRB601      0.0244
      3  C03       15.2770   64.3380   43.9730 C.2   601  VRB601     -0.0142
      4  C04       14.7490   64.4950   45.1830 C.2   601  VRB601      0.0549
      5  C05       15.4190   64.9170   46.4690 C.3   601  VRB601      0.0430
      6  C06       13.3380   64.1400   45.0200 C.1   601  VRB601      0.1456
      7  O07       12.5640   64.1870   45.9610 O.2   601  VRB601     -0.2226
      8  N08       13.0090   63.7830   43.7590 N.2   601  VRB601     -0.2002
      9  C09       14.2450   63.8900   42.9630 C.3   601  VRB601      0.1404
     10  C10       14.6590   62.5800   42.2860 C.3   601  VRB601      0.0879
     11  C11       13.5450   61.7980   41.6250 C.2   601  VRB601      0.1067
     12  C12       12.5530   62.2320   40.7800 C.2   601  VRB601      0.0018
     13  C13       12.3080   63.6440   40.3080 C.3   601  VRB601      0.0331
     14  C14       11.7660   61.1320   40.4220 C.2   601  VRB601      0.0024
     15  C15       12.3130   60.0140   41.0620 C.2   601  VRB601      0.1114
     16  C16       11.8150   58.5350   40.9860 C.3   601  VRB601      0.1170
     17  C17       12.8760   57.7020   40.1770 C.2   601  VRB601      0.1114
     18  C18       12.6500   56.8860   39.0370 C.2   601  VRB601      0.0022
     19  C19       11.3400   56.6550   38.3310 C.3   601  VRB601      0.0343
     20  C20       10.4240   55.7330   39.1330 C.3   601  VRB601      0.0464
     21  C21        9.1770   55.4530   38.3350 C.2   601  VRB601      0.0507
     22  O22        8.7410   54.1890   38.2320 O.co2 601  VRB601     -0.5492
     23  O23        8.5690   56.3500   37.7940 O.co2 601  VRB601     -0.5492
     24  C24       13.8530   56.3550   38.6800 C.2   601  VRB601      0.0021
     25  C25       14.8130   56.8540   39.6030 C.2   601  VRB601      0.1114
     26  N26       14.1780   57.6380   40.4690 N.2   601  VRB601     -0.4104
     27  C27       16.2520   56.6000   39.7240 C.3   601  VRB601      0.1181
     28  C28       17.1460   56.1020   38.7980 C.2   601  VRB601      0.1254
     29  N29       17.1070   56.1560   37.4030 N.2   601  VRB601     -0.3375
     30  C30       18.2140   55.5490   36.9260 C.1   601  VRB601      0.2000
     31  O31       18.5030   55.4090   35.7490 O.2   601  VRB601     -0.2096
     32  C32       18.9810   55.0960   38.0170 C.2   601  VRB601      0.0706
     33  C33       18.3390   55.4410   39.1580 C.2   601  VRB601      0.0128
     34  C34       18.8150   55.1550   40.5520 C.3   601  VRB601      0.0339
     35  C35       20.3000   54.3820   37.9360 C.3   601  VRB601      0.0390
     36  C36       21.3550   55.4730   37.8740 C.3   601  VRB601      0.0058
     37  C37       14.0870   55.4270   37.5180 C.3   601  VRB601      0.0331
     38  N38       13.4020   60.4420   41.7850 N.2   601  VRB601     -0.4107
     39  C39       10.5590   61.1370   39.5080 C.3   601  VRB601      0.0402
     40  C40        9.3420   61.7760   40.1800 C.3   601  VRB601      0.1188
     41  C41        8.6550   60.7440   41.0290 C.2   601  VRB601      0.3652
     42  O42        8.7130   60.8120   42.2340 O.co2 601  VRB601     -0.2456
     43  O43        7.9840   59.7470   40.4390 O.co2 601  VRB601     -0.2456
@<TRIPOS>UNITY_ATOM_ATTR
22 1
charge -1
@<TRIPOS>BOND
     1    31    30    2
     2    30    29    2
     3    30    32    1
     4    29    28    2
     5    37    24    1
     6    23    21   ar
     7    36    35    1
     8    35    32    1
     9    32    33    2
    10    22    21   ar
    11    19    18    1
    12    19    20    1
    13    21    20    1
    14    24    18    2
    15    24    25    1
    16    28    33    1
    17    28    27    1
    18    18    17    1
    19    33    34    1
    20    39    40    1
    21    39    14    1
    22    25    27    1
    23    25    26    2
    24    17    26    2
    25    17    16    1
    26    40    41    1
    27    13    12    1
    28    14    12    2
    29    14    15    1
    30    43    41   ar
    31    12    11    1
    32    16    15    1
    33    41    42   ar
    34    15    38    2
    35    11    38    2
    36    11    10    1
    37    10     9    1
    38     9     8    1
    39     9     3    1
    40     2     3    1
    41     2     1    1
    42     8     6    2
    43     3     4    2
    44     6     4    1
    45     6     7    2
    46     4     5    1
