@<TRIPOS>MOLECULE
4fom_FUC_A_1.pdb
 10 10 0 0 0
SMALL
GASTEIGER

@<TRIPOS>ATOM
      1  C1        13.1540   18.9680  -17.9410 C.3   411  FUC411      0.1776
      2  C2        11.9930   19.9120  -18.2350 C.3   411  FUC411      0.2141
      3  C3        11.2940   19.5280  -19.5340 C.3   411  FUC411      0.2172
      4  C4        10.9980   18.0340  -19.5740 C.3   411  FUC411      0.2116
      5  C5        12.2270   17.2220  -19.1850 C.3   411  FUC411      0.1483
      6  C6        11.9090   15.7320  -19.1450 C.3   411  FUC411      0.0349
      7  O2        12.4750   21.2330  -18.3320 O.3   411  FUC411     -0.2176
      8  O3        10.0890   20.2500  -19.6510 O.3   411  FUC411     -0.2175
      9  O4         9.9410   17.7400  -18.6890 O.3   411  FUC411     -0.2177
     10  O5        12.6840   17.6390  -17.9180 O.3   411  FUC411     -0.3508
@<TRIPOS>BOND
     1     8     3    1
     2     4     3    1
     3     4     5    1
     4     4     9    1
     5     3     2    1
     6     5     6    1
     7     5    10    1
     8     7     2    1
     9     2     1    1
    10     1    10    1
