@<TRIPOS>MOLECULE
4for_FLP_A_1.pdb
 18 19 0 0 0
SMALL
GASTEIGER

@<TRIPOS>ATOM
      1  C          6.3150   14.2970   13.2820 C.ar  711  FLP711      0.0000
      2  C1         7.5450   14.2800   13.9600 C.ar  711  FLP711      0.0001
      3  C2         8.7580   14.3390   13.2460 C.ar  711  FLP711      0.0022
      4  C3         8.6900   14.3740   11.8360 C.ar  711  FLP711      0.0001
      5  C4         7.4670   14.3910   11.1500 C.ar  711  FLP711      0.0000
      6  C5         6.2770   14.3420   11.8810 C.ar  711  FLP711      0.0000
      7  C6        10.1220   14.2950   13.9010 C.ar  711  FLP711      0.0275
      8  C7        11.0880   13.6380   13.1280 C.ar  711  FLP711      0.0019
      9  C8        12.4020   13.5110   13.5720 C.ar  711  FLP711     -0.0036
     10  C9        12.8070   14.0150   14.8320 C.ar  711  FLP711     -0.0096
     11  C10       11.8640   14.6550   15.6600 C.ar  711  FLP711      0.0259
     12  C11       10.5370   14.8250   15.2740 C.ar  711  FLP711      0.1398
     13  C12       14.1960   13.8130   15.3470 C.3   711  FLP711      0.1257
     14  C13       14.5970   15.0640   16.1150 C.3   711  FLP711      0.0166
     15  C14       15.2380   13.1700   14.3310 C.2   711  FLP711      0.3683
     16  O         16.4750   13.2340   14.5370 O.co2 711  FLP711     -0.2453
     17  O1        14.9340   12.6310   13.2360 O.co2 711  FLP711     -0.2453
     18  F          9.7440   15.4810   16.1800 F     711  FLP711     -0.2042
@<TRIPOS>BOND
     1     5     4   ar
     2     5     6   ar
     3     4     3   ar
     4     6     1   ar
     5     8     9   ar
     6     8     7   ar
     7    17    15   ar
     8     3     7    1
     9     3     2   ar
    10     1     2   ar
    11     9    10   ar
    12     7    12   ar
    13    15    16   ar
    14    15    13    1
    15    10    13    1
    16    10    11   ar
    17    12    11   ar
    18    12    18    1
    19    13    14    1
