@<TRIPOS>MOLECULE
4for_III_B_1.pdb
 45 45 0 0 0
SMALL
GASTEIGER

@<TRIPOS>ATOM
      1  N          4.4150    7.2390   32.8970 N.3   681  LEU681     -0.1231
      2  CA         4.3500    8.6780   32.6710 C.3   681  LEU681      0.1693
      3  C          5.4660    9.4170   33.4250 C.2   681  LEU681      0.2592
      4  O          5.8790   10.5020   33.0040 O.2   681  LEU681     -0.2718
      5  CB         2.9640    9.2330   33.0770 C.3   681  LEU681      0.0284
      6  CG         2.3480   10.4230   32.3070 C.3   681  LEU681      0.0019
      7  CD1        1.5510    9.9570   31.0820 C.3   681  LEU681      0.0001
      8  CD2        1.4860   11.3030   33.2190 C.3   681  LEU681      0.0001
      9  N          5.9720    8.8230   34.5130 N.am  682  GLU682     -0.1966
     10  CA         6.8670    9.5440   35.4460 C.3   682  GLU682      0.1733
     11  C          8.3750    9.1390   35.5440 C.2   682  GLU682      0.2616
     12  O          9.2280    9.8310   34.9800 O.2   682  GLU682     -0.2715
     13  CB         6.2180    9.6640   36.8540 C.3   682  GLU682      0.0429
     14  CG         5.1550   10.7590   36.9920 C.3   682  GLU682      0.1163
     15  CD         5.7400   12.1550   37.2320 C.2   682  GLU682      0.3649
     16  OE1        6.5340   12.6520   36.3950 O.co2 682  GLU682     -0.2457
     17  OE2        5.3940   12.7750   38.2630 O.co2 682  GLU682     -0.2457
     18  N          8.6880    8.0400   36.2480 N.am  683  ALA683     -0.1963
     19  CA        10.0390    7.8010   36.8120 C.3   683  ALA683      0.1728
     20  C         10.9470    6.9210   35.9390 C.2   683  ALA683      0.2616
     21  O         10.4870    6.2940   34.9790 O.2   683  ALA683     -0.2715
     22  CB         9.9310    7.1980   38.2210 C.3   683  ALA683      0.0334
     23  N         12.2330    6.8630   36.2890 N.am  684  CYS684     -0.1954
     24  CA        13.1100    5.9070   35.6150 C.3   684  CYS684      0.1843
     25  C         12.6450    4.4410   35.8870 C.2   684  CYS684      0.2625
     26  O         12.2420    4.1220   37.0110 O.2   684  CYS684     -0.2714
     27  CB        14.5320    6.1740   36.0860 C.3   684  CYS684      0.0997
     28  SG        15.8220    5.1240   35.5250 S.3   684  CYS684     -0.0797
     29  N         12.6850    3.5840   34.8590 N.am  685  ALA685     -0.1963
     30  CA        12.3730    2.1430   34.9740 C.3   685  ALA685      0.1728
     31  C         13.3210    1.3620   35.8840 C.2   685  ALA685      0.2617
     32  O         12.9880    0.2460   36.3100 O.2   685  ALA685     -0.2715
     33  CB        12.3120    1.4570   33.5890 C.3   685  ALA685      0.0334
     34  N         14.4950    1.9300   36.1600 N.am  686  PHE686     -0.1938
     35  CA        15.5240    1.2340   36.9630 C.3   686  PHE686      0.2021
     36  C         15.6980    1.9060   38.3250 C.2   686  PHE686      0.3845
     37  O         16.3030    1.2520   39.1740 O.co2 686  PHE686     -0.2437
     38  CB        16.8700    1.1350   36.2210 C.3   686  PHE686      0.0596
     39  CG        16.7250    0.7250   34.7830 C.ar  686  PHE686     -0.0199
     40  CD1       16.3460   -0.5610   34.4680 C.ar  686  PHE686     -0.0042
     41  CD2       16.8760    1.6610   33.7490 C.ar  686  PHE686     -0.0042
     42  CE1       16.1520   -0.9130   33.1410 C.ar  686  PHE686     -0.0003
     43  CE2       16.6870    1.3140   32.4070 C.ar  686  PHE686     -0.0003
     44  CZ        16.3580    0.0200   32.1000 C.ar  686  PHE686     -0.0000
     45  OXT       15.2770    3.0500   38.5970 O.co2 686  PHE686     -0.2437
@<TRIPOS>BOND
     1     7     6    1
     2    44    43   ar
     3    44    42   ar
     4     6     5    1
     5     6     8    1
     6    43    41   ar
     7     2     1    1
     8     2     5    1
     9     2     3    1
    10     4     3    2
    11    42    40   ar
    12     3     9   am
    13    33    30    1
    14    41    39   ar
    15    40    39   ar
    16     9    10    1
    17    39    38    1
    18    29    30    1
    19    29    25   am
    20    30    31    1
    21    21    20    2
    22    12    11    2
    23    10    11    1
    24    10    13    1
    25    28    27    1
    26    11    18   am
    27    24    25    1
    28    24    27    1
    29    24    23    1
    30    31    34   am
    31    31    32    2
    32    25    26    2
    33    20    23   am
    34    20    19    1
    35    34    35    1
    36    38    35    1
    37    18    19    1
    38    16    15   ar
    39    19    22    1
    40    13    14    1
    41    35    36    1
    42    14    15    1
    43    15    17   ar
    44    36    45   ar
    45    36    37   ar
