@<TRIPOS>MOLECULE
4fos_SKM_A_1.pdb
 12 12 0 0 0
SMALL
GASTEIGER

@<TRIPOS>ATOM
      1  O12      -19.5750   -6.7310  -12.7400 O.3   500  SKM500     -0.2173
      2  C8       -19.2730   -5.5400  -13.4210 C.3   500  SKM500      0.2167
      3  C6       -18.7760   -5.7410  -14.8150 C.3   500  SKM500      0.1896
      4  O7       -17.8430   -6.8260  -14.8780 O.3   500  SKM500     -0.2200
      5  C5       -18.2330   -4.4470  -15.4110 C.3   500  SKM500      0.0684
      6  C4       -18.9600   -3.2450  -15.1060 C.2   500  SKM500      0.0584
      7  C1       -18.7550   -1.9940  -15.9360 C.2   500  SKM500      0.3837
      8  O2       -17.8410   -2.0100  -16.7240 O.co2 500  SKM500     -0.2409
      9  O3       -19.5250   -1.0220  -15.7410 O.co2 500  SKM500     -0.2409
     10  C10      -19.9610   -3.1330  -14.0050 C.2   500  SKM500      0.0111
     11  C9       -20.2330   -4.4130  -13.1630 C.3   500  SKM500      0.2066
     12  O11      -21.5700   -4.8610  -13.5960 O.3   500  SKM500     -0.2155
@<TRIPOS>BOND
     1     8     7   ar
     2     7     9   ar
     3     7     6    1
     4     5     6    1
     5     5     3    1
     6     6    10    2
     7     4     3    1
     8     3     2    1
     9    10    11    1
    10    12    11    1
    11     2    11    1
    12     2     1    1
