@<TRIPOS>MOLECULE
4fov_CXS_A_1.pdb
 14 14 0 0 0
SMALL
GASTEIGER

@<TRIPOS>ATOM
      1  S         -2.9140   -5.2480  -32.9890 S.3   701  CXS701     -0.1960
      2  O1        -1.7750   -5.9030  -32.3890 O.3   701  CXS701     -0.3075
      3  O2        -3.7690   -5.0110  -31.8440 O.3   701  CXS701     -0.3075
      4  O3        -2.5350   -3.9970  -33.6420 O.3   701  CXS701     -0.3075
      5  C1        -3.7140   -6.2880  -34.1630 C.3   701  CXS701      0.1067
      6  C2        -4.9280   -5.5600  -34.7220 C.3   701  CXS701      0.0403
      7  C3        -6.0350   -6.5610  -35.1280 C.3   701  CXS701      0.0903
      8  N         -5.5740   -7.4890  -36.1970 N.3   701  CXS701     -0.2194
      9  C4        -5.9710   -7.0110  -37.5390 C.3   701  CXS701      0.0728
     10  C5        -5.6460   -8.0520  -38.5770 C.3   701  CXS701      0.0174
     11  C6        -5.9980   -7.5450  -39.9680 C.3   701  CXS701      0.0014
     12  C7        -7.4720   -7.2750  -40.0300 C.3   701  CXS701      0.0001
     13  C8        -7.7790   -6.1800  -39.0500 C.3   701  CXS701      0.0014
     14  C9        -7.4350   -6.6230  -37.6170 C.3   701  CXS701      0.0174
@<TRIPOS>BOND
     1    12    11    1
     2    12    13    1
     3    11    10    1
     4    13    14    1
     5    10     9    1
     6    14     9    1
     7     9     8    1
     8     8     7    1
     9     7     6    1
    10     6     5    1
    11     5     1    1
    12     4     1    1
    13     1     2    1
    14     1     3    1
