@<TRIPOS>MOLECULE
4foy_D53_A_1.pdb
 14 14 0 0 0
SMALL
GASTEIGER

@<TRIPOS>ATOM
      1  CAD       -6.2470   -7.4780  -41.2150 C.ar  701  D53701     -0.0000
      2  CAE       -6.9610   -8.2060  -40.2500 C.ar  701  D53701     -0.0003
      3  CAF       -5.4590   -6.3750  -40.8510 C.ar  701  D53701     -0.0003
      4  CAG       -6.8910   -7.8260  -38.9070 C.ar  701  D53701     -0.0029
      5  CAH       -5.3940   -5.9950  -39.5070 C.ar  701  D53701     -0.0029
      6  CAI       -4.7130   -6.1930  -35.0800 C.3   701  D53701      0.1105
      7  CAJ       -3.4290   -6.5400  -34.3270 C.3   701  D53701      0.1240
      8  CAK       -6.0290   -6.3050  -37.0800 C.3   701  D53701      0.1150
      9  CAM       -6.1260   -6.7140  -38.5430 C.ar  701  D53701     -0.0048
     10  NAL       -4.8250   -6.8080  -36.4130 N.3   701  D53701     -0.2116
     11  OAA       -1.5910   -5.9280  -32.4830 O.3   701  D53701     -0.3074
     12  OAB       -2.4720   -4.1130  -33.8150 O.3   701  D53701     -0.3074
     13  OAC       -3.8410   -5.1060  -32.0690 O.3   701  D53701     -0.3074
     14  SAN       -2.8320   -5.3530  -33.1140 S.3   701  D53701     -0.1946
@<TRIPOS>BOND
     1     1     3   ar
     2     1     2   ar
     3     3     5   ar
     4     2     4   ar
     5     5     9   ar
     6     4     9   ar
     7     9     8    1
     8     8    10    1
     9    10     6    1
    10     6     7    1
    11     7    14    1
    12    12    14    1
    13    14    11    1
    14    14    13    1
