@<TRIPOS>MOLECULE
4fp2_IJ6_A_1.pdb
 14 14 0 0 0
SMALL
GASTEIGER

@<TRIPOS>ATOM
      1  CAH        6.0290   -7.2590   38.9010 C.3   701  IJ6701      0.0014
      2  CAE        6.7200   -8.1770   39.8680 C.3   701  IJ6701      0.0000
      3  CAD        8.0650   -7.6940   40.3060 C.3   701  IJ6701      0.0000
      4  CAF        8.1790   -6.2040   40.2150 C.3   701  IJ6701      0.0000
      5  CAI        8.0160   -5.7250   38.8050 C.3   701  IJ6701      0.0014
      6  CAM        6.9910   -6.5010   38.0310 C.3   701  IJ6701      0.0174
      7  CAK        6.2120   -5.6100   37.0920 C.3   701  IJ6701      0.0887
      8  NAL        5.0050   -6.2010   36.5700 N.3   701  IJ6701     -0.2163
      9  CAG        4.7240   -5.6650   35.2190 C.3   701  IJ6701      0.1101
     10  CAJ        3.4160   -6.1470   34.5590 C.3   701  IJ6701      0.1240
     11  SAN        2.7970   -5.1050   33.2880 S.3   701  IJ6701     -0.1946
     12  OAC        2.3400   -3.8720   33.9050 O.3   701  IJ6701     -0.3074
     13  OAB        1.6700   -5.7920   32.6400 O.3   701  IJ6701     -0.3074
     14  OAA        3.8800   -4.7660   32.2680 O.3   701  IJ6701     -0.3074
@<TRIPOS>BOND
     1    14    11    1
     2    13    11    1
     3    11    12    1
     4    11    10    1
     5    10     9    1
     6     9     8    1
     7     8     7    1
     8     7     6    1
     9     6     5    1
    10     6     1    1
    11     5     4    1
    12     1     2    1
    13     2     3    1
    14     4     3    1
