@<TRIPOS>MOLECULE
4fp3_IJ2_A_1.pdb
 13 13 0 0 0
SMALL
GASTEIGER

@<TRIPOS>ATOM
      1  CAF       -7.5090   -7.8120  -38.5370 C.ar  701  IJ2701      0.0380
      2  CAD       -7.3750   -7.7340  -39.9680 C.ar  701  IJ2701      0.0435
      3  CAE       -6.2890   -6.8840  -40.1840 C.ar  701  IJ2701      0.1792
      4  OAK       -5.8200   -6.4920  -39.0200 O.2   701  IJ2701     -0.4529
      5  CAL       -6.4940   -7.0030  -38.0200 C.ar  701  IJ2701      0.1448
      6  CAI       -6.2020   -6.7570  -36.5790 C.3   701  IJ2701      0.1762
      7  NAJ       -5.2650   -5.7040  -36.3140 N.pl3 701  IJ2701     -0.2269
      8  CAG       -4.4100   -6.0600  -35.2260 C.2   701  IJ2701      0.0966
      9  CAH       -3.6460   -4.9320  -34.6230 C.2   701  IJ2701      0.0954
     10  SAM       -2.8210   -5.2640  -33.1050 S.3   701  IJ2701     -0.1744
     11  OAC       -1.4340   -4.7970  -33.1490 O.3   701  IJ2701     -0.3032
     12  OAB       -2.8150   -6.7220  -32.9230 O.3   701  IJ2701     -0.3032
     13  OAA       -3.5710   -4.6300  -32.0130 O.3   701  IJ2701     -0.3032
@<TRIPOS>BOND
     1     3     2   ar
     2     3     4   ar
     3     2     1   ar
     4     4     5   ar
     5     1     5   ar
     6     5     6    1
     7     6     7    1
     8     7     8    1
     9     8     9    2
    10     9    10    1
    11    11    10    1
    12    10    12    1
    13    10    13    1
