@<TRIPOS>MOLECULE
4fp4_GER_A_1.pdb
 20 19 0 0 0
SMALL
GASTEIGER

@<TRIPOS>ATOM
      1  C1        19.1180   45.0170   37.2800 C.3   301  GER301      0.0300
      2  C2        19.6750   43.6940   36.8080 C.2   301  GER301     -0.0342
      3  C3        19.9970   42.7200   37.6800 C.2   301  GER301     -0.0478
      4  C4        19.8130   42.9080   39.1560 C.3   301  GER301      0.0260
      5  C5        20.5400   41.4040   37.1780 C.3   301  GER301      0.0263
      6  C6        19.3770   40.4420   36.9480 C.3   301  GER301      0.0297
      7  C7        19.9090   39.0840   36.5530 C.2   301  GER301     -0.0342
      8  C8        19.3940   38.4360   35.5070 C.2   301  GER301     -0.0478
      9  C9        18.2770   39.0570   34.7120 C.3   301  GER301      0.0260
     10  C10       19.9710   37.0910   35.1270 C.3   301  GER301      0.0263
     11  C11       19.2040   35.9280   35.7160 C.3   301  GER301      0.0297
     12  C12       19.6050   34.6520   34.9780 C.2   301  GER301     -0.0342
     13  C13       20.4170   33.7440   35.5510 C.2   301  GER301     -0.0478
     14  C14       20.9600   34.0010   36.9480 C.3   301  GER301      0.0260
     15  C15       20.7690   32.4890   34.7700 C.3   301  GER301      0.0263
     16  C16       20.2490   32.6210   33.3230 C.3   301  GER301      0.0297
     17  C17       20.7930   31.5320   32.4090 C.2   301  GER301     -0.0342
     18  C18       20.0350   30.9410   31.4620 C.2   301  GER301     -0.0478
     19  C19       20.6010   29.8730   30.5760 C.3   301  GER301      0.0260
     20  C20       18.6050   31.3290   31.2590 C.3   301  GER301      0.0260
@<TRIPOS>BOND
     1    19    18    1
     2    20    18    1
     3    18    17    2
     4    17    16    1
     5    16    15    1
     6     9     8    1
     7    15    13    1
     8    12    13    2
     9    12    11    1
    10    10     8    1
    11    10    11    1
    12     8     7    2
    13    13    14    1
    14     7     6    1
    15     2     1    1
    16     2     3    2
    17     6     5    1
    18     5     3    1
    19     3     4    1
