@<TRIPOS>MOLECULE
4fp9_SAM_A_1.pdb
 27 29 0 0 0
SMALL
GASTEIGER

@<TRIPOS>ATOM
      1  N        115.6190   84.0740   48.1200 N.3   401  SAM401     -0.1208
      2  CA       115.7840   84.9540   46.9530 C.3   401  SAM401      0.1952
      3  C        114.4810   85.0860   46.1610 C.2   401  SAM401      0.3819
      4  O        114.2330   86.1790   45.6300 O.co2 401  SAM401     -0.2441
      5  OXT      113.7320   84.0900   46.1270 O.co2 401  SAM401     -0.2441
      6  CB       116.9200   84.5000   45.9980 C.3   401  SAM401      0.0414
      7  CG       118.2960   84.3470   46.7480 C.3   401  SAM401      0.0503
      8  SD       119.6530   84.3870   45.5350 S.3   401  SAM401     -0.1761
      9  CE       119.3970   82.8230   44.7960 C.3   401  SAM401      0.0590
     10  C5'      121.1280   84.0300   46.5000 C.3   401  SAM401      0.0806
     11  C4'      121.5670   85.2320   47.2920 C.3   401  SAM401      0.1622
     12  O4'      122.6830   84.9660   48.1650 O.3   401  SAM401     -0.3153
     13  C3'      121.9950   86.4160   46.4210 C.3   401  SAM401      0.2168
     14  O3'      120.9870   87.4120   46.5170 O.3   401  SAM401     -0.2175
     15  C2'      123.3540   86.8490   47.0150 C.3   401  SAM401      0.2569
     16  O2'      123.5600   88.2560   47.1270 O.3   401  SAM401     -0.2130
     17  C1'      123.2790   86.2200   48.3910 C.3   401  SAM401      0.3185
     18  N9       124.5380   86.0250   49.1010 N.pl3 401  SAM401     -0.1439
     19  C8       125.7690   85.7000   48.5910 C.3   401  SAM401      0.3377
     20  N7       126.6840   85.4870   49.5070 N.2   401  SAM401     -0.2095
     21  C5       126.0110   85.6940   50.7010 C.2   401  SAM401      0.2526
     22  C6       126.4090   85.5860   52.0470 C.2   401  SAM401      0.4393
     23  N6       127.6470   85.2530   52.4300 N.pl3 401  SAM401      0.2180
     24  N1       125.4720   85.8160   52.9990 N.2   401  SAM401      0.0021
     25  C2       124.2280   86.1350   52.6210 C.3   401  SAM401      0.5254
     26  N3       123.7400   86.2690   51.3860 N.2   401  SAM401     -0.0055
     27  C4       124.6870   86.0310   50.4650 C.2   401  SAM401      0.3518
@<TRIPOS>BOND
     1     9     8    1
     2     8    10    1
     3     8     7    1
     4     4     3   ar
     5     6     7    1
     6     6     2    1
     7     5     3   ar
     8     3     2    1
     9    13    14    1
    10    13    15    1
    11    13    11    1
    12    10    11    1
    13     2     1    1
    14    15    16    1
    15    15    17    1
    16    11    12    1
    17    12    17    1
    18    17    18    1
    19    19    18    1
    20    19    20    1
    21    18    27    1
    22    20    21    2
    23    27    21    1
    24    27    26    2
    25    21    22    1
    26    26    25    1
    27    22    23    1
    28    22    24    2
    29    25    24    1
