@<TRIPOS>MOLECULE
4fpc_MFY_A_1.pdb
 15 15 0 0 0
SMALL
GASTEIGER

@<TRIPOS>ATOM
      1  CAG       -5.4290   -5.6920  -39.5520 C.ar  701  MFY701     -0.0020
      2  CAE       -5.5240   -5.9220  -40.8550 C.ar  701  MFY701      0.0111
      3  CAM       -6.3390   -6.9770  -41.3330 C.ar  701  MFY701      0.0577
      4 CL         -6.4410   -7.2390  -43.0100 Cl    701  MFY701     -0.0822
      5  CAF       -7.0320   -7.7750  -40.4510 C.ar  701  MFY701      0.0111
      6  CAH       -6.9250   -7.5430  -39.0660 C.ar  701  MFY701     -0.0020
      7  CAN       -6.1380   -6.5070  -38.6290 C.ar  701  MFY701     -0.0047
      8  CAK       -6.0100   -6.2050  -37.1740 C.3   701  MFY701      0.1150
      9  NAL       -4.7110   -6.5990  -36.5340 N.3   701  MFY701     -0.2116
     10  CAI       -4.5800   -5.9190  -35.2450 C.3   701  MFY701      0.1105
     11  CAJ       -3.3280   -6.2620  -34.5230 C.3   701  MFY701      0.1240
     12  SAO       -2.6490   -5.0670  -33.3950 S.3   701  MFY701     -0.1946
     13  OAC       -1.4310   -5.6710  -32.7960 O.3   701  MFY701     -0.3074
     14  OAB       -3.6610   -4.7420  -32.3150 O.3   701  MFY701     -0.3074
     15  OAA       -2.3100   -3.8810  -34.1170 O.3   701  MFY701     -0.3074
@<TRIPOS>BOND
     1     4     3    1
     2     3     2   ar
     3     3     5   ar
     4     2     1   ar
     5     5     6   ar
     6     1     7   ar
     7     6     7   ar
     8     7     8    1
     9     8     9    1
    10     9    10    1
    11    10    11    1
    12    11    12    1
    13    15    12    1
    14    12    13    1
    15    12    14    1
