@<TRIPOS>MOLECULE
4fpd_RET_A_1.pdb
 20 20 0 0 0
SMALL
GASTEIGER

@<TRIPOS>ATOM
      1  C1        14.8280   45.1610    0.0700 C.3   301  RET301      0.0183
      2  C2        14.7590   46.0770   -1.1860 C.3   301  RET301      0.0044
      3  C3        13.9040   47.2610   -1.0570 C.3   301  RET301      0.0047
      4  C4        14.4120   48.1800    0.1060 C.3   301  RET301      0.0217
      5  C5        14.7830   47.3970    1.3600 C.2   301  RET301     -0.0479
      6  C6        14.9880   46.0140    1.3870 C.2   301  RET301     -0.0307
      7  C7        15.3570   45.3800    2.6920 C.2   301  RET301     -0.0052
      8  C8        15.6060   44.1050    3.0080 C.2   301  RET301     -0.0046
      9  C9        15.9820   43.5820    4.3090 C.2   301  RET301     -0.0219
     10  C10       16.1810   42.2470    4.3730 C.2   301  RET301     -0.0043
     11  C11       16.7030   41.2520    5.4760 C.2   301  RET301     -0.0007
     12  C12       16.8320   40.1160    5.2410 C.2   301  RET301     -0.0046
     13  C13       17.3510   39.0840    6.1240 C.2   301  RET301     -0.0261
     14  C14       17.4000   37.8130    5.5210 C.2   301  RET301     -0.0300
     15  C15       17.6680   36.4800    5.9790 C.3   301  RET301      0.0304
     16  C16       13.5480   44.3160    0.1270 C.3   301  RET301      0.0043
     17  C17       16.0220   44.2430   -0.2140 C.3   301  RET301      0.0043
     18  C18       14.9090   48.3110    2.5650 C.3   301  RET301      0.0260
     19  C19       16.1240   44.5150    5.4810 C.3   301  RET301      0.0310
     20  C20       17.8720   39.3230    7.4590 C.3   301  RET301      0.0307
@<TRIPOS>BOND
     1     2     3    1
     2     2     1    1
     3     3     4    1
     4    17     1    1
     5     1    16    1
     6     1     6    1
     7     4     5    1
     8     5     6    2
     9     5    18    1
    10     6     7    1
    11     7     8    2
    12     8     9    1
    13     9    10    2
    14     9    19    1
    15    10    11    1
    16    12    11    2
    17    12    13    1
    18    14    15    1
    19    14    13    2
    20    13    20    1
