@<TRIPOS>MOLECULE
4fpe_0H9_A_1.pdb
 16 16 0 0 0
SMALL
GASTEIGER

@<TRIPOS>ATOM
      1  CAA       -7.9990   -8.4750  -42.4840 C.3   701  0H9701      0.2525
      2  CAE       -7.3790   -7.7350  -38.3840 C.ar  701  0H9701      0.0002
      3  CAF       -5.8120   -5.9670  -38.9520 C.ar  701  0H9701      0.0002
      4  CAG       -7.5480   -8.0290  -39.7390 C.ar  701  0H9701      0.0366
      5  CAH       -5.9890   -6.2650  -40.3090 C.ar  701  0H9701      0.0366
      6  CAI       -4.8480   -6.2090  -34.6600 C.3   701  0H9701      0.1105
      7  CAJ       -6.3160   -6.3850  -36.5370 C.3   701  0H9701      0.1150
      8  CAK       -3.5540   -6.6260  -33.9510 C.3   701  0H9701      0.1240
      9  CAN       -6.5110   -6.6970  -38.0020 C.ar  701  0H9701     -0.0046
     10  CAO       -6.8640   -7.2900  -40.6990 C.ar  701  0H9701      0.1387
     11  NAL       -5.1030   -6.9000  -35.9500 N.3   701  0H9701     -0.2116
     12  OAB       -2.5430   -4.2850  -33.5000 O.3   701  0H9701     -0.3074
     13  OAC       -3.9220   -5.1900  -31.7410 O.3   701  0H9701     -0.3074
     14  OAD       -1.7250   -6.1060  -32.1130 O.3   701  0H9701     -0.3074
     15  OAM       -7.0300   -7.5670  -42.0570 O.3   701  0H9701     -0.4714
     16  SAP       -2.9230   -5.4850  -32.7710 S.3   701  0H9701     -0.1946
@<TRIPOS>BOND
     1     1    15    1
     2    15    10    1
     3    10     5   ar
     4    10     4   ar
     5     5     3   ar
     6     4     2   ar
     7     3     9   ar
     8     2     9   ar
     9     9     7    1
    10     7    11    1
    11    11     6    1
    12     6     8    1
    13     8    16    1
    14    12    16    1
    15    16    14    1
    16    16    13    1
