@<TRIPOS>MOLECULE
4fpf_JKK_A_1.pdb
 15 15 0 0 0
SMALL
GASTEIGER

@<TRIPOS>ATOM
      1  CAE       -7.2120   -8.0560  -39.9300 C.ar  701  JKK701      0.0006
      2  CAF       -6.4430   -7.3280  -40.8120 C.ar  701  JKK701      0.0114
      3  CAG       -7.1700   -7.7390  -38.5440 C.ar  701  JKK701     -0.0028
      4  CAH       -5.6290   -6.0220  -39.0290 C.ar  701  JKK701      0.0085
      5  CAI       -4.7930   -6.0900  -34.8030 C.3   701  JKK701      0.1105
      6  CAJ       -3.4860   -6.5060  -34.1100 C.3   701  JKK701      0.1240
      7  CAK       -6.3190   -6.3720  -36.6020 C.3   701  JKK701      0.1151
      8  CAM       -5.6630   -6.3310  -40.3900 C.ar  701  JKK701      0.0574
      9  CAN       -6.4070   -6.7490  -38.1360 C.ar  701  JKK701     -0.0040
     10  NAL       -5.0980   -6.8220  -35.9800 N.3   701  JKK701     -0.2116
     11  OAA       -2.5600   -4.1200  -33.5440 O.3   701  JKK701     -0.3074
     12  OAB       -3.8380   -5.1750  -31.8130 O.3   701  JKK701     -0.3074
     13  OAC       -1.6220   -5.9640  -32.3010 O.3   701  JKK701     -0.3074
     14  SAO       -2.8460   -5.3870  -32.8840 S.3   701  JKK701     -0.1946
     15 CL         -4.6950   -5.4100  -41.4650 Cl    701  JKK701     -0.0823
@<TRIPOS>BOND
     1    15     8    1
     2     2     8   ar
     3     2     1   ar
     4     8     4   ar
     5     1     3   ar
     6     4     9   ar
     7     3     9   ar
     8     9     7    1
     9     7    10    1
    10    10     5    1
    11     5     6    1
    12     6    14    1
    13    11    14    1
    14    14    13    1
    15    14    12    1
