@<TRIPOS>MOLECULE
4fpg_IH9_A_1.pdb
 15 15 0 0 0
SMALL
GASTEIGER

@<TRIPOS>ATOM
      1  OAD       -2.7200   -4.3040  -33.5780 O.3   701  IH9701     -0.3032
      2  SAO       -2.8060   -5.4990  -32.6980 S.3   701  IH9701     -0.1744
      3  OAA       -3.7650   -5.2740  -31.5740 O.3   701  IH9701     -0.3032
      4  OAB       -1.4410   -5.8370  -32.1150 O.3   701  IH9701     -0.3032
      5  CAJ       -3.4060   -6.7870  -33.7340 C.2   701  IH9701      0.0954
      6  CAI       -4.5760   -6.4110  -34.6240 C.2   701  IH9701      0.0965
      7  NAL       -4.8760   -7.3210  -35.7230 N.pl3 701  IH9701     -0.2302
      8  CAK       -6.1060   -6.8660  -36.3840 C.3   701  IH9701      0.1387
      9  CAN       -6.1390   -6.9830  -37.9140 C.ar  701  IH9701      0.0025
     10  CAH       -5.3300   -6.1340  -38.6760 C.ar  701  IH9701      0.0395
     11  CAG       -6.9500   -7.9090  -38.5130 C.ar  701  IH9701     -0.0024
     12  CAE       -6.9730   -8.0120  -39.9700 C.ar  701  IH9701      0.0030
     13  CAF       -6.1820   -7.1820  -40.7140 C.ar  701  IH9701      0.0420
     14  CAM       -5.3420   -6.2320  -40.1050 C.ar  701  IH9701      0.1955
     15  OAC       -4.5460   -5.3880  -40.8750 O.3   701  IH9701     -0.2866
@<TRIPOS>BOND
     1    15    14    1
     2    13    14   ar
     3    13    12   ar
     4    14    10   ar
     5    12    11   ar
     6    10     9   ar
     7    11     9   ar
     8     9     8    1
     9     8     7    1
    10     7     6    1
    11     6     5    2
    12     5     2    1
    13     1     2    1
    14     2     4    1
    15     2     3    1
