@<TRIPOS>MOLECULE
4fph_0V7_A_1.pdb
 15 15 0 0 0
SMALL
GASTEIGER

@<TRIPOS>ATOM
      1  OAC       -3.8970   -5.0610  -31.9560 O.3   701  0V7701     -0.3074
      2  SAO       -2.8480   -5.3560  -32.9830 S.3   701  0V7701     -0.1946
      3  OAA       -1.6390   -5.9210  -32.3650 O.3   701  0V7701     -0.3074
      4  OAB       -2.4740   -4.1310  -33.6950 O.3   701  0V7701     -0.3074
      5  CAJ       -3.4810   -6.5300  -34.1980 C.3   701  0V7701      0.1240
      6  CAI       -4.7710   -6.1900  -34.9190 C.3   701  0V7701      0.1105
      7  NAL       -4.8000   -6.6570  -36.2870 N.3   701  0V7701     -0.2116
      8  CAK       -6.0900   -6.4400  -36.8950 C.3   701  0V7701      0.1151
      9  CAN       -6.1790   -6.7950  -38.3460 C.ar  701  0V7701     -0.0026
     10  CAH       -5.4550   -6.0850  -39.2750 C.ar  701  0V7701      0.0268
     11  CAM       -5.5390   -6.4320  -40.6380 C.ar  701  0V7701      0.1399
     12  FAD       -4.8500   -5.7610  -41.5740 F     701  0V7701     -0.2042
     13  CAF       -6.3670   -7.5190  -41.0220 C.ar  701  0V7701      0.0296
     14  CAE       -7.0980   -8.2380  -40.0800 C.ar  701  0V7701      0.0020
     15  CAG       -7.0090   -7.9020  -38.7490 C.ar  701  0V7701     -0.0027
@<TRIPOS>BOND
     1    12    11    1
     2    13    11   ar
     3    13    14   ar
     4    11    10   ar
     5    14    15   ar
     6    10     9   ar
     7    15     9   ar
     8     9     8    1
     9     8     7    1
    10     7     6    1
    11     6     5    1
    12     5     2    1
    13     4     2    1
    14     2     3    1
    15     2     1    1
