@<TRIPOS>MOLECULE
4fpj_D8I_A_1.pdb
 16 16 0 0 0
SMALL
GASTEIGER

@<TRIPOS>ATOM
      1  CAA       -4.4350   -4.2880  -40.5670 C.3   701  D8I701      0.2525
      2  OAM       -5.1360   -5.3350  -41.1280 O.3   701  D8I701     -0.4714
      3  CAO       -5.8120   -6.2070  -40.2950 C.ar  701  D8I701      0.1385
      4  CAH       -5.7320   -6.0720  -38.9180 C.ar  701  D8I701      0.0340
      5  CAG       -6.5760   -7.2340  -40.8240 C.ar  701  D8I701      0.0369
      6  CAE       -7.2630   -8.1210  -40.0030 C.ar  701  D8I701      0.0028
      7  CAF       -7.1780   -7.9870  -38.6290 C.ar  701  D8I701     -0.0027
      8  CAN       -6.4160   -6.9560  -38.0880 C.ar  701  D8I701     -0.0018
      9  CAJ       -6.2850   -6.7700  -36.6100 C.3   701  D8I701      0.1151
     10  NAL       -4.9630   -6.9260  -36.0690 N.3   701  D8I701     -0.2116
     11  CAI       -4.8390   -6.2670  -34.7990 C.3   701  D8I701      0.1105
     12  CAK       -3.6180   -6.6330  -34.0110 C.3   701  D8I701      0.1240
     13  SAP       -2.9280   -5.4940  -32.8480 S.3   701  D8I701     -0.1946
     14  OAD       -2.5250   -4.2640  -33.5520 O.3   701  D8I701     -0.3074
     15  OAC       -1.6980   -6.0890  -32.2930 O.3   701  D8I701     -0.3074
     16  OAB       -3.8740   -5.1860  -31.7640 O.3   701  D8I701     -0.3074
@<TRIPOS>BOND
     1     2     1    1
     2     2     3    1
     3     5     3   ar
     4     5     6   ar
     5     3     4   ar
     6     6     7   ar
     7     4     8   ar
     8     7     8   ar
     9     8     9    1
    10     9    10    1
    11    10    11    1
    12    11    12    1
    13    12    13    1
    14    14    13    1
    15    13    15    1
    16    13    16    1
