@<TRIPOS>MOLECULE
4fpk_IJ1_A_1.pdb
 15 15 0 0 0
SMALL
GASTEIGER

@<TRIPOS>ATOM
      1  CAA       -4.8770   -5.6860  -41.3260 C.3   701  IJ1701      0.0310
      2  CAM       -5.7390   -6.3620  -40.2650 C.ar  701  IJ1701     -0.0221
      3  CAH       -5.6090   -6.0120  -38.9500 C.ar  701  IJ1701     -0.0071
      4  CAF       -6.6900   -7.3750  -40.6550 C.ar  701  IJ1701     -0.0043
      5  CAE       -7.4720   -8.0060  -39.6930 C.ar  701  IJ1701     -0.0006
      6  CAG       -7.3390   -7.6440  -38.3090 C.ar  701  IJ1701     -0.0029
      7  CAN       -6.4370   -6.6670  -37.9400 C.ar  701  IJ1701     -0.0051
      8  CAK       -6.2740   -6.2830  -36.4980 C.3   701  IJ1701      0.1150
      9  NAL       -4.9340   -6.2210  -36.0430 N.3   701  IJ1701     -0.2116
     10  CAI       -4.8740   -6.2820  -34.5620 C.3   701  IJ1701      0.1105
     11  CAJ       -3.5220   -6.6000  -33.9600 C.3   701  IJ1701      0.1240
     12  SAO       -2.8570   -5.4330  -32.7700 S.3   701  IJ1701     -0.1946
     13  OAD       -1.6000   -6.0040  -32.1560 O.3   701  IJ1701     -0.3074
     14  OAC       -3.8680   -5.1520  -31.6670 O.3   701  IJ1701     -0.3074
     15  OAB       -2.5590   -4.2000  -33.5050 O.3   701  IJ1701     -0.3074
@<TRIPOS>BOND
     1     1     2    1
     2     4     2   ar
     3     4     5   ar
     4     2     3   ar
     5     5     6   ar
     6     3     7   ar
     7     6     7   ar
     8     7     8    1
     9     8     9    1
    10     9    10    1
    11    10    11    1
    12    11    12    1
    13    15    12    1
    14    12    13    1
    15    12    14    1
