@<TRIPOS>MOLECULE
4fpl_7HV_A_1.pdb
 16 16 0 0 0
SMALL
GASTEIGER

@<TRIPOS>ATOM
      1  CAH       -5.7570   -5.9180  -38.8740 C.ar  701  7HV701      0.0094
      2  CAO       -5.8440   -6.1660  -40.2300 C.ar  701  7HV701      0.0679
      3 CLE        -4.9220   -5.1910  -41.3560 Cl    701  7HV701     -0.0814
      4  CAN       -6.6780   -7.2050  -40.6900 C.ar  701  7HV701      0.0682
      5 CLD        -6.7670   -7.4740  -42.4070 Cl    701  7HV701     -0.0814
      6  CAG       -7.4280   -8.0230  -39.8050 C.ar  701  7HV701      0.0120
      7  CAF       -7.3330   -7.7720  -38.4310 C.ar  701  7HV701     -0.0020
      8  CAM       -6.5080   -6.7080  -37.9780 C.ar  701  7HV701     -0.0039
      9  CAK       -6.3630   -6.4230  -36.5660 C.3   701  7HV701      0.1151
     10  NAL       -4.9850   -6.6590  -36.0970 N.3   701  7HV701     -0.2116
     11  CAI       -4.7960   -6.0620  -34.8170 C.3   701  7HV701      0.1105
     12  CAJ       -3.4730   -6.4570  -34.1510 C.3   701  7HV701      0.1240
     13  SAP       -2.8310   -5.3440  -32.9050 S.3   701  7HV701     -0.1946
     14  OAC       -3.8620   -5.1370  -31.7980 O.3   701  7HV701     -0.3074
     15  OAB       -2.5220   -4.0590  -33.5850 O.3   701  7HV701     -0.3074
     16  OAA       -1.5920   -5.9280  -32.3400 O.3   701  7HV701     -0.3074
@<TRIPOS>BOND
     1     5     4    1
     2     3     2    1
     3     4     2   ar
     4     4     6   ar
     5     2     1   ar
     6     6     7   ar
     7     1     8   ar
     8     7     8   ar
     9     8     9    1
    10     9    10    1
    11    10    11    1
    12    11    12    1
    13    12    13    1
    14    15    13    1
    15    13    16    1
    16    13    14    1
