@<TRIPOS>MOLECULE
4fpo_LL9_B_1.pdb
 17 17 0 0 0
SMALL
GASTEIGER

@<TRIPOS>ATOM
      1  OAD       -2.5680   -4.1990  -33.5070 O.3   701  LL9701     -0.3074
      2  SAQ       -2.8100   -5.4210  -32.7930 S.3   701  LL9701     -0.1946
      3  OAB       -3.9110   -5.2370  -31.7400 O.3   701  LL9701     -0.3074
      4  OAC       -1.5900   -5.8490  -32.1120 O.3   701  LL9701     -0.3074
      5  CAJ       -3.3670   -6.5890  -33.9390 C.3   701  LL9701      0.1240
      6  CAI       -4.7290   -6.2460  -34.6100 C.3   701  LL9701      0.1105
      7  NAL       -4.9440   -6.7990  -35.9310 N.3   701  LL9701     -0.2116
      8  CAK       -6.0900   -6.1220  -36.5660 C.3   701  LL9701      0.1151
      9  CAN       -6.3370   -6.4950  -37.9400 C.ar  701  LL9701     -0.0038
     10  CAH       -5.5760   -5.9160  -38.9650 C.ar  701  LL9701      0.0116
     11  CAO       -5.8040   -6.2790  -40.2990 C.ar  701  LL9701      0.0912
     12 CL         -4.8720   -5.5610  -41.5630 Cl    701  LL9701     -0.0791
     13  CAP       -6.8080   -7.2410  -40.6100 C.ar  701  LL9701      0.1491
     14  OAM       -7.0530   -7.6070  -41.9460 O.3   701  LL9701     -0.4706
     15  CAA       -8.1620   -8.3650  -42.2170 C.3   701  LL9701      0.2525
     16  CAG       -7.5430   -7.8060  -39.6070 C.ar  701  LL9701      0.0375
     17  CAF       -7.3100   -7.4370  -38.2330 C.ar  701  LL9701      0.0003
@<TRIPOS>BOND
     1    15    14    1
     2    14    13    1
     3    12    11    1
     4    13    11   ar
     5    13    16   ar
     6    11    10   ar
     7    16    17   ar
     8    10     9   ar
     9    17     9   ar
    10     9     8    1
    11     8     7    1
    12     7     6    1
    13     6     5    1
    14     5     2    1
    15     1     2    1
    16     2     4    1
    17     2     3    1
