@<TRIPOS>MOLECULE
4fpy_0V8_A_1.pdb
 15 15 0 0 0
SMALL
GASTEIGER

@<TRIPOS>ATOM
      1  CAE        7.3440   -8.2280   39.6970 C.ar  701  0V8701      0.0002
      2  CAF        6.6180   -7.3810   40.5530 C.ar  701  0V8701      0.0067
      3  CAG        7.3050   -8.0090   38.3240 C.ar  701  0V8701     -0.0028
      4  CAH        5.8340   -6.1080   38.6630 C.ar  701  0V8701      0.0038
      5  CAI        4.8270   -6.2440   34.5650 C.3   701  0V8701      0.1105
      6  CAJ        3.5310   -6.6690   33.8730 C.3   701  0V8701      0.1240
      7  CAK        6.4610   -6.6640   36.3250 C.3   701  0V8701      0.1150
      8  CAM        5.8710   -6.3380   40.0400 C.ar  701  0V8701      0.0343
      9  CAN        6.5550   -6.9330   37.8170 C.ar  701  0V8701     -0.0043
     10  NAL        5.1130   -6.9620   35.8190 N.3   701  0V8701     -0.2116
     11  OAA        2.6590   -4.2790   33.3800 O.3   701  0V8701     -0.3074
     12  OAB        3.9300   -5.3460   31.5930 O.3   701  0V8701     -0.3074
     13  OAC        1.6630   -6.0160   32.0560 O.3   701  0V8701     -0.3074
     14  SAO        2.9070   -5.5260   32.6660 S.3   701  0V8701     -0.1946
     15 BR          4.8660   -5.1490   41.2070 Br    701  0V8701     -0.0490
@<TRIPOS>BOND
     1    12    14    1
     2    13    14    1
     3    14    11    1
     4    14     6    1
     5     6     5    1
     6     5    10    1
     7    10     7    1
     8     7     9    1
     9     9     3   ar
    10     9     4   ar
    11     3     1   ar
    12     4     8   ar
    13     1     2   ar
    14     8     2   ar
    15     8    15    1
