@<TRIPOS>MOLECULE
4fq4_IJ4_A_1.pdb
 16 16 0 0 0
SMALL
GASTEIGER

@<TRIPOS>ATOM
      1  OAD       -3.8790   -5.0170  -31.9460 O.3   701  IJ4701     -0.3032
      2  SAP       -2.8520   -5.2410  -32.9970 S.3   701  IJ4701     -0.1744
      3  OAB       -1.5890   -5.7440  -32.4270 O.3   701  IJ4701     -0.3032
      4  OAC       -2.5860   -4.0240  -33.6640 O.3   701  IJ4701     -0.3032
      5  CAJ       -3.4740   -6.3610  -34.1850 C.2   701  IJ4701      0.0954
      6  CAI       -4.7950   -5.9380  -34.8700 C.2   701  IJ4701      0.0965
      7  NAL       -5.1150   -6.6600  -36.0980 N.pl3 701  IJ4701     -0.2303
      8  CAK       -6.3600   -6.2190  -36.6830 C.3   701  IJ4701      0.1386
      9  CAO       -6.4580   -6.5710  -38.1100 C.ar  701  IJ4701     -0.0008
     10  CAH       -5.6020   -5.9020  -39.0220 C.ar  701  IJ4701     -0.0046
     11  CAM       -5.6680   -6.2370  -40.4140 C.ar  701  IJ4701      0.0053
     12  CAA       -4.7910   -5.5600  -41.3930 C.3   701  IJ4701      0.0334
     13  CAN       -6.5540   -7.2140  -40.8570 C.ar  701  IJ4701      0.1361
     14  FAE       -6.5750   -7.4730  -42.0930 F     701  IJ4701     -0.2045
     15  CAF       -7.4030   -7.9010  -39.9480 C.ar  701  IJ4701      0.0290
     16  CAG       -7.3410   -7.5670  -38.5500 C.ar  701  IJ4701     -0.0003
@<TRIPOS>BOND
     1    14    13    1
     2    12    11    1
     3    13    11   ar
     4    13    15   ar
     5    11    10   ar
     6    15    16   ar
     7    10     9   ar
     8    16     9   ar
     9     9     8    1
    10     8     7    1
    11     7     6    1
    12     6     5    2
    13     5     2    1
    14     4     2    1
    15     2     3    1
    16     2     1    1
