@<TRIPOS>MOLECULE
4fq8_SKM_A_1.pdb
 12 12 0 0 0
SMALL
GASTEIGER

@<TRIPOS>ATOM
      1  O12       15.3630    4.7380   40.5260 O.3   500  SKM500     -0.2173
      2  C8        14.8590    4.2410   39.2780 C.3   500  SKM500      0.2167
      3  C6        14.3040    5.4140   38.4320 C.3   500  SKM500      0.1896
      4  O7        13.2910    6.0980   39.1510 O.3   500  SKM500     -0.2200
      5  C5        13.6960    4.8900   37.1310 C.3   500  SKM500      0.0684
      6  C4        14.7440    4.0590   36.3460 C.2   500  SKM500      0.0584
      7  C1        14.6560    3.9960   34.8070 C.2   500  SKM500      0.3837
      8  O2        13.7520    4.6670   34.3020 O.co2 500  SKM500     -0.2409
      9  O3        15.4920    3.3240   34.1440 O.co2 500  SKM500     -0.2409
     10  C10       15.7540    3.3710   36.9980 C.2   500  SKM500      0.0111
     11  C9        15.9410    3.3750   38.5260 C.3   500  SKM500      0.2066
     12  O11       17.2690    3.8510   38.7640 O.3   500  SKM500     -0.2155
@<TRIPOS>BOND
     1     9     7   ar
     2     8     7   ar
     3     7     6    1
     4     6    10    2
     5     6     5    1
     6    10    11    1
     7     5     3    1
     8     3     4    1
     9     3     2    1
    10    11    12    1
    11    11     2    1
    12     2     1    1
