@<TRIPOS>MOLECULE
4fqf_NAD_A_1.pdb
 44 48 0 0 0
SMALL
GASTEIGER

@<TRIPOS>ATOM
      1  PA        14.2950   80.2420   80.0930 P.3   702  NAD702      0.2189
      2  O1A       14.2010   78.9700   80.8980 O.3   702  NAD702     -0.4371
      3  O2A       15.4930   81.1390   80.2620 O.2   702  NAD702     -0.5170
      4  O5B       14.0900   79.8920   78.5350 O.3   702  NAD702     -0.3112
      5  C5B       14.5980   80.7070   77.4730 C.3   702  NAD702      0.1813
      6  C4B       14.9590   79.8330   76.2780 C.3   702  NAD702      0.1821
      7  O4B       16.1480   79.0900   76.5590 O.3   702  NAD702     -0.3135
      8  C3B       13.8520   78.8380   75.9650 C.3   702  NAD702      0.2184
      9  O3B       13.7760   78.7090   74.5430 O.3   702  NAD702     -0.2174
     10  C2B       14.3410   77.5430   76.5780 C.3   702  NAD702      0.2570
     11  O2B       13.8290   76.3870   75.8940 O.3   702  NAD702     -0.2130
     12  C1B       15.8610   77.6940   76.5130 C.3   702  NAD702      0.3186
     13  N9A       16.5090   76.9660   77.6310 N.pl3 702  NAD702     -0.1439
     14  C8A       15.9380   76.6650   78.8120 C.3   702  NAD702      0.3377
     15  N7A       16.7930   75.9740   79.6020 N.2   702  NAD702     -0.2095
     16  C5A       17.9320   75.8110   78.9130 C.2   702  NAD702      0.2526
     17  C6A       19.2320   75.1640   79.1540 C.2   702  NAD702      0.4393
     18  N6A       19.4890   74.5420   80.3240 N.pl3 702  NAD702      0.2180
     19  N1A       20.1560   75.2430   78.1740 N.2   702  NAD702      0.0021
     20  C2A       19.9190   75.8520   77.0030 C.3   702  NAD702      0.5254
     21  N3A       18.7570   76.4520   76.7150 N.2   702  NAD702     -0.0055
     22  C4A       17.7430   76.4600   77.6110 C.2   702  NAD702      0.3518
     23  O3        12.9820   81.1000   80.4220 O.3   702  NAD702     -0.2703
     24  PN        11.5940   80.4130   80.8730 P.3   702  NAD702      0.2189
     25  O1N       11.8890   79.2060   81.7620 O.3   702  NAD702     -0.4371
     26  O2N       10.7810   80.2260   79.6120 O.2   702  NAD702     -0.5170
     27  O5D       11.0170   81.6800   81.7020 O.3   702  NAD702     -0.3112
     28  C5D       11.1310   81.6430   83.1280 C.3   702  NAD702      0.1813
     29  C4D       11.5100   83.0440   83.6120 C.3   702  NAD702      0.1799
     30  O4D       12.4770   83.6290   82.7210 O.3   702  NAD702     -0.3327
     31  C3D       10.3310   84.0100   83.6180 C.3   702  NAD702      0.2158
     32  O3D        9.7470   84.1030   84.9230 O.3   702  NAD702     -0.2175
     33  C2D       10.9350   85.3500   83.2260 C.3   702  NAD702      0.2309
     34  O2D       11.1960   86.1130   84.4120 O.3   702  NAD702     -0.2158
     35  C1D       12.2540   85.0320   82.5280 C.3   702  NAD702      0.2263
     36  N1N       12.1390   85.3290   81.0900 N.pl3 702  NAD702     -0.2787
     37  C2N       12.8360   86.3510   80.5620 C.3   702  NAD702      0.1244
     38  C3N       12.7270   86.6420   79.2040 C.2   702  NAD702      0.0544
     39  C7N       13.4890   87.7890   78.5920 C.2   702  NAD702      0.2818
     40  O7N       12.9670   88.4810   77.7210 O.2   702  NAD702     -0.2670
     41  N7N       14.7250   88.0330   79.0350 N.am  702  NAD702     -0.0839
     42  C4N       11.8950   85.8660   78.4110 C.2   702  NAD702      0.0033
     43  C5N       11.1900   84.8060   78.9600 C.2   702  NAD702      0.0157
     44  C6N       11.3450   84.5590   80.3170 C.2   702  NAD702      0.0633
@<TRIPOS>BOND
     1     9     8    1
     2    11    10    1
     3     8     6    1
     4     8    10    1
     5     6     7    1
     6     6     5    1
     7    12     7    1
     8    12    10    1
     9    12    13    1
    10    21    20    1
    11    21    22    2
    12    20    19    1
    13     5     4    1
    14    22    13    1
    15    22    16    1
    16    13    14    1
    17    40    39    2
    18    19    17    2
    19    42    43    1
    20    42    38    2
    21     4     1    1
    22    39    41   am
    23    39    38    1
    24    14    15    1
    25    16    17    1
    26    16    15    2
    27    43    44    2
    28    17    18    1
    29    38    37    1
    30    26    24    2
    31     1     3    2
    32     1    23    1
    33     1     2    1
    34    44    36    1
    35    23    24    1
    36    37    36    1
    37    24    27    1
    38    24    25    1
    39    36    35    1
    40    27    28    1
    41    35    30    1
    42    35    33    1
    43    30    29    1
    44    28    29    1
    45    33    31    1
    46    33    34    1
    47    29    31    1
    48    31    32    1
