@<TRIPOS>MOLECULE
4fqo_AZ3_A_1.pdb
 27 28 0 0 0
SMALL
GASTEIGER

@<TRIPOS>ATOM
      1  N2        14.8020    4.8010   25.7680 N.pl3 103  AZ3103      0.2047
      2  C7        13.9230    4.8990   24.8670 C.2   103  AZ3103      0.4766
      3  N1        14.2340    4.6250   23.5920 N.pl3 103  AZ3103      0.2047
      4  C3        12.5170    5.3300   25.2070 C.ar  103  AZ3103      0.0977
      5  C2        11.7230    5.9250   24.2220 C.ar  103  AZ3103      0.0111
      6  C1        10.4230    6.3290   24.5120 C.ar  103  AZ3103      0.0372
      7  C4        12.0000    5.1300   26.4890 C.ar  103  AZ3103      0.0111
      8  C5        10.6940    5.5290   26.7760 C.ar  103  AZ3103      0.0372
      9  C6         9.9040    6.1300   25.7930 C.ar  103  AZ3103      0.1386
     10  O1         8.6260    6.5100   26.1360 O.3   103  AZ3103     -0.4755
     11  C8         7.6980    7.1580   25.2630 C.3   103  AZ3103      0.2054
     12  C9         7.1920    6.1800   24.2070 C.3   103  AZ3103      0.0473
     13  C10        5.8340    5.5770   24.5330 C.3   103  AZ3103      0.0038
     14  C11        5.6980    4.2160   23.8530 C.3   103  AZ3103      0.0002
     15  C12        4.5340    3.4130   24.4230 C.3   103  AZ3103      0.0038
     16  C13        3.6620    2.8320   23.3050 C.3   103  AZ3103      0.0473
     17  C14        3.3560    1.3260   23.3960 C.3   103  AZ3103      0.2054
     18  O2         3.7370    0.8490   24.6790 O.3   103  AZ3103     -0.4755
     19  C15        3.3620   -0.3550   25.2340 C.ar  103  AZ3103      0.1386
     20  C16        2.0760   -0.9330   25.1240 C.ar  103  AZ3103      0.0372
     21  C17        1.7940   -2.1510   25.7550 C.ar  103  AZ3103      0.0111
     22  C20        4.3650   -0.9700   25.9540 C.ar  103  AZ3103      0.0372
     23  C19        4.0890   -2.1720   26.5680 C.ar  103  AZ3103      0.0111
     24  C18        2.8270   -2.7520   26.4890 C.ar  103  AZ3103      0.0977
     25  C21        2.6970   -4.0610   27.1950 C.2   103  AZ3103      0.4766
     26  N3         3.7480   -4.8930   27.2120 N.pl3 103  AZ3103      0.2047
     27  N4         1.6250   -4.3810   27.7660 N.pl3 103  AZ3103      0.2047
@<TRIPOS>BOND
     1    16    17    1
     2    16    15    1
     3    17    18    1
     4     3     2    2
     5    14    15    1
     6    14    13    1
     7    12    13    1
     8    12    11    1
     9     5     6   ar
    10     5     4   ar
    11     6     9   ar
    12    18    19    1
    13     2     4    1
    14     2     1    1
    15    20    19   ar
    16    20    21   ar
    17     4     7   ar
    18    19    22   ar
    19    11    10    1
    20    21    24   ar
    21     9    10    1
    22     9     8   ar
    23    22    23   ar
    24     7     8   ar
    25    24    23   ar
    26    24    25    1
    27    25    26    2
    28    25    27    1
