@<TRIPOS>MOLECULE
4fqt_0VT_A_1.pdb
 23 22 0 0 0
SMALL
GASTEIGER

@<TRIPOS>ATOM
      1  C4         7.0750   11.2900   14.2760 C.3   201  0VT201     -0.0279
      2  C5         6.4800   10.9430   15.6080 C.3   201  0VT201      0.0090
      3  C6         7.4500   10.2210   16.4840 C.2   201  0VT201      0.1306
      4  C7         7.4370   11.6090   11.3360 C.3   201  0VT201     -0.0440
      5  C8         8.8870   10.1950   16.1080 C.3   201  0VT201     -0.0061
      6  C1         4.9530   12.2370   11.1650 C.3   201  0VT201     -0.0440
      7  C2         6.1210   11.8390   12.0010 C.2   201  0VT201     -0.0796
      8  C3         5.9580   11.6910   13.3630 C.2   201  0VT201     -0.0849
      9  O9         7.0830    9.6620   17.5120 O.2   201  0VT201     -0.2977
     10  H42        7.5260   10.5090   13.9140 H     201  0VT201      0.0311
     11  H41        7.7070   12.0210   14.3770 H     201  0VT201      0.0311
     12  H51        5.6940   10.3870   15.4790 H     201  0VT201      0.0344
     13  H52        6.2140   11.7680   16.0490 H     201  0VT201      0.0344
     14  H73        7.7430   10.7030   11.5190 H     201  0VT201      0.0274
     15  H72        7.3380   11.7270   10.3740 H     201  0VT201      0.0274
     16  H71        8.0890   12.2490   11.6730 H     201  0VT201      0.0274
     17  H83        9.4060    9.8090   16.8360 H     201  0VT201      0.0306
     18  H82        9.1940   11.1030   15.9360 H     201  0VT201      0.0306
     19  H81        9.0030    9.6560   15.3050 H     201  0VT201      0.0306
     20  H11        5.1330   12.0270   10.2310 H     201  0VT201      0.0274
     21  H13        4.7980   13.1950   11.2580 H     201  0VT201      0.0274
     22  H12        4.1620   11.7510   11.4600 H     201  0VT201      0.0274
     23  H31        5.0810   11.8500   13.7460 H     201  0VT201      0.0572
@<TRIPOS>BOND
     1    20     6    1
     2    15     4    1
     3     6    21    1
     4     6    22    1
     5     6     7    1
     6     4    14    1
     7     4    16    1
     8     4     7    1
     9     7     8    2
    10     8    23    1
    11     8     1    1
    12    10     1    1
    13     1    11    1
    14     1     2    1
    15    19     5    1
    16    12     2    1
    17     2    13    1
    18     2     3    1
    19    18     5    1
    20     5     3    1
    21     5    17    1
    22     3     9    2
