@<TRIPOS>MOLECULE
4fqz_GAL_A_1.pdb
 11 11 0 0 0
SMALL
GASTEIGER

@<TRIPOS>ATOM
      1  C1        54.7690    2.2090    6.6520 C.3   401  GAL401      0.1777
      2  C2        54.5210    1.5450    5.2870 C.3   401  GAL401      0.2141
      3  C3        54.0670    2.5850    4.2680 C.3   401  GAL401      0.2173
      4  C4        52.8210    3.2830    4.7980 C.3   401  GAL401      0.2142
      5  C5        53.1510    3.9130    6.1570 C.3   401  GAL401      0.1810
      6  C6        51.9830    4.6300    6.7950 C.3   401  GAL401      0.2141
      7  O2        55.7010    0.9080    4.8280 O.3   401  GAL401     -0.2176
      8  O3        53.7750    1.9470    3.0350 O.3   401  GAL401     -0.2175
      9  O4        51.7790    2.3280    4.9450 O.3   401  GAL401     -0.2176
     10  O5        53.5790    2.8930    7.0870 O.3   401  GAL401     -0.3481
     11  O6        52.2930    5.0170    8.1250 O.3   401  GAL401     -0.2176
@<TRIPOS>BOND
     1     8     3    1
     2     3     4    1
     3     3     2    1
     4     4     9    1
     5     4     5    1
     6     7     2    1
     7     2     1    1
     8     5     6    1
     9     5    10    1
    10     1    10    1
    11     6    11    1
