@<TRIPOS>MOLECULE
4fqz_BGC_A_1.pdb
 12 12 0 0 0
SMALL
GASTEIGER

@<TRIPOS>ATOM
      1  C2        54.1850    0.5430   11.1940 C.3   402  BGC402      0.2434
      2  C3        54.1070    0.4910    9.6650 C.3   402  BGC402      0.2199
      3  C4        54.9820    1.5500    8.9890 C.3   402  BGC402      0.2144
      4  C5        56.3890    1.5860    9.6090 C.3   402  BGC402      0.1836
      5  C6        57.2290    2.7350    9.0840 C.3   402  BGC402      0.2142
      6  C1        55.6430    0.6380   11.6710 C.3   402  BGC402      0.3024
      7  O1        55.6730    0.8460   13.0390 O.3   402  BGC402     -0.1869
      8  O2        53.5800   -0.6310   11.7270 O.3   402  BGC402     -0.2148
      9  O3        52.7630    0.6800    9.2590 O.3   402  BGC402     -0.2174
     10  O4        55.0830    1.2260    7.5860 O.3   402  BGC402     -0.2176
     11  O5        56.3000    1.7460   11.0420 O.3   402  BGC402     -0.3236
     12  O6        56.4180    3.8640    8.7940 O.3   402  BGC402     -0.2176
@<TRIPOS>BOND
     1    10     3    1
     2    12     5    1
     3     3     4    1
     4     3     2    1
     5     5     4    1
     6     9     2    1
     7     4    11    1
     8     2     1    1
     9    11     6    1
    10     1     6    1
    11     1     8    1
    12     6     7    1
