@<TRIPOS>MOLECULE
4fr0_SAM_A_1.pdb
 27 29 0 0 0
SMALL
GASTEIGER

@<TRIPOS>ATOM
      1  N         -3.4990   22.9540   29.8030 N.3   401  SAM401     -0.1208
      2  CA        -4.4700   22.9200   30.8890 C.3   401  SAM401      0.1952
      3  C         -3.9390   22.0870   32.0360 C.2   401  SAM401      0.3819
      4  O         -4.2220   22.4110   33.2200 O.co2 401  SAM401     -0.2441
      5  OXT       -3.2150   21.1020   31.7660 O.co2 401  SAM401     -0.2441
      6  CB        -5.7990   22.3870   30.3490 C.3   401  SAM401      0.0414
      7  CG        -6.9970   23.1830   30.8820 C.3   401  SAM401      0.0503
      8  SD        -8.3600   23.2600   29.8800 S.3   401  SAM401     -0.1761
      9  CE        -8.4110   22.0860   28.6790 C.3   401  SAM401      0.0590
     10  C5'       -8.5360   24.7600   29.1660 C.3   401  SAM401      0.0806
     11  C4'       -7.5250   25.7440   29.7390 C.3   401  SAM401      0.1622
     12  O4'       -7.0640   26.6180   28.7140 O.3   401  SAM401     -0.3153
     13  C3'       -8.1030   26.6430   30.8110 C.3   401  SAM401      0.2168
     14  O3'       -7.0390   26.9360   31.7330 O.3   401  SAM401     -0.2175
     15  C2'       -8.5090   27.8940   30.0630 C.3   401  SAM401      0.2569
     16  O2'       -8.3980   29.0240   30.9150 O.3   401  SAM401     -0.2130
     17  C1'       -7.4250   27.9730   29.0150 C.3   401  SAM401      0.3185
     18  N9        -7.8020   28.6800   27.7630 N.pl3 401  SAM401     -0.1439
     19  C8        -8.7640   28.3260   26.8890 C.3   401  SAM401      0.3377
     20  N7        -8.7820   29.2120   25.8520 N.2   401  SAM401     -0.2095
     21  C5        -7.8230   30.1380   26.0360 C.2   401  SAM401      0.2526
     22  C6        -7.3280   31.3390   25.3200 C.2   401  SAM401      0.4393
     23  N6        -7.8600   31.7660   24.1450 N.pl3 401  SAM401      0.2180
     24  N1        -6.2990   32.0100   25.8870 N.2   401  SAM401      0.0021
     25  C2        -5.7590   31.6140   27.0610 C.3   401  SAM401      0.5254
     26  N3        -6.1640   30.5360   27.7630 N.2   401  SAM401     -0.0055
     27  C4        -7.1770   29.7760   27.3060 C.2   401  SAM401      0.3518
@<TRIPOS>BOND
     1    23    22    1
     2    22    24    2
     3    22    21    1
     4    20    21    2
     5    20    19    1
     6    24    25    1
     7    21    27    1
     8    19    18    1
     9    25    26    1
    10    27    26    2
    11    27    18    1
    12    18    17    1
    13     9     8    1
    14    12    17    1
    15    12    11    1
    16    17    15    1
    17    10    11    1
    18    10     8    1
    19    11    13    1
    20     1     2    1
    21     8     7    1
    22    15    13    1
    23    15    16    1
    24     6     7    1
    25     6     2    1
    26    13    14    1
    27     2     3    1
    28     5     3   ar
    29     3     4   ar
