@<TRIPOS>MOLECULE
4fr4_STU_A_1.pdb
 35 42 0 0 0
SMALL
GASTEIGER

@<TRIPOS>ATOM
      1  O4       -67.5510  177.1080  -82.8620 O.3   401  STU401     -0.3186
      2  C25      -68.0150  178.2250  -82.0970 C.3   401  STU401      0.2078
      3  C24      -67.2370  179.4960  -82.3380 C.3   401  STU401      0.0739
      4  C23      -66.0090  179.2920  -83.2180 C.3   401  STU401      0.1086
      5  C22      -65.2580  178.0980  -82.7240 C.3   401  STU401      0.1761
      6  C21      -66.1370  176.8360  -82.8880 C.3   401  STU401      0.1915
      7  C26      -65.8900  176.1800  -84.2660 C.3   401  STU401      0.0566
      8  N2       -65.7870  175.8960  -81.7930 N.ar  401  STU401     -0.3054
      9  C18      -66.3770  175.9040  -80.5810 C.ar  401  STU401      0.0774
     10  C19      -67.4170  176.8020  -80.0280 C.ar  401  STU401      0.0783
     11  C6       -67.8680  176.6160  -78.6850 C.ar  401  STU401      0.0293
     12  C7       -67.2550  175.5380  -77.8880 C.ar  401  STU401      0.0822
     13  C10      -66.1630  174.7090  -78.3490 C.ar  401  STU401      0.0154
     14  C11      -65.7370  174.8900  -79.7850 C.ar  401  STU401      0.0173
     15  C12      -64.7260  174.3180  -80.6130 C.ar  401  STU401      0.0171
     16  C17      -64.7590  174.9810  -81.9030 C.ar  401  STU401      0.0617
     17  C16      -63.8700  174.5480  -82.8880 C.ar  401  STU401      0.0172
     18  C15      -62.9580  173.5330  -82.5980 C.ar  401  STU401      0.0015
     19  C14      -62.9270  172.9250  -81.3300 C.ar  401  STU401      0.0001
     20  C13      -63.8130  173.3240  -80.3270 C.ar  401  STU401      0.0015
     21  C9       -65.7280  173.7950  -77.3290 C.3   401  STU401      0.1650
     22  N1       -66.5960  174.1660  -76.1740 N.2   401  STU401     -0.1976
     23  C8       -67.4170  175.1900  -76.4760 C.1   401  STU401      0.1501
     24  O5       -68.3140  175.6350  -75.6910 O.2   401  STU401     -0.2222
     25  C5       -68.9410  177.5230  -78.5150 C.ar  401  STU401      0.0180
     26  C20      -69.0940  178.2600  -79.7860 C.ar  401  STU401      0.0618
     27  C1       -70.0490  179.2450  -79.8400 C.ar  401  STU401      0.0172
     28  C2       -70.7920  179.5420  -78.6830 C.ar  401  STU401      0.0015
     29  C3       -70.5900  178.8320  -77.4730 C.ar  401  STU401      0.0001
     30  C4       -69.6450  177.8270  -77.3790 C.ar  401  STU401      0.0015
     31  N3       -68.1330  177.8050  -80.6660 N.ar  401  STU401     -0.3039
     32  O6       -64.9540  178.3730  -81.3420 O.3   401  STU401     -0.3478
     33  C27      -63.6700  177.9420  -80.8660 C.3   401  STU401      0.1743
     34  N4       -65.1610  180.5130  -83.1680 N.3   401  STU401     -0.2152
     35  C28      -65.7680  181.8330  -83.2830 C.3   401  STU401      0.1075
@<TRIPOS>BOND
     1     7     6    1
     2    35    34    1
     3     4    34    1
     4     4     5    1
     5     4     3    1
     6     6     1    1
     7     6     5    1
     8     6     8    1
     9    17    18   ar
    10    17    16   ar
    11     1     2    1
    12     5    32    1
    13    18    19   ar
    14     3     2    1
    15     2    31    1
    16    16     8   ar
    17    16    15   ar
    18     8     9   ar
    19    32    33    1
    20    19    20   ar
    21    31    10   ar
    22    31    26   ar
    23    15    20   ar
    24    15    14   ar
    25     9    10   ar
    26     9    14   ar
    27    10    11   ar
    28    27    26   ar
    29    27    28   ar
    30    26    25   ar
    31    14    13   ar
    32    11    25   ar
    33    11    12   ar
    34    28    29   ar
    35    25    30   ar
    36    13    12   ar
    37    13    21    1
    38    12    23    1
    39    29    30   ar
    40    21    22    1
    41    23    22    2
    42    23    24    2
