@<TRIPOS>MOLECULE
4fr5_SKM_A_1.pdb
 12 12 0 0 0
SMALL
GASTEIGER

@<TRIPOS>ATOM
      1  O12        7.7900   39.9090   40.2470 O.3   500  SKM500     -0.2173
      2  C8         8.2770   40.3460   38.9560 C.3   500  SKM500      0.2167
      3  C6         8.7860   39.1160   38.1740 C.3   500  SKM500      0.1896
      4  O7         9.9100   38.5990   38.8520 O.3   500  SKM500     -0.2200
      5  C5         9.2170   39.4590   36.7440 C.3   500  SKM500      0.0684
      6  C4         8.2690   40.4420   36.0030 C.2   500  SKM500      0.0584
      7  C1         8.3870   40.5600   34.4710 C.2   500  SKM500      0.3837
      8  O2         9.2050   39.7950   33.9190 O.co2 500  SKM500     -0.2409
      9  O3         7.6620   41.3820   33.8590 O.co2 500  SKM500     -0.2409
     10  C10        7.3870   41.2740   36.6920 C.2   500  SKM500      0.0111
     11  C9         7.1540   41.1520   38.2200 C.3   500  SKM500      0.2066
     12  O11        5.8720   40.5090   38.4360 O.3   500  SKM500     -0.2155
@<TRIPOS>BOND
     1     9     7   ar
     2     8     7   ar
     3     7     6    1
     4     6    10    2
     5     6     5    1
     6    10    11    1
     7     5     3    1
     8     3     4    1
     9     3     2    1
    10    11    12    1
    11    11     2    1
    12     2     1    1
