@<TRIPOS>MOLECULE
4fr8_NAD_A_1.pdb
 35 38 0 0 0
SMALL
GASTEIGER

@<TRIPOS>ATOM
      1  PA        -7.7720   45.6390   61.1150 P.3   1001  NAD1001     0.2189
      2  O1A       -8.5330   44.7170   62.0180 O.3   1001  NAD1001    -0.4371
      3  O2A       -8.5210   46.6620   60.2930 O.2   1001  NAD1001    -0.5170
      4  O5B       -6.6440   46.3520   62.0170 O.3   1001  NAD1001    -0.3112
      5  C5B       -5.8220   47.4390   61.5740 C.3   1001  NAD1001     0.1813
      6  C4B       -5.1940   48.0540   62.8190 C.3   1001  NAD1001     0.1821
      7  O4B       -6.2600   48.5210   63.6420 O.3   1001  NAD1001    -0.3135
      8  C3B       -4.4380   47.0220   63.6400 C.3   1001  NAD1001     0.2184
      9  O3B       -3.2910   47.6590   64.2110 O.3   1001  NAD1001    -0.2174
     10  C2B       -5.3800   46.6160   64.7580 C.3   1001  NAD1001     0.2570
     11  O2B       -4.6930   46.2950   65.9730 O.3   1001  NAD1001    -0.2130
     12  C1B       -6.2320   47.8570   64.9120 C.3   1001  NAD1001     0.3186
     13  N9A       -7.6060   47.5430   65.3830 N.pl3 1001  NAD1001    -0.1439
     14  C8A       -8.2940   46.3880   65.2530 C.3   1001  NAD1001     0.3377
     15  N7A       -9.5150   46.4980   65.8260 N.2   1001  NAD1001    -0.2095
     16  C5A       -9.6210   47.7410   66.3420 C.2   1001  NAD1001     0.2526
     17  C6A      -10.6360   48.5250   67.0810 C.2   1001  NAD1001     0.4393
     18  N6A      -11.8370   47.9800   67.4050 N.pl3 1001  NAD1001     0.2180
     19  N1A      -10.3370   49.7980   67.4290 N.2   1001  NAD1001     0.0021
     20  C2A       -9.1550   50.3560   67.1310 C.3   1001  NAD1001     0.5254
     21  N3A       -8.1880   49.7070   66.4630 N.2   1001  NAD1001    -0.0055
     22  C4A       -8.3560   48.4230   66.0520 C.2   1001  NAD1001     0.3518
     23  O3        -6.8480   44.7350   60.1420 O.3   1001  NAD1001    -0.2703
     24  PN        -6.8490   43.1250   60.3030 P.3   1001  NAD1001     0.2189
     25  O1N       -8.0660   42.6980   61.0870 O.3   1001  NAD1001    -0.4371
     26  O2N       -5.4960   42.6840   60.8160 O.2   1001  NAD1001    -0.5170
     27  O5D       -7.0100   42.6640   58.7700 O.3   1001  NAD1001    -0.3112
     28  C5D       -8.3040   42.2530   58.3260 C.3   1001  NAD1001     0.1812
     29  C4D       -8.5970   42.9000   56.9720 C.3   1001  NAD1001     0.1780
     30  O4D       -8.0900   44.2460   56.9370 O.3   1001  NAD1001    -0.3482
     31  C3D       -7.9000   42.1870   55.8300 C.3   1001  NAD1001     0.2140
     32  O3D       -8.7520   41.1820   55.2650 O.3   1001  NAD1001    -0.2176
     33  C2D       -7.6580   43.2780   54.8230 C.3   1001  NAD1001     0.2140
     34  O2D       -8.8000   43.3150   53.9640 O.3   1001  NAD1001    -0.2176
     35  C1D       -7.5890   44.5670   55.6290 C.3   1001  NAD1001     0.1777
@<TRIPOS>BOND
     1    34    33    1
     2    33    35    1
     3    33    31    1
     4    32    31    1
     5    35    30    1
     6    31    29    1
     7    30    29    1
     8    29    28    1
     9    28    27    1
    10    27    24    1
    11    23    24    1
    12    23     1    1
    13     3     1    2
    14    24    26    2
    15    24    25    1
    16     1     4    1
    17     1     2    1
    18     5     4    1
    19     5     6    1
    20     6     8    1
    21     6     7    1
    22     8     9    1
    23     8    10    1
    24     7    12    1
    25    10    12    1
    26    10    11    1
    27    12    13    1
    28    14    13    1
    29    14    15    1
    30    13    22    1
    31    15    16    2
    32    22    16    1
    33    22    21    2
    34    16    17    1
    35    21    20    1
    36    17    18    1
    37    17    19    2
    38    20    19    1
