@<TRIPOS>MOLECULE
4fr8_TNG_A_1.pdb
 15 14 0 0 0
SMALL
GASTEIGER

@<TRIPOS>ATOM
      1  O9         1.2290   47.3290   46.9750 O.2   601  TNG601     -0.0900
      2  N3         1.6700   48.3700   47.3180 N.pl3 601  TNG601      0.2182
      3  O8         2.4620   49.0600   46.7390 O.2   601  TNG601     -0.0900
      4  O7         1.1700   48.8650   48.5370 O.2   601  TNG601     -0.3315
      5  C3         0.9500   50.3040   48.5390 C.3   601  TNG601      0.2933
      6  C2         1.7590   50.9800   49.6710 C.3   601  TNG601      0.2933
      7  O4         2.9390   50.1700   49.7210 O.2   601  TNG601     -0.3315
      8  N2         4.0090   50.6780   48.9730 N.pl3 601  TNG601      0.2182
      9  O6         4.1300   51.8700   48.9410 O.2   601  TNG601     -0.0900
     10  O5         4.6970   49.8530   48.4770 O.2   601  TNG601     -0.0900
     11  C1         1.0190   50.9200   51.0240 C.3   601  TNG601      0.2933
     12  O3        -0.3940   51.1640   50.8120 O.2   601  TNG601     -0.3315
     13  N1        -1.2400   50.3160   51.5720 N.pl3 601  TNG601      0.2182
     14  O2        -1.6660   50.7930   52.5780 O.2   601  TNG601     -0.0900
     15  O1        -1.3990   49.2130   51.1350 O.2   601  TNG601     -0.0900
@<TRIPOS>BOND
     1     3     2    2
     2     1     2    2
     3     2     4    1
     4    10     8    2
     5     4     5    1
     6     5     6    1
     7     9     8    2
     8     8     7    1
     9     6     7    1
    10     6    11    1
    11    12    11    1
    12    12    13    1
    13    15    13    2
    14    13    14    2
