@<TRIPOS>MOLECULE
4fr8_ADP_B_1.pdb
 27 29 0 0 0
SMALL
GASTEIGER

@<TRIPOS>ATOM
      1  PB       -29.8030   74.5920   68.3700 P.3   1001  ADP1001     0.5373
      2  O1B      -30.0620   73.4700   69.3470 O.3   1001  ADP1001    -0.1143
      3  O2B      -30.9070   74.7960   67.3490 O.2   1001  ADP1001    -0.2221
      4  O3B      -29.3240   75.8700   69.0230 O.3   1001  ADP1001    -0.1143
      5  PA       -28.5380   72.5920   66.8960 P.3   1001  ADP1001     0.2231
      6  O1A      -29.6940   71.9010   67.5670 O.3   1001  ADP1001    -0.4370
      7  O2A      -27.1550   71.9840   66.9140 O.2   1001  ADP1001    -0.5169
      8  O3A      -28.5120   74.0840   67.5150 O.3   1001  ADP1001    -0.2261
      9  O5'      -28.9770   72.7910   65.3620 O.3   1001  ADP1001    -0.3111
     10  C5'      -28.0870   73.1530   64.3070 C.3   1001  ADP1001     0.1813
     11  C4'      -28.6390   72.5280   63.0350 C.3   1001  ADP1001     0.1821
     12  O4'      -28.5380   71.1130   63.1470 O.3   1001  ADP1001    -0.3135
     13  C3'      -30.1080   72.8390   62.8480 C.3   1001  ADP1001     0.2184
     14  O3'      -30.3670   73.0950   61.4620 O.3   1001  ADP1001    -0.2174
     15  C2'      -30.8340   71.5690   63.2430 C.3   1001  ADP1001     0.2570
     16  O2'      -32.0540   71.3950   62.5110 O.3   1001  ADP1001    -0.2130
     17  C1'      -29.8090   70.4920   62.9510 C.3   1001  ADP1001     0.3186
     18  N9       -29.9780   69.3180   63.8560 N.pl3 1001  ADP1001    -0.1439
     19  C8       -30.5230   69.3090   65.0940 C.3   1001  ADP1001     0.3377
     20  N7       -30.5190   68.0630   65.6170 N.2   1001  ADP1001    -0.2095
     21  C5       -29.9730   67.2360   64.7070 C.2   1001  ADP1001     0.2526
     22  C6       -29.6690   65.7900   64.6320 C.2   1001  ADP1001     0.4393
     23  N6       -29.9620   64.9640   65.6720 N.pl3 1001  ADP1001     0.2180
     24  N1       -29.0890   65.3330   63.4930 N.2   1001  ADP1001     0.0021
     25  C2       -28.7910   66.1570   62.4630 C.3   1001  ADP1001     0.5254
     26  N3       -29.0390   67.4780   62.4650 N.2   1001  ADP1001    -0.0055
     27  C4       -29.6210   68.0640   63.5410 C.2   1001  ADP1001     0.3518
@<TRIPOS>BOND
     1    14    13    1
     2    25    26    1
     3    25    24    1
     4    26    27    2
     5    16    15    1
     6    13    11    1
     7    13    15    1
     8    17    12    1
     9    17    15    1
    10    17    18    1
    11    11    12    1
    12    11    10    1
    13    24    22    2
    14    27    18    1
    15    27    21    1
    16    18    19    1
    17    10     9    1
    18    22    21    1
    19    22    23    1
    20    21    20    2
    21    19    20    1
    22     9     5    1
    23     5     7    2
    24     5     8    1
    25     5     6    1
    26     3     1    2
    27     8     1    1
    28     1     4    1
    29     1     2    1
