@<TRIPOS>MOLECULE
4fri_DWA_A_1.pdb
 27 30 0 0 0
SMALL
GASTEIGER

@<TRIPOS>ATOM
      1  C15       66.4290   54.9810   11.2800 C.3   404  DWA404      0.2525
      2  O14       67.1120   53.8390   11.8750 O.3   404  DWA404     -0.4714
      3  C2        67.5090   52.8280   11.0230 C.ar  404  DWA404      0.1387
      4  C3        67.9440   51.6140   11.5530 C.ar  404  DWA404      0.0366
      5  C4        68.3550   50.5760   10.7030 C.ar  404  DWA404      0.0011
      6  C1        67.5190   52.9820    9.6340 C.ar  404  DWA404      0.0366
      7  C6        67.9340   51.9320    8.7940 C.ar  404  DWA404      0.0011
      8  C5        68.3550   50.7130    9.3100 C.ar  404  DWA404      0.0054
      9  C7        68.8060   49.5580    8.3550 C.3   404  DWA404      0.1665
     10  C19       68.4250   48.1810    8.8840 C.3   404  DWA404      0.2391
     11  O18       67.3460   47.7230    8.0390 O.2   404  DWA404     -0.4451
     12  C17       67.2460   48.6000    6.9970 C.2   404  DWA404      0.3207
     13  N16       68.0400   49.6500    7.0980 N.2   404  DWA404     -0.2134
     14  N20       66.3950   48.4340    6.0010 N.pl3 404  DWA404     -0.0691
     15  C8        70.2930   49.5210    8.0550 C.ar  404  DWA404      0.0052
     16  C13       70.7660   48.7290    7.0160 C.ar  404  DWA404     -0.0019
     17  C9        71.1870   50.2570    8.8190 C.ar  404  DWA404     -0.0020
     18  C10       72.5480   50.1870    8.5260 C.ar  404  DWA404     -0.0002
     19  C11       73.0120   49.3890    7.4970 C.ar  404  DWA404      0.0001
     20  C12       72.1240   48.6630    6.7170 C.ar  404  DWA404      0.0034
     21  C21       72.5800   47.8260    5.6780 C.ar  404  DWA404      0.0460
     22  C26       73.5870   46.8970    5.9340 C.ar  404  DWA404      0.0054
     23  C25       74.0070   46.0300    4.9290 C.ar  404  DWA404      0.0208
     24  C24       73.4250   46.0980    3.6720 C.ar  404  DWA404      0.1013
     25  N23       72.4710   46.9840    3.4590 N.ar  404  DWA404     -0.2165
     26  C22       72.0300   47.8340    4.3970 C.ar  404  DWA404      0.2222
     27  F27       71.0440   48.7050    4.0780 F     404  DWA404     -0.1832
@<TRIPOS>BOND
     1    25    24   ar
     2    25    26   ar
     3    24    23   ar
     4    27    26    1
     5    26    21   ar
     6    23    22   ar
     7    21    22   ar
     8    21    20    1
     9    14    12    1
    10    20    16   ar
    11    20    19   ar
    12    12    13    2
    13    12    11    1
    14    16    15   ar
    15    13     9    1
    16    19    18   ar
    17    11    10    1
    18    15     9    1
    19    15    17   ar
    20     9    10    1
    21     9     8    1
    22    18    17   ar
    23     7     8   ar
    24     7     6   ar
    25     8     5   ar
    26     6     3   ar
    27     5     4   ar
    28     3     4   ar
    29     3     2    1
    30     1     2    1
