@<TRIPOS>MOLECULE
4frj_DWB_A_1.pdb
 29 33 0 0 0
SMALL
GASTEIGER

@<TRIPOS>ATOM
      1  F26       26.3100   47.1730   77.4560 F     403  DWB403     -0.2042
      2  C20       27.0210   47.0360   78.5910 C.ar  403  DWB403      0.1401
      3  C21       26.5490   46.1470   79.5490 C.ar  403  DWB403      0.0305
      4  C22       27.2640   45.9620   80.7300 C.ar  403  DWB403      0.0137
      5  C23       28.4340   46.6680   80.9560 C.ar  403  DWB403      0.0578
      6 CL2        29.3170   46.4150   82.4350 Cl    403  DWB403     -0.0822
      7  C24       28.9020   47.5660   80.0030 C.ar  403  DWB403      0.0136
      8  C14       28.2030   47.7600   78.8080 C.ar  403  DWB403      0.0283
      9  C12       28.7040   48.6450   77.8430 C.ar  403  DWB403      0.0021
     10  C13       30.0610   48.6120   77.5340 C.ar  403  DWB403      0.0011
     11  C8        30.6060   49.4590   76.5790 C.ar  403  DWB403      0.0399
     12  C11       27.8840   49.5410   77.1680 C.ar  403  DWB403      0.0032
     13  C10       28.4130   50.3970   76.2210 C.ar  403  DWB403      0.0372
     14  C9        29.7620   50.3670   75.9210 C.ar  403  DWB403      0.1434
     15  O25       30.1800   51.2180   74.9720 O.3   403  DWB403     -0.4540
     16  C4        31.4960   51.2660   74.6490 C.ar  403  DWB403      0.1436
     17  C3        31.8910   52.2000   73.6900 C.ar  403  DWB403      0.0403
     18  C2        33.2300   52.3200   73.3000 C.ar  403  DWB403      0.0400
     19  C1        34.2020   51.4960   73.8820 C.ar  403  DWB403      0.1387
     20  O28       35.5460   51.5370   73.5530 O.3   403  DWB403     -0.4714
     21  C29       35.9410   52.4350   72.5110 C.3   403  DWB403      0.2525
     22  C6        33.7950   50.5660   74.8310 C.ar  403  DWB403      0.0379
     23  C5        32.4620   50.4270   75.2200 C.ar  403  DWB403      0.0429
     24  C7        32.1100   49.3870   76.2730 C.3   403  DWB403      0.1722
     25  C18       32.5240   47.9720   75.8200 C.3   403  DWB403      0.2393
     26  O17       33.5690   47.5230   76.7770 O.2   403  DWB403     -0.4450
     27  C16       33.7890   48.5640   77.6530 C.2   403  DWB403      0.3207
     28  N19       34.7050   48.4960   78.6220 N.pl3 403  DWB403     -0.0691
     29  N15       32.9850   49.6160   77.4530 N.2   403  DWB403     -0.2132
@<TRIPOS>BOND
     1    21    20    1
     2    18    17   ar
     3    18    19   ar
     4    20    19    1
     5    17    16   ar
     6    19    22   ar
     7    16    15    1
     8    16    23   ar
     9    22    23   ar
    10    15    14    1
    11    23    24    1
    12    25    24    1
    13    25    26    1
    14    14    13   ar
    15    14    11   ar
    16    13    12   ar
    17    24    11    1
    18    24    29    1
    19    11    10   ar
    20    26    27    1
    21    12     9   ar
    22    29    27    2
    23     1     2    1
    24    10     9   ar
    25    27    28    1
    26     9     8    1
    27     2     8   ar
    28     2     3   ar
    29     8     7   ar
    30     3     4   ar
    31     7     5   ar
    32     4     5   ar
    33     5     6    1
