@<TRIPOS>MOLECULE
4frk_DWD_A_1.pdb
 30 34 0 0 0
SMALL
GASTEIGER

@<TRIPOS>ATOM
      1  C26       74.0350   47.0350    6.0540 C.ar  405  DWD405      0.1022
      2  N27       74.4870   46.2190    5.1090 N.ar  405  DWD405     -0.2224
      3  C28       73.8200   46.0660    3.9680 C.ar  405  DWD405      0.1989
      4  N29       72.6920   46.7190    3.7420 N.ar  405  DWD405     -0.2224
      5  C30       72.1990   47.5670    4.6340 C.ar  405  DWD405      0.1022
      6  C15       72.8600   47.7600    5.8490 C.ar  405  DWD405      0.0384
      7  C1        72.3550   48.6160    6.8450 C.ar  405  DWD405      0.0030
      8  C6        70.9930   48.5710    7.1680 C.ar  405  DWD405      0.0011
      9  C5        70.4610   49.3970    8.1660 C.ar  405  DWD405      0.0399
     10  C2        73.1970   49.4890    7.5390 C.ar  405  DWD405      0.0032
     11  C3        72.6670   50.3270    8.5380 C.ar  405  DWD405      0.0372
     12  C4        71.3090   50.2790    8.8580 C.ar  405  DWD405      0.1434
     13  O7        70.8650   51.1090    9.8560 O.3   405  DWD405     -0.4540
     14  C8        69.5500   51.1980   10.1580 C.ar  405  DWD405      0.1436
     15  C11       69.2090   52.1360   11.1180 C.ar  405  DWD405      0.0403
     16  C12       67.8800   52.2970   11.5000 C.ar  405  DWD405      0.0400
     17  C13       66.8860   51.4990   10.9200 C.ar  405  DWD405      0.1385
     18  O16       65.6050   51.7410   11.3280 O.3   405  DWD405     -0.4755
     19  C22       64.6940   50.6940   11.3200 C.3   405  DWD405      0.2053
     20  C23       63.5120   51.3170   12.0860 C.3   405  DWD405      0.0438
     21  C25       62.7320   50.2130   12.7800 C.3   405  DWD405      0.0038
     22  C24       62.5960   52.1260   11.1700 C.3   405  DWD405      0.0038
     23  C14       67.2250   50.5500    9.9430 C.ar  405  DWD405      0.0379
     24  C9        68.5660   50.3880    9.5620 C.ar  405  DWD405      0.0429
     25  C10       68.9480   49.3380    8.4960 C.3   405  DWD405      0.1722
     26  C17       68.5630   47.9020    8.8940 C.3   405  DWD405      0.2393
     27  O18       67.6580   47.4560    7.8240 O.2   405  DWD405     -0.4450
     28  C19       67.3530   48.5290    7.0320 C.2   405  DWD405      0.3207
     29  N21       66.4260   48.4810    6.0650 N.pl3 405  DWD405     -0.0691
     30  N20       68.0580   49.6200    7.3170 N.2   405  DWD405     -0.2132
@<TRIPOS>BOND
     1     4     3   ar
     2     4     5   ar
     3     3     2   ar
     4     5     6   ar
     5     2     1   ar
     6     6     1   ar
     7     6     7    1
     8    29    28    1
     9     7     8   ar
    10     7    10   ar
    11    28    30    2
    12    28    27    1
    13     8     9   ar
    14    30    25    1
    15    10    11   ar
    16    27    26    1
    17     9    25    1
    18     9    12   ar
    19    25    26    1
    20    25    24    1
    21    11    12   ar
    22    12    13    1
    23    24    23   ar
    24    24    14   ar
    25    13    14    1
    26    23    17   ar
    27    14    15   ar
    28    17    18    1
    29    17    16   ar
    30    15    16   ar
    31    22    20    1
    32    19    18    1
    33    19    20    1
    34    20    21    1
