@<TRIPOS>MOLECULE
4frs_0V6_A_1.pdb
 25 27 0 0 0
SMALL
GASTEIGER

@<TRIPOS>ATOM
      1  C2        22.6250   10.7430   20.6570 C.ar  501  0V6501      0.0540
      2  S1        24.1510   10.0510   21.1130 S.2   501  0V6501     -0.0871
      3  C3        22.8140   11.6220   19.6230 C.ar  501  0V6501      0.0633
      4  C4        24.1820   11.7190   19.2040 C.ar  501  0V6501      0.0182
      5  C5        25.0480   10.8810   19.9410 C.ar  501  0V6501      0.0316
      6  C6        20.6680   11.6080   22.0400 C.3   501  0V6501      0.1477
      7  C7        21.5760   12.2070   23.1310 C.2   501  0V6501      0.2913
      8  N8        22.3880   11.3330   23.9230 N.am  501  0V6501     -0.1396
      9  C9        22.3190    9.9390   23.7580 C.2   501  0V6501      0.4490
     10  N10       21.6940    9.4690   22.6090 N.2   501  0V6501     -0.0975
     11  C11       21.3640   10.3540   21.4330 C.3   501  0V6501      0.1827
     12  C12       20.3400    9.5600   20.5880 C.3   501  0V6501      0.0491
     13 CL         21.5080   12.5060   18.8790 Cl    501  0V6501     -0.0819
     14  C14       26.5040   10.7850   19.8620 C.ar  501  0V6501      0.0258
     15  C15       27.2590   10.1480   20.8930 C.ar  501  0V6501      0.0118
     16  C16       28.6250   10.1440   20.9200 C.ar  501  0V6501      0.0608
     17  C17       29.2940   10.7700   19.8600 C.ar  501  0V6501      0.1071
     18  N18       28.6230   11.4080   18.8090 N.ar  501  0V6501     -0.2417
     19  C19       27.2450   11.4220   18.8380 C.ar  501  0V6501      0.0994
     20  N20       22.7530    9.0980   24.6450 N.pl3 501  0V6501      0.1440
     21  O21       21.5850   13.4080   23.2880 O.2   501  0V6501     -0.2563
     22  C22       23.2920   11.9610   24.9540 C.3   501  0V6501      0.2161
     23  C23       29.3260    9.4740   21.9780 C.1   501  0V6501     -0.0628
     24  C24       29.9150    8.9130   22.8650 C.1   501  0V6501     -0.0853
     25  C25       30.6550    8.2640   23.9250 C.3   501  0V6501      0.0903
@<TRIPOS>BOND
     1    18    19   ar
     2    18    17   ar
     3    19    14   ar
     4    13     3    1
     5     4     3   ar
     6     4     5   ar
     7     3     1   ar
     8    17    16   ar
     9    14     5    1
    10    14    15   ar
    11     5     2   ar
    12    12    11    1
    13     1     2   ar
    14     1    11    1
    15    15    16   ar
    16    16    23    1
    17    11     6    1
    18    11    10    1
    19    23    24    3
    20     6     7    1
    21    10     9    2
    22    24    25    1
    23     7    21    2
    24     7     8   am
    25     9     8    1
    26     9    20    1
    27     8    22    1
