@<TRIPOS>MOLECULE
4fry_NAD_A_1.pdb
 44 48 0 0 0
SMALL
GASTEIGER

@<TRIPOS>ATOM
      1  PA         5.7640   26.9830   63.0630 P.3   201  NAD201      0.2189
      2  O1A        6.8710   26.2230   63.7390 O.3   201  NAD201     -0.4371
      3  O2A        4.6450   26.1270   62.5060 O.2   201  NAD201     -0.5170
      4  O5B        5.2430   28.1700   64.0280 O.3   201  NAD201     -0.3112
      5  C5B        3.8760   28.3160   64.4740 C.3   201  NAD201      0.1813
      6  C4B        3.8280   29.0720   65.8110 C.3   201  NAD201      0.1821
      7  O4B        4.2420   28.2190   66.8780 O.3   201  NAD201     -0.3135
      8  C3B        4.7910   30.2330   65.8560 C.3   201  NAD201      0.2184
      9  O3B        4.2100   31.3100   66.5840 O.3   201  NAD201     -0.2174
     10  C2B        6.0250   29.6870   66.5560 C.3   201  NAD201      0.2570
     11  O2B        6.8360   30.6680   67.2150 O.3   201  NAD201     -0.2130
     12  C1B        5.4370   28.6830   67.5220 C.3   201  NAD201      0.3186
     13  N9A        6.3760   27.5660   67.7910 N.pl3 201  NAD201     -0.1439
     14  C8A        6.8990   26.7100   66.8860 C.3   201  NAD201      0.3377
     15  N7A        7.7340   25.8040   67.4750 N.2   201  NAD201     -0.2095
     16  C5A        7.7540   26.0790   68.7950 C.2   201  NAD201      0.2526
     17  C6A        8.4200   25.5300   70.0150 C.2   201  NAD201      0.4393
     18  N6A        9.2570   24.4690   69.9640 N.pl3 201  NAD201      0.2180
     19  N1A        8.1580   26.1300   71.2020 N.2   201  NAD201      0.0021
     20  C2A        7.3260   27.1880   71.2900 C.3   201  NAD201      0.5254
     21  N3A        6.6890   27.7310   70.2360 N.2   201  NAD201     -0.0055
     22  C4A        6.8610   27.2390   68.9890 C.2   201  NAD201      0.3518
     23  O3         6.4820   27.7730   61.8440 O.3   201  NAD201     -0.2703
     24  PN         5.9270   28.9390   60.8910 P.3   201  NAD201      0.2189
     25  O1N        6.5220   28.6830   59.5250 O.2   201  NAD201     -0.5170
     26  O2N        6.0920   30.2630   61.5700 O.3   201  NAD201     -0.4371
     27  O5D        4.4590   28.3740   60.5000 O.3   201  NAD201     -0.3112
     28  C5D        3.1970   28.7220   60.9130 C.3   201  NAD201      0.1813
     29  C4D        2.3060   29.0230   59.7060 C.3   201  NAD201      0.1799
     30  O4D        1.3200   29.7810   60.3700 O.3   201  NAD201     -0.3327
     31  C3D        2.8720   29.9410   58.6130 C.3   201  NAD201      0.2158
     32  O3D        2.0910   29.9780   57.4070 O.3   201  NAD201     -0.2175
     33  C2D        2.8060   31.2930   59.2580 C.3   201  NAD201      0.2309
     34  O2D        2.7770   32.3670   58.3010 O.3   201  NAD201     -0.2158
     35  C1D        1.5300   31.1630   60.0970 C.3   201  NAD201      0.2263
     36  N1N        1.5520   31.8750   61.3790 N.pl3 201  NAD201     -0.2787
     37  C2N        0.4120   32.4900   61.7290 C.3   201  NAD201      0.1244
     38  C3N        0.3140   33.1980   62.9190 C.2   201  NAD201      0.0544
     39  C7N       -0.9530   33.9120   63.3080 C.2   201  NAD201      0.2818
     40  O7N       -0.9330   34.5160   64.3700 O.2   201  NAD201     -0.2670
     41  N7N       -2.0390   33.9360   62.5230 N.am  201  NAD201     -0.0839
     42  C4N        1.4330   33.2760   63.7520 C.2   201  NAD201      0.0033
     43  C5N        2.5990   32.6310   63.3790 C.2   201  NAD201      0.0157
     44  C6N        2.6390   31.9220   62.1840 C.2   201  NAD201      0.0633
@<TRIPOS>BOND
     1    32    31    1
     2    34    33    1
     3    31    33    1
     4    31    29    1
     5    33    35    1
     6    25    24    2
     7    29    30    1
     8    29    28    1
     9    35    30    1
    10    35    36    1
    11    27    24    1
    12    27    28    1
    13    24    26    1
    14    24    23    1
    15    36    37    1
    16    36    44    1
    17    37    38    1
    18    23     1    1
    19    44    43    2
    20     3     1    2
    21    41    39   am
    22    38    39    1
    23    38    42    2
    24     1     2    1
    25     1     4    1
    26    39    40    2
    27    43    42    1
    28     4     5    1
    29     5     6    1
    30     6     8    1
    31     6     7    1
    32     8    10    1
    33     8     9    1
    34    10    11    1
    35    10    12    1
    36     7    12    1
    37    14    15    1
    38    14    13    1
    39    15    16    2
    40    12    13    1
    41    13    22    1
    42    16    22    1
    43    16    17    1
    44    22    21    2
    45    18    17    1
    46    17    19    2
    47    21    20    1
    48    19    20    1
