@<TRIPOS>MOLECULE
4fry_AMP_A_1.pdb
 23 25 0 0 0
SMALL
GASTEIGER

@<TRIPOS>ATOM
      1  P         13.4170   25.1900   59.5950 P.3   202  AMP202      0.5327
      2  O1P       13.3360   25.9410   60.9150 O.3   202  AMP202     -0.1145
      3  O2P       12.4680   24.0240   59.4930 O.3   202  AMP202     -0.1145
      4  O3P       13.4110   26.1130   58.4090 O.2   202  AMP202     -0.2224
      5  O5'       14.8680   24.4950   59.6560 O.3   202  AMP202     -0.2675
      6  C5'       15.6750   24.2090   58.5040 C.3   202  AMP202      0.1860
      7  C4'       16.9900   23.5270   58.9110 C.3   202  AMP202      0.1823
      8  O4'       17.7400   24.4160   59.7460 O.3   202  AMP202     -0.3135
      9  C3'       16.7930   22.2780   59.7460 C.3   202  AMP202      0.2184
     10  O3'       17.8320   21.3250   59.4880 O.3   202  AMP202     -0.2174
     11  C2'       16.8700   22.7630   61.1780 C.3   202  AMP202      0.2570
     12  O2'       17.3360   21.7740   62.1000 O.3   202  AMP202     -0.2130
     13  C1'       17.8350   23.9280   61.0740 C.3   202  AMP202      0.3186
     14  N9        17.5240   25.0230   62.0340 N.pl3 202  AMP202     -0.1439
     15  C8        16.3260   25.5390   62.3420 C.3   202  AMP202      0.3377
     16  N7        16.4470   26.5420   63.2420 N.2   202  AMP202     -0.2095
     17  C5        17.7430   26.6690   63.5280 C.2   202  AMP202      0.2526
     18  C6        18.5530   27.5350   64.4070 C.2   202  AMP202      0.4393
     19  N6        17.9590   28.4790   65.1880 N.pl3 202  AMP202      0.2180
     20  N1        19.8940   27.3380   64.4070 N.2   202  AMP202      0.0021
     21  C2        20.4930   26.4050   63.6260 C.3   202  AMP202      0.5254
     22  N3        19.8110   25.5900   62.7930 N.2   202  AMP202     -0.0055
     23  C4        18.4570   25.6790   62.7120 C.2   202  AMP202      0.3518
@<TRIPOS>BOND
     1     4     1    2
     2     6     7    1
     3     6     5    1
     4     7     8    1
     5     7     9    1
     6    10     9    1
     7     3     1    1
     8     1     5    1
     9     1     2    1
    10     8    13    1
    11     9    11    1
    12    13    11    1
    13    13    14    1
    14    11    12    1
    15    14    15    1
    16    14    23    1
    17    15    16    1
    18    23    22    2
    19    23    17    1
    20    22    21    1
    21    16    17    2
    22    17    18    1
    23    21    20    1
    24    18    20    2
    25    18    19    1
