@<TRIPOS>MOLECULE
4fs1_TTP_A_1.pdb
 29 30 0 0 0
SMALL
GASTEIGER

@<TRIPOS>ATOM
      1  PA        -2.5140   21.9660  -14.9970 P.3   505  TTP505      0.2189
      2  O1A       -1.7360   22.9090  -14.1110 O.3   505  TTP505     -0.4371
      3  O2A       -3.8890   21.5020  -14.5790 O.2   505  TTP505     -0.5170
      4  O3A       -1.6040   20.6650  -15.2690 O.3   505  TTP505     -0.2700
      5  PB        -2.1100   19.5090  -16.2690 P.3   505  TTP505      0.2277
      6  O1B       -3.6170   19.4480  -16.1970 O.3   505  TTP505     -0.4368
      7  O2B       -1.4270   19.7050  -17.6020 O.2   505  TTP505     -0.5168
      8  O3B       -1.5180   18.1740  -15.5920 O.3   505  TTP505     -0.2258
      9  PG        -1.8680   17.8090  -14.0630 P.3   505  TTP505      0.5373
     10  O1G       -3.0250   18.7190  -13.7270 O.3   505  TTP505     -0.1143
     11  O2G       -2.2230   16.3420  -14.1110 O.2   505  TTP505     -0.2221
     12  O3G       -0.5940   18.1180  -13.3140 O.3   505  TTP505     -0.1143
     13  O5'       -2.6290   22.6280  -16.4600 O.3   505  TTP505     -0.3112
     14  C5'       -3.8610   22.5890  -17.1770 C.3   505  TTP505      0.1812
     15  C4'       -3.5810   22.6260  -18.6740 C.3   505  TTP505      0.1773
     16  O4'       -3.3550   23.9750  -19.0900 O.3   505  TTP505     -0.3339
     17  C3'       -2.3430   21.8170  -19.0250 C.3   505  TTP505      0.1857
     18  O3'       -2.6850   20.7640  -19.9310 O.3   505  TTP505     -0.2203
     19  C2'       -1.3750   22.7790  -19.6870 C.3   505  TTP505      0.0874
     20  C1'       -2.0760   24.1310  -19.7100 C.3   505  TTP505      0.2090
     21  N1        -1.2820   25.1110  -18.9650 N.am  505  TTP505     -0.1794
     22  C2        -0.5560   26.0990  -19.6690 C.1   505  TTP505      0.2844
     23  O2        -0.6020   26.1190  -20.9180 O.2   505  TTP505     -0.1918
     24  N3         0.1820   27.0130  -19.0240 N.2   505  TTP505     -0.2455
     25  C4         0.2500   27.0150  -17.6900 C.1   505  TTP505      0.2134
     26  O4         0.9400   27.8700  -17.0930 O.2   505  TTP505     -0.2088
     27  C5        -0.5020   25.9900  -16.9270 C.2   505  TTP505      0.0891
     28  C5M       -0.4500   25.9590  -15.4220 C.3   505  TTP505      0.0462
     29  C6        -1.2550   25.0590  -17.6290 C.2   505  TTP505      0.0877
@<TRIPOS>BOND
     1    23    22    2
     2    18    17    1
     3    20    19    1
     4    20    16    1
     5    20    21    1
     6    19    17    1
     7    22    24    2
     8    22    21   am
     9    16    15    1
    10    17    15    1
    11    24    25    2
    12    21    29    1
    13    15    14    1
    14    25    26    2
    15    25    27    1
    16    29    27    2
    17     7     5    2
    18    14    13    1
    19    27    28    1
    20    13     1    1
    21     5     6    1
    22     5     8    1
    23     5     4    1
    24     8     9    1
    25     4     1    1
    26     1     3    2
    27     1     2    1
    28    11     9    2
    29     9    10    1
    30     9    12    1
