@<TRIPOS>MOLECULE
4fs2_DCP_A_1.pdb
 28 29 0 0 0
SMALL
GASTEIGER

@<TRIPOS>ATOM
      1  N1        -1.3910  -25.2470   19.3770 N.am  503  DCP503     -0.1802
      2  C2        -0.6610  -26.1440   20.1390 C.1   503  DCP503      0.2756
      3  N3         0.0720  -27.0450   19.4900 N.2   503  DCP503     -0.3024
      4  C4         0.1320  -27.1410   18.1540 C.2   503  DCP503      0.2346
      5  C5        -0.5610  -26.2610   17.3970 C.2   503  DCP503      0.0687
      6  C6        -1.2980  -25.2960   18.0500 C.2   503  DCP503      0.0835
      7  O2        -0.7280  -26.1360   21.4180 O.2   503  DCP503     -0.1925
      8  N4         0.9010  -28.1080   17.5910 N.pl3 503  DCP503     -0.0921
      9  C1'       -2.2200  -24.2570   20.0400 C.3   503  DCP503      0.2090
     10  C2'       -1.4430  -22.9180   20.1150 C.3   503  DCP503      0.0874
     11  C3'       -2.2740  -21.9110   19.3010 C.3   503  DCP503      0.1857
     12  C4'       -3.6330  -22.6130   19.0380 C.3   503  DCP503      0.1773
     13  O4'       -3.4290  -24.0030   19.2580 O.3   503  DCP503     -0.3339
     14  O3'       -2.4330  -20.6330   19.9670 O.3   503  DCP503     -0.2203
     15  C5'       -4.0900  -22.3040   17.6010 C.3   503  DCP503      0.1812
     16  O5'       -3.1820  -22.8600   16.6470 O.3   503  DCP503     -0.3112
     17  PA        -2.8050  -22.1060   15.2710 P.3   503  DCP503      0.2189
     18  O1A       -4.0460  -21.3860   14.7510 O.3   503  DCP503     -0.4371
     19  O2A       -1.8900  -22.9150   14.4630 O.2   503  DCP503     -0.5170
     20  O3A       -1.7510  -20.9820   15.8480 O.3   503  DCP503     -0.2700
     21  PB        -2.0310  -19.4800   16.3910 P.3   503  DCP503      0.2277
     22  O1B       -1.2990  -19.3340   17.7370 O.3   503  DCP503     -0.4368
     23  O2B       -3.5370  -19.2250   16.4530 O.2   503  DCP503     -0.5168
     24  O3B       -1.2930  -18.5070   15.3200 O.3   503  DCP503     -0.2258
     25  PG        -1.8790  -18.0190   13.9040 P.3   503  DCP503      0.5373
     26  O1G       -3.1480  -18.8260   13.6660 O.3   503  DCP503     -0.1143
     27  O2G       -2.1110  -16.5690   14.2050 O.3   503  DCP503     -0.1143
     28  O3G       -0.7050  -18.4080   12.9800 O.2   503  DCP503     -0.2221
@<TRIPOS>BOND
     1    28    25    2
     2    26    25    1
     3    25    27    1
     4    25    24    1
     5    19    17    2
     6    18    17    1
     7    17    20    1
     8    17    16    1
     9    24    21    1
    10    20    21    1
    11    21    23    2
    12    21    22    1
    13    16    15    1
    14     5     6    2
    15     5     4    1
    16     8     4    1
    17    15    12    1
    18     6     1    1
    19     4     3    2
    20    12    13    1
    21    12    11    1
    22    13     9    1
    23    11    14    1
    24    11    10    1
    25     1     9    1
    26     1     2   am
    27     3     2    2
    28     9    10    1
    29     2     7    2
