@<TRIPOS>MOLECULE
4fs3_0WE_A_1.pdb
 28 31 0 0 0
SMALL
GASTEIGER

@<TRIPOS>ATOM
      1  O2       112.2380   64.8150   35.4650 O.2   302  0WE302     -0.2748
      2  C1       111.2650   65.5680   35.4960 C.2   302  0WE302      0.2263
      3  C17      110.7310   66.0540   36.8440 C.3   302  0WE302      0.0900
      4  C18      111.6690   65.6640   37.9540 C.3   302  0WE302      0.0375
      5  C19      111.3040   66.2730   39.2900 C.2   302  0WE302     -0.0014
      6  C24      110.1770   67.0850   39.4630 C.2   302  0WE302      0.0040
      7  C23      109.8960   67.5950   40.7290 C.2   302  0WE302      0.0536
      8  C26      108.6900   68.4930   41.0070 C.3   302  0WE302      0.0564
      9  C25      108.2460   68.2660   42.4560 C.3   302  0WE302      0.1409
     10  C20      112.1370   65.9860   40.3640 C.2   302  0WE302      0.1062
     11  N21      111.9010   66.4710   41.5940 N.2   302  0WE302     -0.1822
     12  C22      110.8210   67.2630   41.8390 C.1   302  0WE302      0.0958
     13  N36      110.5910   67.7480   43.0920 N.2   302  0WE302     -0.2822
     14  C37      109.4060   68.2560   43.4570 C.1   302  0WE302      0.1897
     15  O28      109.2490   68.6820   44.5990 O.2   302  0WE302     -0.2134
     16  N3       110.6520   65.9860   34.3900 N.am  302  0WE302     -0.2708
     17  C4       111.2400   65.6720   33.0850 C.3   302  0WE302      0.1153
     18  C5       109.4120   66.8140   34.3380 C.3   302  0WE302      0.1579
     19  C6       109.9780   68.2020   34.3610 C.ar  302  0WE302      0.1389
     20  O10      110.4240   68.8590   35.4850 O.2   302  0WE302     -0.4564
     21  C9       110.9520   70.1220   35.1320 C.ar  302  0WE302      0.1446
     22  C8       110.8850   70.3380   33.6850 C.ar  302  0WE302      0.0332
     23  C7       110.2450   69.0900   33.2030 C.ar  302  0WE302      0.0131
     24  C38      109.9830   68.9260   31.7330 C.3   302  0WE302      0.0340
     25  C14      111.4940   71.0700   36.0000 C.ar  302  0WE302      0.0375
     26  C13      111.9510   72.2480   35.3970 C.ar  302  0WE302      0.0031
     27  C12      111.8840   72.4560   34.0060 C.ar  302  0WE302      0.0002
     28  C11      111.3430   71.5260   33.1110 C.ar  302  0WE302      0.0028
@<TRIPOS>BOND
     1    24    23    1
     2    17    16    1
     3    28    22   ar
     4    28    27   ar
     5    23    22   ar
     6    23    19   ar
     7    22    21   ar
     8    27    26   ar
     9    18    19    1
    10    18    16    1
    11    19    20   ar
    12    16     2   am
    13    21    20   ar
    14    21    25   ar
    15    26    25   ar
    16     1     2    2
    17     2     3    1
    18     3     4    1
    19     4     5    1
    20     5     6    1
    21     5    10    2
    22     6     7    2
    23    10    11    1
    24     7     8    1
    25     7    12    1
    26     8     9    1
    27    11    12    2
    28    12    13    2
    29     9    14    1
    30    13    14    2
    31    14    15    2
