@<TRIPOS>MOLECULE
4fs3_0WD_A_1.pdb
 48 52 0 0 0
SMALL
GASTEIGER

@<TRIPOS>ATOM
      1  O7N      107.5610   65.2380   32.0380 O.2   301  0WD301     -0.2670
      2  C7N      107.7430   64.2530   32.7300 C.2   301  0WD301      0.2818
      3  N7N      106.9400   63.9650   33.7540 N.am  301  0WD301     -0.0839
      4  C3N      108.9460   63.3890   32.4530 C.2   301  0WD301      0.0544
      5  C2N      109.5090   62.6380   33.4950 C.3   301  0WD301      0.1244
      6  C4N      109.5240   63.3640   31.1750 C.2   301  0WD301      0.0033
      7  C5N      110.6820   62.5830   30.9870 C.2   301  0WD301      0.0157
      8  C6N      111.1940   61.8570   32.0450 C.2   301  0WD301      0.0633
      9  N1N      110.6190   61.8980   33.2720 N.pl3 301  0WD301     -0.2787
     10  C1M      111.2090   61.0520   34.3170 C.3   301  0WD301      0.2263
     11  C2M      111.4120   61.5800   35.7290 C.3   301  0WD301      0.2309
     12  O2M      112.6260   62.2670   35.8690 O.3   301  0WD301     -0.2158
     13  C3M      111.4110   60.3020   36.5570 C.3   301  0WD301      0.2158
     14  O3M      112.6570   59.6120   36.5420 O.3   301  0WD301     -0.2175
     15  O4M      110.3050   59.9670   34.5330 O.3   301  0WD301     -0.3327
     16  C4M      110.4460   59.3970   35.8370 C.3   301  0WD301      0.1799
     17  C5M      109.0970   59.2840   36.5470 C.3   301  0WD301      0.1813
     18  O5M      108.3950   60.5040   36.3480 O.3   301  0WD301     -0.3112
     19  PN       106.8350   60.7120   36.6680 P.3   301  0WD301      0.2189
     20  O1N      106.0620   59.4700   36.2430 O.3   301  0WD301     -0.4371
     21  O2N      106.6000   62.0380   36.0060 O.2   301  0WD301     -0.5170
     22  O3P      106.9580   60.8590   38.2680 O.3   301  0WD301     -0.2703
     23  PA       105.8080   60.6130   39.3650 P.3   301  0WD301      0.2189
     24  O1A      104.5260   60.1960   38.6820 O.2   301  0WD301     -0.5170
     25  O2A      105.8490   61.7650   40.3320 O.3   301  0WD301     -0.4371
     26  O5B      106.4480   59.3960   40.1850 O.3   301  0WD301     -0.3112
     27  C5B      107.5760   59.6550   41.0120 C.3   301  0WD301      0.1812
     28  C4B      107.9390   58.4160   41.7990 C.3   301  0WD301      0.1795
     29  C3B      107.1020   58.2680   43.0620 C.3   301  0WD301      0.1928
     30  O3B      106.8850   56.8630   43.1650 O.3   301  0WD301     -0.2673
     31  P2'      106.3160   56.0130   44.4160 P.3   301  0WD301      0.5327
     32  OP2      107.2900   56.1540   45.5570 O.3   301  0WD301     -0.1145
     33  OP1      104.9680   56.6300   44.7150 O.3   301  0WD301     -0.1145
     34  OP3      106.3440   54.6070   43.8360 O.2   301  0WD301     -0.2224
     35  O4B      109.3220   58.4320   42.2120 O.3   301  0WD301     -0.3136
     36  C1B      109.3400   58.0580   43.5920 C.3   301  0WD301      0.3185
     37  C2B      108.0910   58.7700   44.0870 C.3   301  0WD301      0.2543
     38  O2B      107.7600   58.5030   45.4410 O.3   301  0WD301     -0.2131
     39  N9A      110.4850   58.4910   44.4200 N.pl3 301  0WD301     -0.1439
     40  C4A      111.1780   57.7210   45.2410 C.2   301  0WD301      0.3518
     41  N3A      111.0420   56.3030   45.4880 N.2   301  0WD301     -0.0055
     42  C2A      111.8780   55.7070   46.3640 C.3   301  0WD301      0.5254
     43  N1A      112.8310   56.4010   47.0150 N.2   301  0WD301      0.0021
     44  C5A      112.1990   58.5100   45.8970 C.2   301  0WD301      0.2526
     45  C6A      113.0430   57.7390   46.8380 C.2   301  0WD301      0.4393
     46  N6A      114.0120   58.3830   47.5170 N.pl3 301  0WD301      0.2180
     47  N7A      112.0480   59.7690   45.4430 N.2   301  0WD301     -0.2095
     48  C8A      111.0050   59.7370   44.5570 C.3   301  0WD301      0.3377
@<TRIPOS>BOND
     1     7     6    1
     2     7     8    2
     3     6     4    2
     4     1     2    2
     5     8     9    1
     6     4     2    1
     7     4     5    1
     8     2     3   am
     9     9     5    1
    10     9    10    1
    11    10    15    1
    12    10    11    1
    13    15    16    1
    14    11    12    1
    15    11    13    1
    16    16    17    1
    17    16    13    1
    18    21    19    2
    19    20    19    1
    20    18    17    1
    21    18    19    1
    22    14    13    1
    23    19    22    1
    24    22    23    1
    25    24    23    2
    26    23    26    1
    27    23    25    1
    28    26    27    1
    29    27    28    1
    30    28    35    1
    31    28    29    1
    32    35    36    1
    33    29    30    1
    34    29    37    1
    35    30    31    1
    36    36    37    1
    37    36    39    1
    38    34    31    2
    39    37    38    1
    40    31    33    1
    41    31    32    1
    42    39    48    1
    43    39    40    1
    44    48    47    1
    45    40    41    2
    46    40    44    1
    47    47    44    2
    48    41    42    1
    49    44    45    1
    50    42    43    1
    51    45    43    2
    52    45    46    1
