@<TRIPOS>MOLECULE
4fs4_H24_A_1.pdb
 24 26 0 0 0
SMALL
GASTEIGER

@<TRIPOS>ATOM
      1  C1        30.4660    8.5250   23.5620 C.3   501  H24501      0.2525
      2  O2        29.3000    8.4980   22.7240 O.3   501  H24501     -0.4714
      3  C3        29.1060    9.5460   21.8620 C.ar  501  H24501      0.1387
      4  C4        30.0330   10.5620   21.6550 C.ar  501  H24501      0.0369
      5  C5        29.7070   11.6140   20.8160 C.ar  501  H24501      0.0031
      6  C6        28.4510   11.6800   20.2310 C.ar  501  H24501      0.0002
      7  C7        27.4960   10.6850   20.4580 C.ar  501  H24501      0.0030
      8  C8        27.8530    9.5940   21.2570 C.ar  501  H24501      0.0369
      9  C9        26.1120   10.8140   19.9230 C.ar  501  H24501     -0.0001
     10  C10       25.8810   11.3960   18.6720 C.ar  501  H24501     -0.0000
     11  C11       24.5930   11.5800   18.2030 C.ar  501  H24501     -0.0002
     12  C12       23.5120   11.1780   18.9710 C.ar  501  H24501     -0.0011
     13  C13       23.7040   10.5790   20.2150 C.ar  501  H24501      0.0140
     14  C14       22.4580   10.1240   20.9980 C.3   501  H24501      0.1765
     15  C15       21.5730    9.2100   20.0970 C.3   501  H24501      0.0485
     16  C18       21.6120   11.3560   21.4480 C.3   501  H24501      0.1472
     17  C19       22.2610   12.0320   22.6490 C.2   501  H24501      0.2912
     18  O20       22.3120   13.2530   22.7210 O.2   501  H24501     -0.2563
     19  N21       22.8590   11.2290   23.5940 N.am  501  H24501     -0.1396
     20  C22       23.4300   11.8660   24.7870 C.3   501  H24501      0.2161
     21  C23       22.8950    9.8030   23.3920 C.2   501  H24501      0.4490
     22  N24       23.0920    8.9910   24.4330 N.pl3 501  H24501      0.1440
     23  N25       22.7190    9.2600   22.1880 N.2   501  H24501     -0.0980
     24  C26       25.0100   10.4020   20.6920 C.ar  501  H24501     -0.0010
@<TRIPOS>BOND
     1    11    10   ar
     2    11    12   ar
     3    10     9   ar
     4    12    13   ar
     5     9     7    1
     6     9    24   ar
     7    15    14    1
     8    13    24   ar
     9    13    14    1
    10     6     7   ar
    11     6     5   ar
    12     7     8   ar
    13     5     4   ar
    14    14    16    1
    15    14    23    1
    16     8     3   ar
    17    16    17    1
    18     4     3   ar
    19     3     2    1
    20    23    21    2
    21    17    18    2
    22    17    19   am
    23     2     1    1
    24    21    19    1
    25    21    22    1
    26    19    20    1
