@<TRIPOS>MOLECULE
4fs9_PE1_A_1.pdb
 25 25 0 0 0
SMALL
GASTEIGER

@<TRIPOS>ATOM
      1  N1       -24.6860   -5.6970   -8.7240 N.ar  501  PE1501     -0.2452
      2  C2       -24.0400   -4.5710   -9.1200 C.ar  501  PE1501      0.0978
      3  C2A      -22.6920   -4.2310   -8.5250 C.3   501  PE1501      0.0555
      4  C3       -24.6100   -3.7300  -10.0730 C.ar  501  PE1501      0.2062
      5  O3       -23.9250   -2.6020  -10.4430 O.3   501  PE1501     -0.2856
      6  C4       -25.8730   -4.0630  -10.6260 C.ar  501  PE1501      0.0353
      7  C4A      -26.6050   -3.2160  -11.7010 C.3   501  PE1501      0.1186
      8  C5       -26.5090   -5.2480  -10.1840 C.ar  501  PE1501      0.0275
      9  C6       -25.8780   -6.0450   -9.2260 C.ar  501  PE1501      0.0965
     10  C5A      -27.8700   -5.6850  -10.7690 C.3   501  PE1501      0.1816
     11  O4P      -27.7220   -5.9830  -12.1880 O.3   501  PE1501     -0.2653
     12  P        -28.9400   -6.1650  -13.2200 P.3   501  PE1501      0.5329
     13  O1P      -29.7970   -4.9490  -13.0450 O.3   501  PE1501     -0.1145
     14  O2P      -29.5860   -7.4520  -12.7930 O.3   501  PE1501     -0.1145
     15  O3P      -28.2040   -6.1950  -14.5260 O.2   501  PE1501     -0.2224
     16  N        -26.0710   -1.8920  -12.0270 N.3   501  PE1501     -0.2034
     17  CA       -25.7560   -1.5740  -13.4280 C.3   501  PE1501      0.1760
     18  C        -24.9540   -0.3010  -13.6200 C.2   501  PE1501      0.3803
     19  O        -25.0760    0.2800  -14.7100 O.co2 501  PE1501     -0.2441
     20  CB       -27.0060   -1.5870  -14.3420 C.3   501  PE1501      0.0290
     21  CG       -26.8810   -2.5550  -15.5380 C.3   501  PE1501      0.0035
     22  CD       -28.0260   -2.3650  -16.5460 C.3   501  PE1501      0.0206
     23  CE       -28.8480   -3.6430  -16.7650 C.3   501  PE1501      0.1093
     24  OXT      -24.1730    0.1190  -12.7260 O.co2 501  PE1501     -0.2441
     25  NZ       -30.0800   -3.6120  -15.9970 N.3   501  PE1501     -0.1314
@<TRIPOS>BOND
     1    23    22    1
     2    23    25    1
     3    22    21    1
     4    21    20    1
     5    19    18   ar
     6    15    12    2
     7    20    17    1
     8    18    17    1
     9    18    24   ar
    10    17    16    1
    11    12    13    1
    12    12    14    1
    13    12    11    1
    14    11    10    1
    15    16     7    1
    16     7     6    1
    17    10     8    1
    18     6     8   ar
    19     6     4   ar
    20     5     4    1
    21     8     9   ar
    22     4     2   ar
    23     9     1   ar
    24     2     1   ar
    25     2     3    1
