@<TRIPOS>MOLECULE
4fse_0VA_A_1.pdb
 30 32 0 0 0
SMALL
GASTEIGER

@<TRIPOS>ATOM
      1  C01       -4.6970   17.6140   28.0890 C.ar  501  0VA501      0.0046
      2  C02       -3.3550   17.2840   30.2320 C.ar  501  0VA501      0.0046
      3  C03       -3.6040   16.8680   27.3070 C.ar  501  0VA501      0.0369
      4  C04       -2.2460   16.5340   29.4970 C.ar  501  0VA501      0.0369
      5  C05       -5.3780   11.6150   32.4650 C.ar  501  0VA501      0.0120
      6  C06       -3.5140   11.6780   34.2470 C.ar  501  0VA501      0.0120
      7  C07       -4.6310   17.8850   29.6040 C.ar  501  0VA501      0.0187
      8  C08       -6.0550   18.2200   32.0800 C.ar  501  0VA501      0.0943
      9  C09       -4.8720   12.1560   33.7910 C.ar  501  0VA501      0.0226
     10  C10       -3.2300   10.0750   32.0800 C.ar  501  0VA501      0.1101
     11  C11       -2.3430   16.3030   27.9880 C.ar  501  0VA501      0.1387
     12  C12       -4.5930   10.6120   31.6410 C.ar  501  0VA501      0.0750
     13  C13       -2.7560   10.6760   33.3960 C.ar  501  0VA501      0.0750
     14  C14       -5.4510   18.5220   30.7200 C.ar  501  0VA501      0.0952
     15  C15       -6.8830   19.3180   32.6930 C.ar  501  0VA501      0.0329
     16  C16       -5.7970   17.0440   33.0120 C.2   501  0VA501      0.3438
     17  C17       -4.9820   15.4990   34.8320 C.2   501  0VA501      0.4931
     18  C18       -7.5980   19.3960   34.0300 C.3   501  0VA501      0.0399
     19  C19       -0.5370   14.5580   27.6450 C.3   501  0VA501      0.2525
     20  C20       -5.8040   13.1570   34.4090 C.3   501  0VA501      0.2467
     21  N21       -6.0190   19.8320   30.3290 N.ar  501  0VA501     -0.2093
     22  N22       -4.9990   16.8440   34.2580 N.am  501  0VA501      0.0087
     23  N23       -2.4340    9.0840   31.3080 N.pl3 501  0VA501     -0.1263
     24  N24       -4.3150   15.0350   36.0640 N.pl3 501  0VA501      0.1297
     25  N25       -5.7530   14.5630   34.0140 N.pl3 501  0VA501     -0.0860
     26  O26       -6.3610   15.8320   32.5160 O.2   501  0VA501     -0.2482
     27  O27       -1.3910   15.6160   27.1670 O.3   501  0VA501     -0.4714
     28  S28       -6.9470   20.5680   31.4500 S.2   501  0VA501      0.0088
     29 CL1        -5.3660   10.0620   30.1370 Cl    501  0VA501     -0.0808
     30 CL2        -1.2060   10.1490   34.0230 Cl    501  0VA501     -0.0808
@<TRIPOS>BOND
     1    27    19    1
     2    27    11    1
     3     3    11   ar
     4     3     1   ar
     5    11     4   ar
     6     1     7   ar
     7     4     2   ar
     8     7     2   ar
     9     7    14    1
    10    29    12    1
    11    21    14   ar
    12    21    28   ar
    13    14     8   ar
    14    23    10    1
    15    28    15   ar
    16    12    10   ar
    17    12     5   ar
    18    10    13   ar
    19     8    15   ar
    20     8    16    1
    21     5     9   ar
    22    26    16    2
    23    15    18    1
    24    16    22   am
    25    13    30    1
    26    13     6   ar
    27     9     6   ar
    28     9    20    1
    29    25    20    1
    30    25    17    1
    31    22    17    1
    32    17    24    2
