@<TRIPOS>MOLECULE
4fsf_0W0_A_1.pdb
 45 47 0 0 0
SMALL
GASTEIGER

@<TRIPOS>ATOM
      1  C          5.7210   -4.4680   16.7480 C.2   601  0W0601      0.2303
      2  CA         5.7760   -3.0320   17.1990 C.3   601  0W0601      0.1793
      3  N          6.3500   -2.2860   16.0930 N.am  601  0W0601     -0.1924
      4  O          5.7510   -4.8470   15.5820 O.2   601  0W0601     -0.2864
      5  C2        -0.0650    0.9270   18.5130 C.ar  601  0W0601      0.0690
      6  C21        9.6200   -3.2360   14.9980 C.3   601  0W0601      0.1266
      7  C1        -0.6930    1.0550   19.7780 C.ar  601  0W0601      0.1424
      8  C35        9.2370   -2.0190   14.4740 C.2   601  0W0601      0.1478
      9  C3         1.1350    0.3030   18.7740 C.ar  601  0W0601      0.2316
     10  C19       10.8110   -2.5440   13.0120 C.2   601  0W0601      0.2461
     11  C11       -2.3000    1.6820   21.3740 C.ar  601  0W0601      0.0677
     12  C8        -4.1050    2.5090   19.4380 C.ar  601  0W0601      0.1665
     13  C6        -1.9790    1.6100   20.0710 C.ar  601  0W0601      0.1264
     14  C9        -4.5510    2.6500   20.6920 C.ar  601  0W0601      0.2548
     15  C10       -3.6180    2.2340   21.7740 C.ar  601  0W0601      0.2375
     16  C26        8.1930   -1.1990   15.0210 C.2   601  0W0601      0.2002
     17  C14        2.2130   -0.1010   17.9410 C.2   601  0W0601      0.3022
     18  C24        7.5180   -1.6020   16.2980 C.2   601  0W0601      0.2884
     19  C30        7.2580    2.7310   13.9300 C.2   601  0W0601      0.4027
     20  C31        5.0720    2.2720   14.8540 C.3   601  0W0601      0.0583
     21  C32        5.8100    1.1420   12.7880 C.3   601  0W0601      0.0583
     22  C37        4.4640   -1.1050   18.0690 C.3   601  0W0601      0.1369
     23  C23        4.3910   -2.5520   17.6130 C.3   601  0W0601      0.1430
     24  C29        6.2360    1.6000   14.1640 C.3   601  0W0601      0.2530
     25  N5         0.1000    0.5380   20.7330 N.ar  601  0W0601     -0.0752
     26  N18        9.9150   -1.6390   13.3430 N.2   601  0W0601     -0.3794
     27  N27        7.8260   -0.1400   14.3620 N.2   601  0W0601     -0.0757
     28  N7        -2.8670    2.0230   19.0920 N.ar  601  0W0601     -0.1237
     29  N36       11.6320   -2.4370   11.9400 N.pl3 601  0W0601     -0.0867
     30  N15        3.2310   -0.6820   18.6770 N.am  601  0W0601     -0.1974
     31  N22        3.4610   -2.7080   16.4680 N.3   601  0W0601     -0.1168
     32  O34        8.2660    2.7050   14.6990 O.co2 601  0W0601     -0.2417
     33  O41        1.2940   -3.1770   17.7270 O.3   601  0W0601     -0.2919
     34  O12       -3.9040    2.3260   22.9630 O.2   601  0W0601     -0.2830
     35  O16        2.2170    0.0600   16.7250 O.2   601  0W0601     -0.2649
     36  O25        8.0570   -1.3030   17.3530 O.2   601  0W0601     -0.2665
     37  O33        7.0150    3.5600   13.0020 O.co2 601  0W0601     -0.2417
     38  O39        1.4240   -3.7000   15.3560 O.3   601  0W0601     -0.2919
     39  O40        2.6550   -5.0300   16.9820 O.3   601  0W0601     -0.2919
     40  O4         1.2560    0.0750   20.1090 O.2   601  0W0601     -0.3486
     41  O13       -5.7960    3.1460   21.0180 O.3   601  0W0601     -0.2814
     42  O17       -2.5740    1.9210   17.7360 O.3   601  0W0601     -0.1631
     43  O28        6.7680    0.5460   14.9890 O.2   601  0W0601     -0.3735
     44  S20       10.8780   -3.9170   14.0530 S.3   601  0W0601     -0.0564
     45  S38        2.0960   -3.7280   16.6480 S.3   601  0W0601     -0.1289
@<TRIPOS>BOND
     1    29    10    1
     2    21    24    1
     3    37    19   ar
     4    10    26    2
     5    10    44    1
     6    26     8    2
     7    19    24    1
     8    19    32   ar
     9    44     6    1
    10    24    20    1
    11    24    43    1
    12    27    43    1
    13    27    16    2
    14     8     6    1
    15     8    16    1
    16    16    18    1
    17    38    45    1
    18     4     1    2
    19     3    18   am
    20     3     2    1
    21    18    36    2
    22    31    45    1
    23    31    23    1
    24    45    39    1
    25    45    33    1
    26    35    17    2
    27     1     2    1
    28     2    23    1
    29    23    22    1
    30    42    28    1
    31    17    30   am
    32    17     9    1
    33    22    30    1
    34     5     9   ar
    35     5     7   ar
    36     9    40   ar
    37    28    12   ar
    38    28    13   ar
    39    12    14   ar
    40     7    13    1
    41     7    25   ar
    42    13    11   ar
    43    40    25   ar
    44    14    41    1
    45    14    15   ar
    46    11    15   ar
    47    15    34    2
