@<TRIPOS>MOLECULE
4fsh_SKM_A_1.pdb
 12 12 0 0 0
SMALL
GASTEIGER

@<TRIPOS>ATOM
      1  O12        8.9590  -11.4980  -36.5990 O.3   500  SKM500     -0.2173
      2  C8         9.1580  -11.0380  -37.9430 C.3   500  SKM500      0.2167
      3  C6         7.8820  -11.2150  -38.7620 C.3   500  SKM500      0.1896
      4  O7         7.4930  -12.5780  -38.7390 O.3   500  SKM500     -0.2200
      5  C5         8.1500  -10.8770  -40.2010 C.3   500  SKM500      0.0684
      6  C4         8.8130   -9.5140  -40.3480 C.2   500  SKM500      0.0584
      7  C1         8.7470   -8.8170  -41.6790 C.2   500  SKM500      0.3837
      8  O2         8.1400   -9.3960  -42.5830 O.co2 500  SKM500     -0.2409
      9  O3         9.2590   -7.6900  -41.7840 O.co2 500  SKM500     -0.2409
     10  C10        9.5020   -8.9170  -39.3030 C.2   500  SKM500      0.0111
     11  C9         9.6430   -9.5720  -37.9260 C.3   500  SKM500      0.2066
     12  O11        8.9140   -8.7910  -36.9660 O.3   500  SKM500     -0.2155
@<TRIPOS>BOND
     1     8     7   ar
     2     9     7   ar
     3     7     6    1
     4     6     5    1
     5     6    10    2
     6     5     3    1
     7    10    11    1
     8     3     4    1
     9     3     2    1
    10     2    11    1
    11     2     1    1
    12    11    12    1
