@<TRIPOS>MOLECULE
4fsl_0VB_A_1.pdb
 33 35 0 0 0
SMALL
GASTEIGER

@<TRIPOS>ATOM
      1  C01       -4.7720   17.7340   28.8060 C.ar  501  0VB501      0.0046
      2  C02       -3.1750   16.8450   30.6260 C.ar  501  0VB501      0.0046
      3  C03       -3.8700   17.0690   27.7530 C.ar  501  0VB501      0.0369
      4  C04       -2.2580   16.1780   29.6150 C.ar  501  0VB501      0.0369
      5  C05       -3.2260   11.4000   34.9980 C.ar  501  0VB501     -0.0037
      6  C06       -5.0910   11.2340   33.2520 C.ar  501  0VB501      0.0119
      7  C07       -4.4200   17.6590   30.2920 C.ar  501  0VB501      0.0187
      8  C08       -5.9540   17.9050   32.6240 C.ar  501  0VB501      0.0943
      9  C09       -4.6440   11.7990   34.5930 C.ar  501  0VB501      0.0215
     10  C10       -2.3080   10.4630   34.2200 C.ar  501  0VB501     -0.0059
     11  C11       -2.7880    9.8610   32.8960 C.ar  501  0VB501      0.0799
     12  C12       -2.6080   16.2830   28.1320 C.ar  501  0VB501      0.1387
     13  C13       -4.1820   10.3030   32.4710 C.ar  501  0VB501      0.0724
     14  C14       -5.3350   18.2810   31.3230 C.ar  501  0VB501      0.0952
     15  C15       -6.8100   18.9730   33.2510 C.ar  501  0VB501      0.0329
     16  C16       -5.8540   16.6390   33.4100 C.2   501  0VB501      0.3438
     17  C17       -0.9820    9.4770   31.0730 C.2   501  0VB501      0.2461
     18  C18       -5.2710   15.3170   35.5230 C.2   501  0VB501      0.4931
     19  C19       -0.9390   10.1680   34.8270 C.3   501  0VB501      0.0324
     20  C20       -7.6180   19.0020   34.5450 C.3   501  0VB501      0.0399
     21  C21       -0.0050    8.7230   30.1700 C.3   501  0VB501      0.0968
     22  C22       -0.4290   15.0020   27.5800 C.3   501  0VB501      0.2525
     23  C23       -5.7020   12.7190   35.1310 C.3   501  0VB501      0.2466
     24  N24       -5.7330   19.6700   30.9710 N.ar  501  0VB501     -0.2093
     25  N25       -5.3640   16.5790   34.7980 N.am  501  0VB501      0.0087
     26  N26       -4.8280   15.1340   36.9220 N.pl3 501  0VB501      0.1297
     27  N27       -1.9100    8.9770   32.1110 N.am  501  0VB501     -0.1787
     28  N28       -5.7160   14.1370   34.7630 N.pl3 501  0VB501     -0.0860
     29  O29       -6.2250   15.4950   32.6400 O.2   501  0VB501     -0.2482
     30  O30       -0.9920   10.8940   30.8660 O.2   501  0VB501     -0.2730
     31  O31       -1.6830   15.6230   27.2690 O.3   501  0VB501     -0.4714
     32  S32       -6.7140   20.3290   32.1050 S.2   501  0VB501      0.0088
     33 CL1        -5.0270    9.7940   31.0020 Cl    501  0VB501     -0.0809
@<TRIPOS>BOND
     1    31    22    1
     2    31    12    1
     3     3    12   ar
     4     3     1   ar
     5    12     4   ar
     6     1     7   ar
     7     4     2   ar
     8    21    17    1
     9     7     2   ar
    10     7    14    1
    11    30    17    2
    12    24    14   ar
    13    24    32   ar
    14    33    13    1
    15    17    27   am
    16    14     8   ar
    17    32    15   ar
    18    27    11    1
    19    13    11   ar
    20    13     6   ar
    21     8    15   ar
    22     8    16    1
    23    29    16    2
    24    11    10   ar
    25    15    20    1
    26     6     9   ar
    27    16    25   am
    28    10    19    1
    29    10     5   ar
    30     9     5   ar
    31     9    23    1
    32    28    23    1
    33    28    18    1
    34    25    18    1
    35    18    26    2
