@<TRIPOS>MOLECULE
4fsm_HK1_A_1.pdb
 39 42 0 0 0
SMALL
GASTEIGER

@<TRIPOS>ATOM
      1  O1        10.5750   -4.5950   12.8170 O.3   301  HK1301     -0.5068
      2  C1        11.6790   -4.2830   12.0650 C.ar  301  HK1301      0.1169
      3  C6        12.7800   -5.1220   12.1210 C.ar  301  HK1301     -0.0196
      4  C5        13.9190   -4.8150   11.3970 C.ar  301  HK1301     -0.0491
      5  C4        13.9790   -3.6760   10.6010 C.ar  301  HK1301      0.0003
      6  C3        12.8640   -2.8450   10.5510 C.ar  301  HK1301     -0.0491
      7  C2        11.7240   -3.1400   11.2770 C.ar  301  HK1301     -0.0196
      8  C7        15.2270   -3.3220    9.8870 C.ar  301  HK1301      0.0698
      9  C9        16.4660   -3.9240    9.9290 C.ar  301  HK1301      0.0099
     10  C10       17.2660   -5.0240   10.5090 C.3   301  HK1301      0.0024
     11  C11       18.6580   -4.7540   10.0140 C.ar  301  HK1301     -0.0300
     12  C18       18.6560   -3.6590    9.1580 C.ar  301  HK1301      0.0096
     13  C8        17.3110   -3.1070    9.0830 C.ar  301  HK1301      0.0970
     14  N2        16.6040   -2.0980    8.5640 N.ar  301  HK1301     -0.1730
     15  N1        15.3420   -2.2500    9.0680 N.ar  301  HK1301     -0.2761
     16  C17       19.8380   -3.2350    8.5430 C.ar  301  HK1301     -0.0068
     17  C15       21.0240   -3.9110    8.8020 C.ar  301  HK1301      0.1621
     18  O3        22.2400   -3.6000    8.2540 O.3   301  HK1301     -0.4914
     19  C16       22.3210   -2.4740    7.3720 C.3   301  HK1301      0.0790
     20  C13       21.0240   -5.0210    9.6790 C.ar  301  HK1301      0.1618
     21  C12       19.8430   -5.4260   10.2800 C.ar  301  HK1301     -0.0122
     22  O2        22.2300   -5.6500    9.8290 O.3   301  HK1301     -0.4914
     23  C14       22.2750   -6.8370   10.6250 C.3   301  HK1301      0.0790
     24  H2         9.8670   -3.9130   12.6770 H     301  HK1301      0.2921
     25  H6        12.7460   -6.0190   12.7370 H     301  HK1301      0.0654
     26  H5        14.7650   -5.4980   11.4610 H     301  HK1301      0.0625
     27  H4        12.8350   -1.9360    9.9540 H     301  HK1301      0.0625
     28  H3        10.8750   -2.4610   11.2210 H     301  HK1301      0.0654
     29  H8        16.9220   -5.9950   10.1560 H     301  HK1301      0.0363
     30  H7        17.2230   -5.0460   11.5970 H     301  HK1301      0.0363
     31  H1        14.6500   -1.5680    8.7780 H     301  HK1301      0.1889
     32  H10       19.7550   -2.4130    7.8350 H     301  HK1301      0.0662
     33 H161       21.7500   -2.6300    6.4580 H     301  HK1301      0.0660
     34 H162       23.3780   -2.4490    7.1120 H     301  HK1301      0.0660
     35 H163       22.0530   -1.5170    7.8180 H     301  HK1301      0.0660
     36  H9        19.7600   -6.2620   10.9740 H     301  HK1301      0.0658
     37 H143       21.6890   -7.6310   10.1670 H     301  HK1301      0.0660
     38 H141       23.3330   -7.0910   10.6100 H     301  HK1301      0.0660
     39 H142       21.9760   -6.6950   11.6630 H     301  HK1301      0.0660
@<TRIPOS>BOND
     1    33    19    1
     2    34    19    1
     3    19    35    1
     4    19    18    1
     5    32    16    1
     6    18    17    1
     7    16    17   ar
     8    16    12   ar
     9    14    15   ar
    10    14    13   ar
    11    31    15    1
    12    17    20   ar
    13    15     8   ar
    14    13    12    1
    15    13     9   ar
    16    12    11   ar
    17    20    22    1
    18    20    21   ar
    19    22    23    1
    20     8     9   ar
    21     8     5    1
    22     9    10    1
    23    27     6    1
    24    11    21   ar
    25    11    10    1
    26    29    10    1
    27    37    23    1
    28    21    36    1
    29    10    30    1
    30     6     5   ar
    31     6     7   ar
    32     5     4   ar
    33    38    23    1
    34    23    39    1
    35    28     7    1
    36     7     2   ar
    37     4    26    1
    38     4     3   ar
    39     2     3   ar
    40     2     1    1
    41     3    25    1
    42    24     1    1
