@<TRIPOS>MOLECULE
4fsq_HK3_A_1.pdb
 35 39 0 0 0
SMALL
GASTEIGER

@<TRIPOS>ATOM
      1  O1         6.7680   -4.5490   14.6530 O.3   300  HK3300     -0.2866
      2  C1         8.0330   -4.3900   14.1750 C.ar  300  HK3300      0.1957
      3  C6         8.5160   -3.1180   13.9150 C.ar  300  HK3300      0.0420
      4  C5         9.7740   -2.9580   13.3630 C.ar  300  HK3300      0.0033
      5  C4        10.5940   -4.0560   13.0740 C.ar  300  HK3300      0.0002
      6  C3        10.1050   -5.3230   13.3990 C.ar  300  HK3300      0.0033
      7  C2         8.8340   -5.4950   13.9230 C.ar  300  HK3300      0.0420
      8  C7        11.7960   -3.9010   12.2100 C.ar  300  HK3300      0.0000
      9  C12       12.7170   -4.9340   12.0510 C.ar  300  HK3300      0.0000
     10  C11       13.8500   -4.7710   11.2720 C.ar  300  HK3300      0.0016
     11  C10       14.0730   -3.5800   10.5860 C.ar  300  HK3300      0.0195
     12  C9        13.1090   -2.5840   10.6610 C.ar  300  HK3300      0.0016
     13  C8        11.9980   -2.7400   11.4660 C.ar  300  HK3300      0.0000
     14  C13       15.3770   -3.3060    9.9520 C.2   300  HK3300      0.1043
     15  C15       16.5800   -3.9750   10.0260 C.2   300  HK3300      0.0388
     16  C16       17.3260   -5.1000   10.6210 C.2   300  HK3300      0.0033
     17  C17       18.7470   -4.8260   10.2170 C.ar  300  HK3300      0.0048
     18  C24       18.7890   -3.7430    9.3450 C.ar  300  HK3300      0.0227
     19  C14       17.4770   -3.1810    9.2170 C.2   300  HK3300      0.1044
     20  N2        16.8450   -2.1310    8.6870 N.2   300  HK3300     -0.1480
     21  N1        15.5650   -2.2320    9.1550 N.2   300  HK3300     -0.1480
     22  C23       19.9820   -3.3620    8.7320 C.ar  300  HK3300      0.0415
     23  C21       21.1360   -4.0950    8.9780 C.ar  300  HK3300      0.1706
     24  O3        22.3500   -3.8600    8.3850 O.3   300  HK3300     -0.4908
     25  C22       22.5020   -2.6770    7.5910 C.3   300  HK3300      0.0790
     26  C19       21.0970   -5.1950    9.8720 C.ar  300  HK3300      0.1705
     27  C18       19.9090   -5.5300   10.5040 C.ar  300  HK3300      0.0400
     28  O2        22.2640   -5.9070    9.9820 O.3   300  HK3300     -0.4908
     29  C20       22.2450   -7.1220   10.7390 C.3   300  HK3300      0.0790
     30 H222       21.9210   -2.6450    6.6700 H     300  HK3300      0.0660
     31 H223       23.5590   -2.6820    7.3270 H     300  HK3300      0.0660
     32 H221       22.3070   -1.7890    8.1890 H     300  HK3300      0.0660
     33 H203       21.6240   -7.9090   10.3180 H     300  HK3300      0.0660
     34 H201       23.2770   -7.4620   10.6680 H     300  HK3300      0.0660
     35 H202       22.0170   -6.9650   11.7930 H     300  HK3300      0.0660
@<TRIPOS>BOND
     1    30    25    1
     2    31    25    1
     3    25    32    1
     4    25    24    1
     5    24    23    1
     6    20    21    1
     7    20    19    2
     8    22    23   ar
     9    22    18   ar
    10    23    26   ar
    11    21    14    2
    12    19    18    1
    13    19    15    1
    14    18    17   ar
    15    26    28    1
    16    26    27   ar
    17    14    15    1
    18    14    11    1
    19    28    29    1
    20    15    16    2
    21    17    27   ar
    22    17    16    1
    23    33    29    1
    24    11    12   ar
    25    11    10   ar
    26    12    13   ar
    27    34    29    1
    28    29    35    1
    29    10     9   ar
    30    13     8   ar
    31     9     8   ar
    32     8     5    1
    33     5     4   ar
    34     5     6   ar
    35     4     3   ar
    36     6     7   ar
    37     3     2   ar
    38     7     2   ar
    39     2     1    1
