@<TRIPOS>MOLECULE
4fsr_HKC_A_1.pdb
 41 45 0 0 0
SMALL
GASTEIGER

@<TRIPOS>ATOM
      1  C19       22.5740   -2.1060    7.0840 C.3   300  HKC300      0.0790
      2  O2        22.5400   -3.3890    7.7070 O.3   300  HKC300     -0.4914
      3  C18       21.3610   -3.8090    8.2600 C.ar  300  HKC300      0.1621
      4  C2        21.4500   -4.9720    9.0570 C.ar  300  HKC300      0.1618
      5  O1        22.6860   -5.5600    9.0960 O.3   300  HKC300     -0.4914
      6  C1        22.8530   -6.7220    9.9060 C.3   300  HKC300      0.0790
      7  C17       20.1440   -3.1540    8.1260 C.ar  300  HKC300     -0.0071
      8  C16       19.0270   -3.6340    8.8040 C.ar  300  HKC300      0.0059
      9  C4        19.1140   -4.7720    9.5970 C.ar  300  HKC300     -0.0335
     10  C3        20.3270   -5.4390    9.7260 C.ar  300  HKC300     -0.0125
     11  C7        17.7150   -3.1540    8.8480 C.2   300  HKC300      0.0846
     12  N1        16.8910   -2.0230    8.4000 N.2   300  HKC300     -0.1524
     13  N2        15.7490   -2.1390    8.9050 N.2   300  HKC300     -0.1524
     14  C8        15.6720   -3.3870    9.7580 C.2   300  HKC300      0.0843
     15  C6        16.9430   -3.9830    9.6610 C.3   300  HKC300      0.0803
     16  C5        17.7670   -5.0990   10.1690 C.3   300  HKC300     -0.0090
     17  C9        14.4660   -3.8090   10.5050 C.ar  300  HKC300     -0.0010
     18  C15       13.3300   -3.0060   10.5780 C.ar  300  HKC300     -0.0516
     19  C14       12.2270   -3.4120   11.3080 C.ar  300  HKC300     -0.0439
     20  C12       12.2190   -4.6470   11.9550 C.ar  300  HKC300      0.0492
     21  C11       13.3440   -5.4560   11.8600 C.ar  300  HKC300     -0.0439
     22  C10       14.4530   -5.0420   11.1480 C.ar  300  HKC300     -0.0516
     23  C13       11.0470   -5.0830   12.7380 C.1   300  HKC300      0.0794
     24  N6         9.8740   -4.3910   12.9050 N.2   300  HKC300     -0.0712
     25  N5         9.0340   -5.2060   13.5810 N.2   300  HKC300     -0.0129
     26  N4         9.6420   -6.3360   13.8470 N.2   300  HKC300     -0.0129
     27  N3        10.9110   -6.3000   13.3560 N.2   300  HKC300     -0.0712
     28 H191       21.9640   -2.0080    6.1880 H     300  HKC300      0.0660
     29 H192       23.6190   -1.9680    6.8110 H     300  HKC300      0.0660
     30 H193       22.2700   -1.3410    7.7950 H     300  HKC300      0.0660
     31  H13       22.2560   -7.5700    9.5740 H     300  HKC300      0.0660
     32  H11       23.9040   -6.9600    9.7510 H     300  HKC300      0.0660
     33  H12       22.6720   -6.5340   10.9640 H     300  HKC300      0.0660
     34  H8        19.9980   -2.3060    7.4590 H     300  HKC300      0.0662
     35  H1        20.3260   -6.3210   10.3640 H     300  HKC300      0.0658
     36  H2        17.4060   -6.0740    9.8480 H     300  HKC300      0.0327
     37  H3        17.7900   -5.1280   11.2580 H     300  HKC300      0.0327
     38  H7        13.3050   -2.0450   10.0670 H     300  HKC300      0.0624
     39  H6        11.3600   -2.7570   11.3810 H     300  HKC300      0.0630
     40  H5        13.3570   -6.4300   12.3460 H     300  HKC300      0.0630
     41  H4        15.3010   -5.7220   11.0990 H     300  HKC300      0.0624
@<TRIPOS>BOND
     1    28     1    1
     2    29     1    1
     3     1     2    1
     4     1    30    1
     5    34     7    1
     6     2     3    1
     7     7     3   ar
     8     7     8   ar
     9     3     4   ar
    10    12    11    2
    11    12    13    1
    12     8    11    1
    13     8     9   ar
    14    11    15    1
    15    13    14    2
    16     4     5    1
    17     4    10   ar
    18     5     6    1
    19    31     6    1
    20     9    10   ar
    21     9    16    1
    22    15    14    1
    23    15    16    1
    24    10    35    1
    25    32     6    1
    26    14    17    1
    27    36    16    1
    28     6    33    1
    29    38    18    1
    30    16    37    1
    31    17    18   ar
    32    17    22   ar
    33    18    19   ar
    34    41    22    1
    35    22    21   ar
    36    19    39    1
    37    19    20   ar
    38    21    20   ar
    39    21    40    1
    40    20    23    1
    41    23    24    2
    42    23    27    2
    43    24    25    1
    44    27    26    1
    45    25    26    2
