@<TRIPOS>MOLECULE
4fst_HK4_A_1.pdb
 45 48 0 0 0
SMALL
GASTEIGER

@<TRIPOS>ATOM
      1  O1         7.5360   -4.3480   14.6220 O.3   301  HK4301     -0.5033
      2  C1         8.6360   -4.1410   13.8530 C.ar  301  HK4301      0.1585
      3  C6         9.0760   -2.8400   13.5820 C.ar  301  HK4301      0.1624
      4  O2         8.3030   -1.8520   14.1360 O.3   301  HK4301     -0.4914
      5  C7         8.6830   -0.4910   13.9100 C.3   301  HK4301      0.0790
      6  C5        10.2160   -2.6340   12.8210 C.ar  301  HK4301     -0.0009
      7  C4        10.9210   -3.7280   12.3210 C.ar  301  HK4301      0.0290
      8  C3        10.4980   -5.0260   12.6090 C.ar  301  HK4301     -0.0426
      9  C2         9.3580   -5.2290   13.3620 C.ar  301  HK4301     -0.0154
     10  C8        12.0620   -3.5020   11.4760 C.1   301  HK4301     -0.0594
     11  C9        13.0260   -3.2870   10.8070 C.1   301  HK4301     -0.0414
     12  C10       14.2290   -3.1320   10.1290 C.ar  301  HK4301      0.1125
     13  C12       15.3820   -3.8850   10.1930 C.ar  301  HK4301      0.0177
     14  C13       16.0050   -5.0690   10.8170 C.3   301  HK4301      0.0030
     15  C14       17.4340   -4.9860   10.3600 C.ar  301  HK4301     -0.0300
     16  C21       17.5920   -3.9070    9.5010 C.ar  301  HK4301      0.0096
     17  C11       16.3400   -3.1830    9.3730 C.ar  301  HK4301      0.0976
     18  N2        15.8220   -2.0760    8.8280 N.ar  301  HK4301     -0.1725
     19  N1        14.5370   -2.0460    9.2920 N.ar  301  HK4301     -0.2684
     20  C20       18.8340   -3.6250    8.9350 C.ar  301  HK4301     -0.0068
     21  C18       19.9290   -4.4210    9.2490 C.ar  301  HK4301      0.1621
     22  O4        21.1960   -4.2540    8.7490 O.3   301  HK4301     -0.4914
     23  C19       21.4160   -3.2260    7.7810 C.3   301  HK4301      0.0790
     24  C16       19.7730   -5.5120   10.1310 C.ar  301  HK4301      0.1618
     25  C15       18.5250   -5.7890   10.6750 C.ar  301  HK4301     -0.0122
     26  O3        20.9160   -6.2290   10.3710 O.3   301  HK4301     -0.4914
     27  C17       20.8330   -7.3800   11.2140 C.3   301  HK4301      0.0790
     28  H2         7.1700   -3.4750   14.9220 H     301  HK4301      0.2923
     29  H73        8.6220   -0.1930   12.8650 H     301  HK4301      0.0660
     30  H72        9.6770   -0.2690   14.2970 H     301  HK4301      0.0660
     31  H71        7.9610    0.0780   14.4930 H     301  HK4301      0.0660
     32  H5        10.6130   -1.6480   12.5940 H     301  HK4301      0.0667
     33  H4        11.0630   -5.8810   12.2420 H     301  HK4301      0.0631
     34  H3         9.0410   -6.2510   13.5610 H     301  HK4301      0.0656
     35  H6        15.5350   -5.9920   10.4820 H     301  HK4301      0.0363
     36  H7        15.9210   -5.0590   11.9020 H     301  HK4301      0.0363
     37  H1        13.9170   -1.2900    9.0210 H     301  HK4301      0.1897
     38  H9        18.8770   -2.7940    8.2330 H     301  HK4301      0.0662
     39 H191       20.7610   -3.3330    6.9170 H     301  HK4301      0.0660
     40 H192       22.4470   -3.3950    7.4720 H     301  HK4301      0.0660
     41 H193       21.3410   -2.2100    8.1630 H     301  HK4301      0.0660
     42  H8        18.3270   -6.6250   11.3430 H     301  HK4301      0.0658
     43 H172       20.0910   -8.1080   10.8920 H     301  HK4301      0.0660
     44 H171       21.8240   -7.8190   11.1130 H     301  HK4301      0.0660
     45 H173       20.6600   -7.1200   12.2570 H     301  HK4301      0.0660
@<TRIPOS>BOND
     1    39    23    1
     2    40    23    1
     3    23    41    1
     4    23    22    1
     5    38    20    1
     6    22    21    1
     7    18    19   ar
     8    18    17   ar
     9    20    21   ar
    10    20    16   ar
    11    37    19    1
    12    21    24   ar
    13    19    12   ar
    14    17    16    1
    15    17    13   ar
    16    16    15   ar
    17    12    13   ar
    18    12    11    1
    19    24    26    1
    20    24    25   ar
    21    13    14    1
    22    15    25   ar
    23    15    14    1
    24    26    27    1
    25    35    14    1
    26    25    42    1
    27    11    10    3
    28    14    36    1
    29    43    27    1
    30    44    27    1
    31    27    45    1
    32    10     7    1
    33    33     8    1
    34     7     8   ar
    35     7     6   ar
    36    32     6    1
    37     8     9   ar
    38     6     3   ar
    39    29     5    1
    40     9    34    1
    41     9     2   ar
    42     3     2   ar
    43     3     4    1
    44     2     1    1
    45     5     4    1
    46     5    30    1
    47     5    31    1
    48     1    28    1
