@<TRIPOS>MOLECULE
4fsu_HK5_A_1.pdb
 45 49 0 0 0
SMALL
GASTEIGER

@<TRIPOS>ATOM
      1  N5         9.9830   -5.4820   13.3970 N.1   301  HK5301     -0.1909
      2  C22       10.8890   -5.1240   12.8010 C.1   301  HK5301      0.0992
      3  C19       12.0050   -4.6940   12.0570 C.ar  301  HK5301      0.0518
      4  C18       11.9540   -3.5030   11.2980 C.ar  301  HK5301     -0.0437
      5  C17       13.0640   -3.1130   10.5610 C.ar  301  HK5301     -0.0514
      6  C20       13.1390   -5.4810   12.0830 C.ar  301  HK5301     -0.0437
      7  C21       14.2570   -5.0910   11.3530 C.ar  301  HK5301     -0.0514
      8  C16       14.2410   -3.8960   10.5900 C.ar  301  HK5301      0.0002
      9  C15       15.4570   -3.4950    9.8710 C.ar  301  HK5301      0.0698
     10  N4        15.5050   -2.3420    9.0890 N.ar  301  HK5301     -0.2761
     11  N3        16.7720   -2.2190    8.6130 N.ar  301  HK5301     -0.1730
     12  C14       17.5400   -3.2620    9.0620 C.ar  301  HK5301      0.0969
     13  C4        18.8850   -3.7210    9.0250 C.ar  301  HK5301      0.0093
     14  C3        19.9850   -3.2200    8.3590 C.ar  301  HK5301     -0.0101
     15  C13       16.7410   -4.1000    9.8560 C.ar  301  HK5301      0.0099
     16  C12       17.5750   -5.2250   10.3960 C.3   301  HK5301      0.0023
     17  C5        18.9470   -4.8710    9.8460 C.ar  301  HK5301     -0.0332
     18  C6        20.1660   -5.5410   10.0170 C.ar  301  HK5301     -0.0495
     19  C7        21.3250   -5.0590    9.3440 C.ar  301  HK5301      0.0118
     20  C2        21.2240   -3.9090    8.5170 C.ar  301  HK5301      0.1254
     21  O         22.3820   -3.5700    7.8730 O.3   301  HK5301     -0.4948
     22  C1        22.4140   -2.4510    7.0110 C.3   301  HK5301      0.0788
     23  C8        22.6450   -5.7790    9.5330 C.3   301  HK5301      0.0431
     24  N1        22.7940   -6.8100    8.5010 N.pl3 301  HK5301     -0.2959
     25  C11       22.4280   -8.1500    8.5970 C.2   301  HK5301      0.1363
     26  N2        22.6390   -8.7850    7.4190 N.2   301  HK5301     -0.4068
     27  C10       23.1840   -7.8260    6.5590 C.2   301  HK5301      0.0794
     28  C9        23.2940   -6.6010    7.2080 C.3   301  HK5301      0.0963
     29  H15       11.0510   -2.8940   11.2900 H     301  HK5301      0.0631
     30  H14       12.9990   -2.1950    9.9800 H     301  HK5301      0.0624
     31  H16       13.1580   -6.3980   12.6690 H     301  HK5301      0.0631
     32  H17       15.1290   -5.7420   11.3870 H     301  HK5301      0.0624
     33  H1        14.7410   -1.8760    8.6120 H     301  HK5301      0.1889
     34  H5        19.8570   -2.3620    7.7020 H     301  HK5301      0.0661
     35  H13       17.2440   -6.2000   10.0440 H     301  HK5301      0.0363
     36  H12       17.5840   -5.2650   11.4840 H     301  HK5301      0.0363
     37  H6        20.2220   -6.4200   10.6580 H     301  HK5301      0.0625
     38  H4        21.7390   -2.5720    6.1670 H     301  HK5301      0.0660
     39  H2        23.4410   -2.4350    6.6520 H     301  HK5301      0.0660
     40  H3        22.1940   -1.5110    7.5140 H     301  HK5301      0.0660
     41  H8        23.5050   -5.1120    9.4920 H     301  HK5301      0.0515
     42  H7        22.6820   -6.2420   10.5170 H     301  HK5301      0.0515
     43  H11       22.0760   -8.6120    9.5170 H     301  HK5301      0.1144
     44  H10       23.4680   -8.0720    5.5370 H     301  HK5301      0.0942
     45  H9        23.6840   -5.6470    6.8560 H     301  HK5301      0.0593
@<TRIPOS>BOND
     1    44    27    1
     2    38    22    1
     3    27    28    1
     4    27    26    2
     5    39    22    1
     6    45    28    1
     7    22    40    1
     8    22    21    1
     9    28    24    1
    10    26    25    2
    11    34    14    1
    12    21    20    1
    13    14    20   ar
    14    14    13   ar
    15    24    25    1
    16    24    23    1
    17    20    19   ar
    18    25    43    1
    19    33    10    1
    20    11    12   ar
    21    11    10   ar
    22    13    12    1
    23    13    17   ar
    24    12    15   ar
    25    10     9   ar
    26    19    23    1
    27    19    18   ar
    28    41    23    1
    29    23    42    1
    30    17    18   ar
    31    17    16    1
    32    15     9   ar
    33    15    16    1
    34     9     8    1
    35    30     5    1
    36    18    37    1
    37    35    16    1
    38    16    36    1
    39     5     8   ar
    40     5     4   ar
    41     8     7   ar
    42    29     4    1
    43     4     3   ar
    44     7    32    1
    45     7     6   ar
    46     3     6   ar
    47     3     2    1
    48     6    31    1
    49     2     1    3
