@<TRIPOS>MOLECULE
4fsw_HK6_A_1.pdb
 26 28 0 0 0
SMALL
GASTEIGER

@<TRIPOS>ATOM
      1  O         16.2050   -2.1800    9.0330 O.2   301  HK6301     -0.2698
      2  C11       17.0080   -3.0550    9.3570 C.2   301  HK6301      0.2501
      3  C10       16.5110   -4.2990   10.0340 C.ar  301  HK6301      0.0581
      4  C9        15.1520   -4.5820    9.8700 C.ar  301  HK6301     -0.0478
      5  C8        14.5390   -5.5630   10.6290 C.ar  301  HK6301     -0.0609
      6  C7        15.2700   -6.3170   11.5150 C.ar  301  HK6301     -0.0600
      7  C6        16.6300   -6.0970   11.6630 C.ar  301  HK6301     -0.0398
      8  C5        17.2620   -5.0840   10.9390 C.ar  301  HK6301      0.0436
      9  N1        18.6250   -4.8550   11.2310 N.pl3 301  HK6301     -0.3125
     10  N2        18.3190   -2.9010    9.0930 N.am  301  HK6301     -0.2799
     11  C12       19.4430   -3.7480    9.2130 C.ar  301  HK6301      0.0564
     12  C13       20.4660   -3.5500    8.2930 C.ar  301  HK6301     -0.0203
     13  C1        21.5890   -4.3490    8.3500 C.ar  301  HK6301      0.0428
     14 CL         22.9200   -4.0000    7.2860 Cl    301  HK6301     -0.0835
     15  C4        19.5650   -4.7440   10.1900 C.ar  301  HK6301      0.0529
     16  C3        20.6970   -5.5630   10.1990 C.ar  301  HK6301     -0.0373
     17  C2        21.7080   -5.3660    9.2750 C.ar  301  HK6301     -0.0415
     18  H7        14.5650   -4.0430    9.1300 H     301  HK6301      0.0626
     19  H6        13.4630   -5.7180   10.5450 H     301  HK6301      0.0618
     20  H5        14.7860   -7.0910   12.1070 H     301  HK6301      0.0618
     21  H4        17.1930   -6.7270   12.3500 H     301  HK6301      0.0636
     22  H3        18.9730   -5.1780   12.1280 H     301  HK6301      0.1522
     23  H8        18.5750   -1.9860    8.7380 H     301  HK6301      0.1552
     24  H9        20.4100   -2.7850    7.5220 H     301  HK6301      0.0651
     25  H2        20.8000   -6.3640   10.9290 H     301  HK6301      0.0637
     26  H1        22.5890   -6.0070    9.2720 H     301  HK6301      0.0633
@<TRIPOS>BOND
     1    14    13    1
     2    24    12    1
     3    12    13   ar
     4    12    11   ar
     5    13    17   ar
     6    23    10    1
     7     1     2    2
     8    10    11    1
     9    10     2   am
    10    18     4    1
    11    11    15   ar
    12    26    17    1
    13    17    16   ar
    14     2     3    1
    15     4     3   ar
    16     4     5   ar
    17     3     8   ar
    18    15    16   ar
    19    15     9    1
    20    16    25    1
    21    19     5    1
    22     5     6   ar
    23     8     9    1
    24     8     7   ar
    25     9    22    1
    26     6     7   ar
    27     6    20    1
    28     7    21    1
