@<TRIPOS>MOLECULE
4fsx_SAH_A_1.pdb
 26 28 0 0 0
SMALL
GASTEIGER

@<TRIPOS>ATOM
      1  N        -30.9310   47.2890  -47.3340 N.3   1000  SAH1000    -0.1208
      2  CA       -30.0790   47.5730  -46.1700 C.3   1000  SAH1000     0.1952
      3  CB       -30.4050   46.6300  -45.0100 C.3   1000  SAH1000     0.0422
      4  CG       -31.1150   47.4100  -43.9020 C.3   1000  SAH1000     0.0597
      5  SD       -32.2160   46.3610  -42.8830 S.3   1000  SAH1000    -0.1375
      6  C        -28.6090   47.4120  -46.5620 C.2   1000  SAH1000     0.3819
      7  O        -27.9750   48.4560  -46.8280 O.co2 1000  SAH1000    -0.2441
      8  OXT      -28.1510   46.2430  -46.5860 O.co2 1000  SAH1000    -0.2441
      9  C5'      -32.0880   47.2320  -41.2780 C.3   1000  SAH1000     0.0899
     10  C4'      -32.3400   48.7370  -41.3920 C.3   1000  SAH1000     0.1630
     11  O4'      -33.6670   49.0360  -40.9350 O.3   1000  SAH1000    -0.3153
     12  C3'      -31.4390   49.4780  -40.4180 C.3   1000  SAH1000     0.2168
     13  O3'      -30.3070   50.0080  -41.1220 O.3   1000  SAH1000    -0.2175
     14  C2'      -32.3030   50.6210  -39.9110 C.3   1000  SAH1000     0.2569
     15  O2'      -31.7120   51.8730  -40.2900 O.3   1000  SAH1000    -0.2130
     16  C1'      -33.6220   50.4400  -40.6430 C.3   1000  SAH1000     0.3185
     17  N9       -34.7650   50.8020  -39.7750 N.pl3 1000  SAH1000    -0.1439
     18  C8       -35.3700   49.9970  -38.9070 C.3   1000  SAH1000     0.3377
     19  N7       -36.3450   50.6860  -38.3220 N.2   1000  SAH1000    -0.2095
     20  C5       -36.3440   51.9170  -38.8270 C.2   1000  SAH1000     0.2526
     21  C6       -37.1140   52.9730  -38.5740 C.2   1000  SAH1000     0.4393
     22  N6       -38.0640   52.8030  -37.6590 N.pl3 1000  SAH1000     0.2180
     23  N1       -36.9430   54.1430  -39.2040 N.2   1000  SAH1000     0.0021
     24  C2       -35.9260   54.2510  -40.1530 C.3   1000  SAH1000     0.5254
     25  N3       -35.1330   53.1270  -40.3990 N.2   1000  SAH1000    -0.0055
     26  C4       -35.3630   51.9890  -39.7280 C.2   1000  SAH1000     0.3518
@<TRIPOS>BOND
     1     1     2    1
     2     7     6   ar
     3     8     6   ar
     4     6     2    1
     5     2     3    1
     6     3     4    1
     7     4     5    1
     8     5     9    1
     9    10     9    1
    10    10    11    1
    11    10    12    1
    12    13    12    1
    13    11    16    1
    14    16    14    1
    15    16    17    1
    16    12    14    1
    17    25    24    1
    18    25    26    2
    19    15    14    1
    20    24    23    1
    21    17    26    1
    22    17    18    1
    23    26    20    1
    24    23    21    2
    25    18    19    1
    26    20    21    1
    27    20    19    2
    28    21    22    1
