@<TRIPOS>MOLECULE
4fsy_HK7_A_1.pdb
 38 41 0 0 0
SMALL
GASTEIGER

@<TRIPOS>ATOM
      1  O2        12.4610   -5.3400   13.3540 O.2   301  HK7301     -0.2667
      2  C16       13.5490   -5.8860   13.5890 C.2   301  HK7301      0.2835
      3  N3        14.4770   -5.2640   14.3840 N.am  301  HK7301     -0.0837
      4  C15       13.8680   -7.2560   13.0690 C.ar  301  HK7301      0.0477
      5  C14       13.1350   -8.3400   13.6100 C.ar  301  HK7301     -0.0489
      6  C13       13.5080   -9.6570   13.3090 C.ar  301  HK7301     -0.0610
      7  C12       14.6170   -9.9040   12.4730 C.ar  301  HK7301     -0.0611
      8  C11       15.3310   -8.8360   11.8980 C.ar  301  HK7301     -0.0533
      9  C10       14.9440   -7.5030   12.1720 C.ar  301  HK7301     -0.0056
     10  C8        15.6160   -6.4130   11.4220 C.ar  301  HK7301     -0.0154
     11  C7        14.8450   -5.5360   10.6550 C.ar  301  HK7301     -0.0532
     12  C6        15.4400   -4.4770    9.9990 C.ar  301  HK7301     -0.0473
     13  C5        16.8260   -4.2280   10.1000 C.ar  301  HK7301      0.0581
     14  C1        17.3290   -2.9700    9.4790 C.2   301  HK7301      0.2501
     15  O1        16.5450   -2.0090    9.2240 O.2   301  HK7301     -0.2698
     16  C9        16.9830   -6.2350   11.5090 C.ar  301  HK7301     -0.0321
     17  C4        17.6080   -5.1280   10.8550 C.ar  301  HK7301      0.0442
     18  N2        18.9880   -4.9690   11.0710 N.pl3 301  HK7301     -0.3124
     19  C3        19.9320   -4.6920   10.0500 C.ar  301  HK7301      0.0529
     20  C17       21.1210   -5.4780   10.0050 C.ar  301  HK7301     -0.0387
     21  C18       22.1370   -5.1880    9.0880 C.ar  301  HK7301     -0.0599
     22  C19       21.9860   -4.1200    8.1940 C.ar  301  HK7301     -0.0599
     23  C20       20.8230   -3.3510    8.2140 C.ar  301  HK7301     -0.0387
     24  C2        19.7760   -3.6230    9.1460 C.ar  301  HK7301      0.0550
     25  N1        18.6650   -2.7540    9.1140 N.am  301  HK7301     -0.2799
     26  H9        12.2850   -8.1420   14.2610 H     301  HK7301      0.0625
     27  H8        12.9430  -10.4900   13.7250 H     301  HK7301      0.0618
     28  H7        14.9250  -10.9290   12.2700 H     301  HK7301      0.0618
     29  H6        16.1790   -9.0250   11.2410 H     301  HK7301      0.0624
     30  H4        13.7670   -5.6770   10.5960 H     301  HK7301      0.0624
     31  H3        14.8130   -3.8430    9.3740 H     301  HK7301      0.0626
     32  H5        17.5690   -6.9540   12.0800 H     301  HK7301      0.0642
     33  H2        19.3690   -5.4810   11.8600 H     301  HK7301      0.1522
     34  H12       21.2470   -6.3170   10.6880 H     301  HK7301      0.0637
     35  H13       23.0420   -5.7930    9.0710 H     301  HK7301      0.0618
     36  H14       22.7770   -3.8840    7.4830 H     301  HK7301      0.0618
     37  H15       20.7240   -2.5340    7.5010 H     301  HK7301      0.0637
     38  H1        18.8720   -1.8210    8.7750 H     301  HK7301      0.1552
@<TRIPOS>BOND
     1    36    22    1
     2    37    23    1
     3    22    23   ar
     4    22    21   ar
     5    23    24   ar
     6    38    25    1
     7    35    21    1
     8    21    20   ar
     9    25    24    1
    10    25    14   am
    11    24    19   ar
    12    15    14    2
    13    31    12    1
    14    14    13    1
    15    12    13   ar
    16    12    11   ar
    17    20    19   ar
    18    20    34    1
    19    19    18    1
    20    13    17   ar
    21    30    11    1
    22    11    10   ar
    23    17    18    1
    24    17    16   ar
    25    18    33    1
    26    29     8    1
    27    10    16   ar
    28    10     9    1
    29    16    32    1
    30     8     9   ar
    31     8     7   ar
    32     9     4   ar
    33    28     7    1
    34     7     6   ar
    35     4     2    1
    36     4     5   ar
    37     6     5   ar
    38     6    27    1
    39     1     2    2
    40     2     3   am
    41     5    26    1
