@<TRIPOS>MOLECULE
4fsz_HK8_A_1.pdb
 32 34 0 0 0
SMALL
GASTEIGER

@<TRIPOS>ATOM
      1  O3        16.3960   -2.1250    9.2970 O.2   301  HK8301     -0.2698
      2  C13       17.2510   -2.9840    9.5180 C.2   301  HK8301      0.2501
      3  C12       16.8400   -4.2980   10.1050 C.ar  301  HK8301      0.0582
      4  C11       15.4960   -4.6500    9.9440 C.ar  301  HK8301     -0.0465
      5  C10       14.9660   -5.7520   10.5810 C.ar  301  HK8301     -0.0426
      6  C9        15.7810   -6.5520   11.3500 C.ar  301  HK8301      0.0428
      7 CL         15.1040   -7.9120   12.1920 Cl    301  HK8301     -0.0835
      8  C8        17.1280   -6.2720   11.4960 C.ar  301  HK8301     -0.0215
      9  C7        17.6640   -5.1360   10.8900 C.ar  301  HK8301      0.0450
     10  N1        19.0120   -4.8310   11.1760 N.pl3 301  HK8301     -0.3124
     11  N2        18.5430   -2.7510    9.2050 N.am  301  HK8301     -0.2799
     12  C14       19.7100   -3.5490    9.2100 C.ar  301  HK8301      0.0553
     13  C6        19.9180   -4.5890   10.1240 C.ar  301  HK8301      0.0529
     14  C5        21.1000   -5.3310   10.0610 C.ar  301  HK8301     -0.0385
     15  C4        22.0680   -5.0170    9.1240 C.ar  301  HK8301     -0.0562
     16  C15       20.6960   -3.2590    8.2690 C.ar  301  HK8301     -0.0350
     17  C3        21.8860   -3.9780    8.2230 C.ar  301  HK8301     -0.0349
     18  C2        22.9500   -3.6310    7.2090 C.3   301  HK8301      0.0699
     19  C1        22.8060   -4.4160    5.9360 C.2   301  HK8301      0.3091
     20  O2        22.1140   -4.0430    5.0130 O.2   301  HK8301     -0.2507
     21  O1        23.4740   -5.5430    5.9370 O.3   301  HK8301     -0.4804
     22  H9        14.8400   -4.0780    9.2920 H     301  HK8301      0.0626
     23  H8        13.8970   -5.9680   10.5210 H     301  HK8301      0.0632
     24  H7        17.7420   -6.9530   12.0850 H     301  HK8301      0.0651
     25  H6        19.4260   -5.3070   11.9710 H     301  HK8301      0.1522
     26  H10       18.7310   -1.7930    8.9290 H     301  HK8301      0.1552
     27  H5        21.2710   -6.1670   10.7380 H     301  HK8301      0.0637
     28  H4        22.9840   -5.6060    9.1060 H     301  HK8301      0.0621
     29  H11       20.5490   -2.4650    7.5400 H     301  HK8301      0.0639
     30  H2        22.9580   -2.5650    6.9850 H     301  HK8301      0.0426
     31  H3        23.9180   -3.8390    7.6640 H     301  HK8301      0.0426
     32  H1        23.3640   -6.0410    5.0850 H     301  HK8301      0.2951
@<TRIPOS>BOND
     1    20    19    2
     2    32    21    1
     3    19    21    1
     4    19    18    1
     5    30    18    1
     6    18    31    1
     7    18    17    1
     8    29    16    1
     9    17    16   ar
    10    17    15   ar
    11    16    12   ar
    12    26    11    1
    13    28    15    1
    14    15    14   ar
    15    11    12    1
    16    11     2   am
    17    12    13   ar
    18    22     4    1
    19     1     2    2
    20     2     3    1
    21     4     3   ar
    22     4     5   ar
    23    14    13   ar
    24    14    27    1
    25     3     9   ar
    26    13    10    1
    27    23     5    1
    28     5     6   ar
    29     9    10    1
    30     9     8   ar
    31    10    25    1
    32     6     8   ar
    33     6     7    1
    34     8    24    1
