@<TRIPOS>MOLECULE
4ft0_HK9_A_1.pdb
 42 45 0 0 0
SMALL
GASTEIGER

@<TRIPOS>ATOM
      1  O4        16.5680   -1.8520    9.0780 O.2   301  HK9301     -0.2698
      2  C14       17.2080   -2.8960    9.3490 C.2   301  HK9301      0.2501
      3  N2        18.5380   -2.8700    8.9280 N.am  301  HK9301     -0.2799
      4  C13       19.6230   -3.7110    9.1840 C.ar  301  HK9301      0.0550
      5  C18       20.7650   -3.5050    8.3400 C.ar  301  HK9301     -0.0387
      6  C19       21.8820   -4.3230    8.4040 C.ar  301  HK9301     -0.0599
      7  C20       21.9110   -5.3800    9.3110 C.ar  301  HK9301     -0.0599
      8  C21       20.8270   -5.5980   10.1560 C.ar  301  HK9301     -0.0387
      9  C12       19.6540   -4.7650   10.1160 C.ar  301  HK9301      0.0529
     10  N1        18.6050   -5.1890   10.9320 N.pl3 301  HK9301     -0.3124
     11  C15       16.6030   -4.0270   10.0300 C.ar  301  HK9301      0.0581
     12  C11       17.2370   -4.9310   10.8830 C.ar  301  HK9301      0.0442
     13  C10       16.4530   -5.8450   11.6300 C.ar  301  HK9301     -0.0321
     14  C16       15.2000   -4.1380    9.8570 C.ar  301  HK9301     -0.0473
     15  C17       14.4550   -5.0510   10.5430 C.ar  301  HK9301     -0.0532
     16  C9        15.0690   -5.9170   11.4840 C.ar  301  HK9301     -0.0160
     17  C4        14.2520   -6.8290   12.3080 C.ar  301  HK9301     -0.0143
     18  C3        12.9780   -6.4170   12.7410 C.ar  301  HK9301     -0.0114
     19  C5        14.7180   -8.1290   12.6730 C.ar  301  HK9301     -0.0530
     20  C6        13.9190   -8.9750   13.4450 C.ar  301  HK9301     -0.0435
     21  C7        12.6360   -8.5650   13.8870 C.ar  301  HK9301      0.1047
     22  C8        11.8740   -9.5030   14.8080 C.2   301  HK9301      0.3901
     23  O3        12.5500  -10.0790   15.6850 O.co2 301  HK9301     -0.2405
     24  O2        10.6540   -9.6070   14.6230 O.co2 301  HK9301     -0.2405
     25  C2        12.1610   -7.2860   13.5130 C.ar  301  HK9301      0.1348
     26  O1        10.8700   -6.8920   13.8960 O.3   301  HK9301     -0.4943
     27  C1        10.2970   -5.7400   13.2960 C.3   301  HK9301      0.0788
     28  H9        18.7600   -2.0650    8.3510 H     301  HK9301      0.1552
     29  H12       20.7850   -2.6890    7.6200 H     301  HK9301      0.0637
     30  H13       22.7310   -4.1350    7.7490 H     301  HK9301      0.0618
     31  H14       22.7840   -6.0290    9.3630 H     301  HK9301      0.0618
     32  H15       20.9000   -6.4300   10.8550 H     301  HK9301      0.0637
     33  H8        18.9000   -5.7560   11.7200 H     301  HK9301      0.1522
     34  H7        16.9220   -6.5050   12.3580 H     301  HK9301      0.0642
     35  H10       14.6830   -3.5070    9.1380 H     301  HK9301      0.0626
     36  H11       13.3880   -5.1220   10.3380 H     301  HK9301      0.0624
     37  H4        12.6450   -5.4070   12.5150 H     301  HK9301      0.0660
     38  H5        15.6920   -8.4830   12.3390 H     301  HK9301      0.0624
     39  H6        14.2720   -9.9730   13.7030 H     301  HK9301      0.0627
     40  H3        10.3140   -5.7840   12.2080 H     301  HK9301      0.0660
     41  H2        10.7400   -4.7970   13.6110 H     301  HK9301      0.0660
     42  H1         9.2620   -5.7680   13.6320 H     301  HK9301      0.0660
@<TRIPOS>BOND
     1    29     5    1
     2    30     6    1
     3     5     6   ar
     4     5     4   ar
     5    28     3    1
     6     6     7   ar
     7     3     4    1
     8     3     2   am
     9     1     2    2
    10    35    14    1
    11     4     9   ar
    12     7    31    1
    13     7     8   ar
    14     2    11    1
    15    14    11   ar
    16    14    15   ar
    17    11    12   ar
    18     9     8   ar
    19     9    10    1
    20     8    32    1
    21    36    15    1
    22    15    16   ar
    23    12    10    1
    24    12    13   ar
    25    10    33    1
    26    16    13   ar
    27    16    17    1
    28    13    34    1
    29    40    27    1
    30    17    19   ar
    31    17    18   ar
    32    38    19    1
    33    37    18    1
    34    19    20   ar
    35    18    25   ar
    36    27    41    1
    37    27    42    1
    38    27    26    1
    39    20    39    1
    40    20    21   ar
    41    25    21   ar
    42    25    26    1
    43    21    22    1
    44    24    22   ar
    45    22    23   ar
