@<TRIPOS>MOLECULE
4ft2_SAH_A_1.pdb
 26 28 0 0 0
SMALL
GASTEIGER

@<TRIPOS>ATOM
      1  N        -30.2070   47.4170  -47.7110 N.3   1000  SAH1000    -0.1208
      2  CA       -29.3650   47.6740  -46.5330 C.3   1000  SAH1000     0.1952
      3  CB       -29.8910   46.9230  -45.3080 C.3   1000  SAH1000     0.0422
      4  CG       -30.4670   47.9230  -44.3040 C.3   1000  SAH1000     0.0597
      5  SD       -31.9710   47.3060  -43.4630 S.3   1000  SAH1000    -0.1375
      6  C        -27.9290   47.2340  -46.8260 C.2   1000  SAH1000     0.3819
      7  O        -27.0240   48.0670  -46.6070 O.co2 1000  SAH1000    -0.2441
      8  OXT      -27.7570   46.0600  -47.2680 O.co2 1000  SAH1000    -0.2441
      9  C5'      -31.5240   47.6470  -41.7220 C.3   1000  SAH1000     0.0899
     10  C4'      -31.5270   49.1400  -41.3850 C.3   1000  SAH1000     0.1630
     11  O4'      -32.8780   49.5880  -41.2080 O.3   1000  SAH1000    -0.3153
     12  C3'      -30.8860   49.3540  -40.0230 C.3   1000  SAH1000     0.2168
     13  O3'      -29.5310   49.7940  -40.1950 O.3   1000  SAH1000    -0.2175
     14  C2'      -31.7070   50.4710  -39.3990 C.3   1000  SAH1000     0.2569
     15  O2'      -30.8680   51.6130  -39.1720 O.3   1000  SAH1000    -0.2130
     16  C1'      -32.7430   50.8050  -40.4600 C.3   1000  SAH1000     0.3185
     17  N9       -34.0430   51.1510  -39.8420 N.pl3 1000  SAH1000    -0.1439
     18  C8       -34.7710   50.3570  -39.0640 C.3   1000  SAH1000     0.3377
     19  N7       -35.8640   51.0260  -38.7080 N.2   1000  SAH1000    -0.2095
     20  C5       -35.8120   52.2330  -39.2660 C.2   1000  SAH1000     0.2526
     21  C6       -36.6560   53.2630  -39.2160 C.2   1000  SAH1000     0.4393
     22  N6       -37.7550   53.0880  -38.4890 N.pl3 1000  SAH1000     0.2180
     23  N1       -36.4110   54.4100  -39.8620 N.2   1000  SAH1000     0.0021
     24  C2       -35.2370   54.5240  -40.6070 C.3   1000  SAH1000     0.5254
     25  N3       -34.3700   53.4280  -40.6420 N.2   1000  SAH1000    -0.0055
     26  C4       -34.6820   52.3110  -39.9690 C.2   1000  SAH1000     0.3518
@<TRIPOS>BOND
     1     1     2    1
     2     8     6   ar
     3     6     7   ar
     4     6     2    1
     5     2     3    1
     6     3     4    1
     7     4     5    1
     8     5     9    1
     9     9    10    1
    10    10    11    1
    11    10    12    1
    12    11    16    1
    13    25    24    1
    14    25    26    2
    15    24    23    1
    16    16    17    1
    17    16    14    1
    18    13    12    1
    19    12    14    1
    20    26    17    1
    21    26    20    1
    22    23    21    2
    23    17    18    1
    24    14    15    1
    25    20    21    1
    26    20    19    2
    27    21    22    1
    28    18    19    1
