@<TRIPOS>MOLECULE
4ft3_H1K_A_1.pdb
 34 35 0 0 0
SMALL
GASTEIGER

@<TRIPOS>ATOM
      1  O1        16.8000   -1.6090    8.8790 O.2   301  H1K301     -0.2521
      2  C4        16.2130   -2.5910    9.1880 C.2   301  H1K301      0.3101
      3  N2        14.7790   -2.6050    9.2790 N.am  301  H1K301     -0.2420
      4  C5        14.0040   -3.1210   10.3710 C.2   301  H1K301      0.2078
      5  C8        14.1910   -4.3840   11.0570 C.2   301  H1K301      0.1302
      6  N4        13.3080   -4.7860   12.0170 N.2   301  H1K301     -0.4127
      7  C7        12.2480   -3.9940   12.3310 C.2   301  H1K301      0.1079
      8  C6        12.1020   -2.7840   11.6730 C.2   301  H1K301      0.1101
      9  N3        12.9590   -2.3550   10.7430 N.2   301  H1K301     -0.3912
     10  N1        16.8280   -3.8110    9.3490 N.am  301  H1K301     -0.2660
     11  C3        18.2100   -4.0760    9.3840 C.ar  301  H1K301      0.0784
     12  C2        19.1820   -3.4120    8.6510 C.ar  301  H1K301     -0.0150
     13  C9        18.5360   -5.1890   10.1850 C.ar  301  H1K301      0.1448
     14  O2        17.4540   -5.7260   10.9440 O.3   301  H1K301     -0.4931
     15  C10       17.5630   -6.9870   11.6370 C.3   301  H1K301      0.0789
     16  C11       19.8270   -5.6820   10.2290 C.ar  301  H1K301      0.0251
     17  C12       20.8320   -5.0280    9.4440 C.ar  301  H1K301      0.1419
     18  C1        20.4790   -3.8960    8.6880 C.ar  301  H1K301      0.0845
     19 CL         21.6480   -3.0960    7.7690 Cl    301  H1K301     -0.0797
     20  O3        22.1170   -5.5570    9.3720 O.3   301  H1K301     -0.4935
     21  C13       22.5020   -6.6310   10.2450 C.3   301  H1K301      0.0789
     22  H3        14.2620   -2.1150    8.5570 H     301  H1K301      0.1589
     23  H6        15.0100   -5.0840   10.9040 H     301  H1K301      0.1017
     24  H5        11.5590   -4.3430   13.1000 H     301  H1K301      0.0996
     25  H4        11.2270   -2.1510   11.7970 H     301  H1K301      0.0997
     26  H2        16.2600   -4.6480    9.3930 H     301  H1K301      0.1565
     27  H1        18.9580   -2.5400    8.0400 H     301  H1K301      0.0653
     28  H9        17.8910   -7.7610   10.9450 H     301  H1K301      0.0660
     29  H7        16.5650   -7.2490   11.9920 H     301  H1K301      0.0660
     30  H8        18.2300   -6.9280   12.4970 H     301  H1K301      0.0660
     31  H10       20.0750   -6.5410   10.8510 H     301  H1K301      0.0692
     32  H12       22.0000   -7.5710   10.0200 H     301  H1K301      0.0660
     33  H11       23.5700   -6.7690   10.0750 H     301  H1K301      0.0660
     34  H13       22.3520   -6.3610   11.2900 H     301  H1K301      0.0660
@<TRIPOS>BOND
     1    19    18    1
     2    27    12    1
     3    22     3    1
     4    12    18   ar
     5    12    11   ar
     6    18    17   ar
     7     1     2    2
     8     2     3   am
     9     2    10   am
    10     3     4    1
    11    10    11    1
    12    10    26    1
    13    20    17    1
    14    20    21    1
    15    11    13   ar
    16    17    16   ar
    17    32    21    1
    18    33    21    1
    19    13    16   ar
    20    13    14    1
    21    16    31    1
    22    21    34    1
    23     4     9    2
    24     4     5    1
    25     9     8    2
    26    23     5    1
    27    14    15    1
    28    28    15    1
    29     5     6    2
    30    15    29    1
    31    15    30    1
    32     8    25    1
    33     8     7    1
    34     6     7    2
    35     7    24    1
