@<TRIPOS>MOLECULE
4ft4_SAH_A_1.pdb
 26 28 0 0 0
SMALL
GASTEIGER

@<TRIPOS>ATOM
      1  N          3.7100  -12.0360  -19.3640 N.3   1000  SAH1000    -0.1208
      2  CA         4.4880  -11.7120  -20.5440 C.3   1000  SAH1000     0.1952
      3  CB         4.1880  -10.2800  -20.9730 C.3   1000  SAH1000     0.0422
      4  CG         2.7900  -10.1710  -21.5690 C.3   1000  SAH1000     0.0597
      5  SD         2.3020   -8.4780  -21.6180 S.3   1000  SAH1000    -0.1375
      6  C          5.9490  -11.8440  -20.2310 C.2   1000  SAH1000     0.3819
      7  O          6.7310  -12.1590  -21.1550 O.co2 1000  SAH1000    -0.2441
      8  OXT        6.3300  -11.6350  -19.0590 O.co2 1000  SAH1000    -0.2441
      9  C5'        0.8160   -8.6130  -22.5540 C.3   1000  SAH1000     0.0899
     10  C4'        1.0460   -9.5350  -23.7450 C.3   1000  SAH1000     0.1630
     11  O4'       -0.1580  -10.2450  -24.0470 O.3   1000  SAH1000    -0.3153
     12  C3'        1.4450   -8.7480  -24.9830 C.3   1000  SAH1000     0.2168
     13  O3'        2.7350   -9.1670  -25.4360 O.3   1000  SAH1000    -0.2175
     14  C2'        0.4000   -9.0530  -26.0360 C.3   1000  SAH1000     0.2569
     15  O2'        1.0130   -9.6700  -27.1710 O.3   1000  SAH1000    -0.2130
     16  C1'       -0.5870  -10.0130  -25.3910 C.3   1000  SAH1000     0.3185
     17  N9        -1.9430   -9.4100  -25.3880 N.pl3 1000  SAH1000    -0.1439
     18  C8        -2.2200   -8.0960  -25.2900 C.3   1000  SAH1000     0.3377
     19  N7        -3.5590   -7.8730  -25.3180 N.2   1000  SAH1000    -0.2095
     20  C5        -4.1640   -9.0690  -25.4360 C.2   1000  SAH1000     0.2526
     21  C6        -5.5620   -9.5540  -25.5240 C.2   1000  SAH1000     0.4393
     22  N6        -6.6070   -8.6920  -25.4890 N.pl3 1000  SAH1000     0.2180
     23  N1        -5.7590  -10.8860  -25.6400 N.2   1000  SAH1000     0.0021
     24  C2        -4.7300  -11.7530  -25.6760 C.3   1000  SAH1000     0.5254
     25  N3        -3.4390  -11.3830  -25.6010 N.2   1000  SAH1000    -0.0055
     26  C4        -3.0960  -10.0780  -25.4820 C.2   1000  SAH1000     0.3518
@<TRIPOS>BOND
     1    15    14    1
     2    14    16    1
     3    14    12    1
     4    24    23    1
     5    24    25    1
     6    23    21    2
     7    25    26    2
     8    21    22    1
     9    21    20    1
    10    26    20    1
    11    26    17    1
    12    20    19    2
    13    13    12    1
    14    16    17    1
    15    16    11    1
    16    17    18    1
    17    19    18    1
    18    12    10    1
    19    11    10    1
    20    10     9    1
    21     9     5    1
    22     5     4    1
    23     4     3    1
    24     7     6   ar
    25     3     2    1
    26     2     6    1
    27     2     1    1
    28     6     8   ar
