@<TRIPOS>MOLECULE
4ft4_III_Q_1.pdb
 40 39 0 0 0
SMALL
GASTEIGER

@<TRIPOS>ATOM
      1  N        -42.4300  -19.0280  -82.7300 N.3     6  THR6       -0.1203
      2  CA       -41.2540  -19.2240  -81.8940 C.3     6  THR6        0.1994
      3  C        -40.0350  -18.7770  -82.6870 C.2     6  THR6        0.2618
      4  O        -39.5110  -19.5190  -83.5190 O.2     6  THR6       -0.2717
      5  CB       -41.1110  -20.6980  -81.4600 C.3     6  THR6        0.1784
      6  OG1      -40.2710  -21.4000  -82.3850 O.3     6  THR6       -0.2211
      7  CG2      -42.4810  -21.3680  -81.4010 C.3     6  THR6        0.0376
      8  N        -39.5980  -17.5500  -82.4240 N.am    7  ALA7       -0.1965
      9  CA       -38.5910  -16.8670  -83.2320 C.3     7  ALA7        0.1728
     10  C        -37.2970  -17.6250  -83.5210 C.2     7  ALA7        0.2616
     11  O        -36.8600  -17.7010  -84.6710 O.2     7  ALA7       -0.2715
     12  CB       -38.2680  -15.5010  -82.6230 C.3     7  ALA7        0.0334
     13  N        -36.6890  -18.1680  -82.4730 N.am    8  ARG8       -0.1963
     14  CA       -35.2970  -18.6030  -82.5240 C.3     8  ARG8        0.1729
     15  C        -34.3640  -17.4070  -82.3290 C.2     8  ARG8        0.2616
     16  O        -34.0200  -16.7080  -83.2820 O.2     8  ARG8       -0.2715
     17  CB       -34.9710  -19.3540  -83.8320 C.3     8  ARG8        0.0348
     18  CG       -33.6930  -18.8890  -84.5450 C.3     8  ARG8        0.0492
     19  CD       -33.3290  -19.7650  -85.7350 C.3     8  ARG8        0.2205
     20  NE       -32.1050  -20.5240  -85.4880 N.pl3   8  ARG8       -0.0865
     21  CZ       -30.8980  -20.1650  -85.9170 C.cat   8  ARG8        0.5346
     22  NH1      -29.8440  -20.9200  -85.6380 N.pl3   8  ARG8        0.1354
     23  NH2      -30.7440  -19.0560  -86.6290 N.pl3   8  ARG8        0.1354
     24  N        -34.0010  -17.1350  -81.0800 N.am    9  LYS9       -0.1963
     25  CA       -32.7800  -16.3520  -80.8260 C.3     9  LYS9        0.1728
     26  CB       -32.9770  -15.5620  -79.5580 C.3     9  LYS9        0.0311
     27  CG       -33.1860  -14.1240  -79.9640 C.3     9  LYS9        0.0037
     28  CD       -33.3310  -13.2140  -78.7670 C.3     9  LYS9        0.0174
     29  CE       -31.9870  -12.8820  -78.1550 C.3     9  LYS9        0.0722
     30  NZ       -32.3080  -12.5540  -76.7770 N.3     9  LYS9       -0.2703
     31  CH1      -31.3940  -13.2590  -75.8880 C.3     9  LYS9        0.0897
     32  CH2      -32.2070  -11.1180  -76.6000 C.3     9  LYS9        0.0897
     33  C        -31.5900  -17.2930  -80.7170 C.2     9  LYS9        0.2616
     34  O        -31.7170  -18.3850  -80.1200 O.2     9  LYS9       -0.2715
     35  N        -30.4640  -16.8750  -81.2810 N.am   10  SER10      -0.1950
     36  CA       -29.2270  -17.6370  -81.2220 C.3    10  SER10       0.1924
     37  C        -28.0590  -16.7670  -81.6640 C.2    10  SER10       0.2314
     38  O        -27.2130  -16.3920  -80.8530 O.2    10  SER10      -0.2863
     39  CB       -29.3140  -18.8880  -82.0980 C.3    10  SER10       0.2116
     40  OG       -30.0480  -19.9170  -81.4550 O.3    10  SER10      -0.2180
@<TRIPOS>BOND
     1    23    21    1
     2    21    22    1
     3    21    20    2
     4    19    20    1
     5    19    18    1
     6    11    10    2
     7    18    17    1
     8    17    14    1
     9    10     9    1
    10    10    13   am
    11     4     3    2
    12    16    15    2
    13     9    12    1
    14     9     8    1
    15     1     2    1
    16     3     8   am
    17     3     2    1
    18    14    13    1
    19    14    15    1
    20     6     5    1
    21    15    24   am
    22    39    40    1
    23    39    36    1
    24     2     5    1
    25    37    36    1
    26    37    38    2
    27     5     7    1
    28    35    36    1
    29    35    33   am
    30    24    25    1
    31    25    33    1
    32    25    26    1
    33    33    34    2
    34    27    26    1
    35    27    28    1
    36    28    29    1
    37    29    30    1
    38    30    32    1
    39    30    31    1
