@<TRIPOS>MOLECULE
4ft5_H2K_A_1.pdb
 40 42 0 0 0
SMALL
GASTEIGER

@<TRIPOS>ATOM
      1  N6        10.3060   -5.6030   13.5550 N.1   300  H2K300     -0.1881
      2  C15       11.0530   -5.0080   12.9350 C.1   300  H2K300      0.1349
      3  C13       12.0270   -4.3530   12.1490 C.2   300  H2K300      0.2195
      4  N4        13.1620   -5.0350   11.9260 N.2   300  H2K300     -0.3940
      5  C12       14.0730   -4.4770   11.1210 C.2   300  H2K300      0.1319
      6  C14       11.8040   -3.0680   11.5520 C.2   300  H2K300      0.1281
      7  N5        12.7240   -2.5200   10.7430 N.2   300  H2K300     -0.3898
      8  C11       13.8460   -3.2270   10.5070 C.2   300  H2K300      0.2079
      9  N3        14.6970   -2.5450    9.6110 N.am  300  H2K300     -0.2420
     10  C10       15.9570   -2.7590    9.0970 C.2   300  H2K300      0.3101
     11  O2        16.4880   -1.9620    8.3280 O.2   300  H2K300     -0.2521
     12  N2        16.5610   -3.9270    9.5030 N.am  300  H2K300     -0.2660
     13  C9        17.9590   -4.2060    9.5620 C.ar  300  H2K300      0.0782
     14  C16       18.9080   -3.5630    8.7720 C.ar  300  H2K300     -0.0185
     15  C1        20.2210   -4.0020    8.7910 C.ar  300  H2K300      0.0430
     16 CL         21.4060   -3.1620    7.8430 Cl    300  H2K300     -0.0835
     17  C4        18.3700   -5.2940   10.3730 C.ar  300  H2K300      0.1422
     18  C3        19.6850   -5.7320   10.3410 C.ar  300  H2K300     -0.0167
     19  C2        20.6120   -5.0780    9.5570 C.ar  300  H2K300     -0.0398
     20  O1        17.4100   -5.8570   11.1890 O.3   300  H2K300     -0.4857
     21  C5        17.8490   -6.4500   12.4370 C.3   300  H2K300      0.1138
     22  C8        16.7780   -6.1820   13.5310 C.3   300  H2K300      0.0330
     23  N1        15.9640   -7.4060   13.5420 N.3   300  H2K300     -0.3124
     24  C7        16.8640   -8.5240   13.2370 C.3   300  H2K300     -0.0006
     25  C6        17.8810   -7.9550   12.2380 C.3   300  H2K300     -0.0020
     26  H13       14.9650   -5.0940   11.0830 H     300  H2K300      0.1017
     27  H14       10.8840   -2.4990   11.6700 H     300  H2K300      0.1011
     28  H12       14.2450   -1.6980    9.2850 H     300  H2K300      0.1589
     29  H11       16.0200   -4.7790    9.5870 H     300  H2K300      0.1565
     30  H15       18.6860   -2.7430    8.0910 H     300  H2K300      0.0652
     31  H2        20.0250   -6.6050   10.8940 H     300  H2K300      0.0655
     32  H1        21.6530   -5.4060    9.5330 H     300  H2K300      0.0633
     33  H3        18.7960   -6.0460   12.7890 H     300  H2K300      0.0746
     34  H9        16.2290   -5.2590   13.3490 H     300  H2K300      0.0460
     35  H10       17.2220   -6.0580   14.5170 H     300  H2K300      0.0460
     36  H8        15.1660   -7.3580   12.9160 H     300  H2K300      0.1221
     37  H6        16.3700   -9.3980   12.8160 H     300  H2K300      0.0425
     38  H7        17.3280   -8.8650   14.1620 H     300  H2K300      0.0425
     39  H4        17.6270   -8.2170   11.2120 H     300  H2K300      0.0314
     40  H5        18.8650   -8.3920   12.4040 H     300  H2K300      0.0314
@<TRIPOS>BOND
     1    16    15    1
     2    30    14    1
     3    11    10    2
     4    14    15   ar
     5    14    13   ar
     6    15    19   ar
     7    10    12   am
     8    10     9   am
     9    28     9    1
    10    12    13    1
    11    12    29    1
    12    32    19    1
    13    19    18   ar
    14    13    17   ar
    15     9     8    1
    16    18    17   ar
    17    18    31    1
    18    17    20    1
    19     8     7    2
    20     8     5    1
    21     7     6    2
    22    26     5    1
    23     5     4    2
    24    20    21    1
    25    39    25    1
    26     6    27    1
    27     6     3    1
    28     4     3    2
    29     3     2    1
    30    25    40    1
    31    25    21    1
    32    25    24    1
    33    21    33    1
    34    21    22    1
    35    37    24    1
    36    36    23    1
    37     2     1    3
    38    24    23    1
    39    24    38    1
    40    34    22    1
    41    22    23    1
    42    22    35    1
