@<TRIPOS>MOLECULE
4ft7_H3K_A_1.pdb
 43 45 0 0 0
SMALL
GASTEIGER

@<TRIPOS>ATOM
      1  N6        10.9830   -5.5530   13.7150 N.1   301  H3K301     -0.1881
      2  C17       11.7600   -5.0370   13.0610 C.1   301  H3K301      0.1349
      3  C15       12.7160   -4.4060   12.2290 C.2   301  H3K301      0.2195
      4  N4        12.4220   -3.1820   11.7550 N.2   301  H3K301     -0.3940
      5  C14       13.2830   -2.6470   10.8840 C.2   301  H3K301      0.1319
      6  C16       13.9150   -5.0830   11.8480 C.2   301  H3K301      0.1281
      7  N5        14.7780   -4.5150   10.9980 N.2   301  H3K301     -0.3898
      8  C13       14.4670   -3.3060   10.5000 C.2   301  H3K301      0.2079
      9  N3        15.3440   -2.6910    9.5940 N.am  301  H3K301     -0.2420
     10  C12       16.6180   -2.9900    9.1710 C.2   301  H3K301      0.3100
     11  O2        17.1730   -2.3370    8.2910 O.2   301  H3K301     -0.2521
     12  N2        17.2110   -4.0530    9.8240 N.am  301  H3K301     -0.2675
     13  C11       18.5710   -4.5030    9.6930 C.ar  301  H3K301      0.0569
     14  C10       19.4950   -3.8000    8.9120 C.ar  301  H3K301     -0.0246
     15  C9        20.7780   -4.2930    8.7690 C.ar  301  H3K301      0.0197
     16 BR         22.0130   -3.3390    7.6840 Br    301  H3K301     -0.0502
     17  C8        21.1800   -5.4580    9.3740 C.ar  301  H3K301     -0.0459
     18  C7        20.2790   -6.1560   10.1540 C.ar  301  H3K301     -0.0378
     19  C6        18.9800   -5.6900   10.3400 C.ar  301  H3K301      0.0514
     20  N1        18.1480   -6.3740   11.2600 N.pl3 301  H3K301     -0.3260
     21  C4        17.5890   -7.6540   10.8130 C.3   301  H3K301      0.0124
     22  C3        16.4810   -8.1970   11.7130 C.3   301  H3K301     -0.0348
     23  C2        16.8390   -8.0410   13.1880 C.3   301  H3K301     -0.0240
     24  C5        18.0370   -5.8760   12.6300 C.3   301  H3K301      0.0382
     25  C1        17.0570   -6.5880   13.5390 C.3   301  H3K301      0.0709
     26  O1        17.4960   -6.4480   14.8910 O.3   301  H3K301     -0.3902
     27  H16       12.9650   -1.6870   10.4810 H     301  H3K301      0.1017
     28  H17       14.1650   -6.0740   12.2180 H     301  H3K301      0.1011
     29  H15       14.9210   -1.8640    9.1820 H     301  H3K301      0.1589
     30  H14       16.6590   -4.6100   10.4680 H     301  H3K301      0.1564
     31  H13       19.2790   -2.8670    8.3980 H     301  H3K301      0.0648
     32  H12       22.1950   -5.8290    9.2400 H     301  H3K301      0.0629
     33  H11       20.5930   -7.0840   10.6300 H     301  H3K301      0.0637
     34  H7        17.2210   -7.5610    9.7920 H     301  H3K301      0.0464
     35  H8        18.3990   -8.3790   10.7480 H     301  H3K301      0.0464
     36  H6        16.2870   -9.2430   11.4800 H     301  H3K301      0.0281
     37  H5        15.5450   -7.6850   11.5050 H     301  H3K301      0.0281
     38  H4        17.7320   -8.6230   13.4130 H     301  H3K301      0.0291
     39  H3        16.0590   -8.4980   13.7940 H     301  H3K301      0.0291
     40  H10       17.7990   -4.8170   12.5690 H     301  H3K301      0.0489
     41  H9        19.0210   -5.9220   13.0920 H     301  H3K301      0.0489
     42  H1        16.1140   -6.0500   13.4490 H     301  H3K301      0.0609
     43  H2        16.7420   -6.7310   15.4710 H     301  H3K301      0.2098
@<TRIPOS>BOND
     1    16    15    1
     2    11    10    2
     3    31    14    1
     4    15    14   ar
     5    15    17   ar
     6    14    13   ar
     7    10     9   am
     8    10    12   am
     9    29     9    1
    10    32    17    1
    11    17    18   ar
    12     9     8    1
    13    13    12    1
    14    13    19   ar
    15    34    21    1
    16    12    30    1
    17    18    19   ar
    18    18    33    1
    19    19    20    1
    20    27     5    1
    21     8     5    1
    22     8     7    2
    23    35    21    1
    24    21    20    1
    25    21    22    1
    26     5     4    2
    27     7     6    2
    28    20    24    1
    29    36    22    1
    30    37    22    1
    31    22    23    1
    32     4     3    2
    33     6    28    1
    34     6     3    1
    35     3     2    1
    36    40    24    1
    37    24    41    1
    38    24    25    1
    39     2     1    3
    40    23    38    1
    41    23    25    1
    42    23    39    1
    43    42    25    1
    44    25    26    1
    45    26    43    1
