@<TRIPOS>MOLECULE
4ft9_H4K_A_1.pdb
 32 34 0 0 0
SMALL
GASTEIGER

@<TRIPOS>ATOM
      1  N4        10.9670   -5.6980   13.6890 N.1   300  H4K300     -0.1881
      2  C6        11.6830   -5.1220   13.0150 C.1   300  H4K300      0.1349
      3  C4        12.5490   -4.3970   12.1450 C.2   300  H4K300      0.2195
      4  N2        12.1210   -3.2160   11.6600 N.2   300  H4K300     -0.3940
      5  C3        12.9080   -2.5930   10.7760 C.2   300  H4K300      0.1319
      6  C5        13.8060   -4.9420   11.7620 C.2   300  H4K300      0.1281
      7  N3        14.6040   -4.2860   10.9090 N.2   300  H4K300     -0.3898
      8  C2        14.1650   -3.1120   10.4190 C.2   300  H4K300      0.2079
      9  N1        14.9990   -2.4150    9.5300 N.am  300  H4K300     -0.2420
     10  C1        16.2870   -2.6080    9.1080 C.2   300  H4K300      0.3116
     11  O         16.8090   -1.8860    8.2690 O.2   300  H4K300     -0.2520
     12  N5        16.9400   -3.6490    9.7310 N.am  300  H4K300     -0.2470
     13  C7        18.2810   -4.0450    9.5890 C.2   300  H4K300      0.1624
     14  N6        18.6270   -5.0720   10.3790 N.2   300  H4K300     -0.3996
     15  C15       19.8540   -5.5450   10.4070 C.2   300  H4K300      0.0872
     16  C14       20.8850   -4.9990    9.6000 C.ar  300  H4K300      0.0089
     17  C9        20.5740   -3.8940    8.7660 C.ar  300  H4K300     -0.0256
     18  C8        19.2430   -3.4010    8.7450 C.3   300  H4K300      0.0668
     19  C13       22.2150   -5.4930    9.6020 C.ar  300  H4K300     -0.0519
     20  C12       23.1830   -4.9070    8.8340 C.ar  300  H4K300     -0.0611
     21  C11       22.8820   -3.8230    8.0320 C.ar  300  H4K300     -0.0614
     22  C10       21.6090   -3.3200    7.9880 C.ar  300  H4K300     -0.0572
     23  H2        12.4650   -1.6980   10.3450 H     300  H4K300      0.1017
     24  H3        14.1810   -5.8950   12.1350 H     300  H4K300      0.1011
     25  H1        14.5100   -1.6130    9.1440 H     300  H4K300      0.1589
     26  H4        16.4420   -4.2450   10.3850 H     300  H4K300      0.1585
     27  H10       20.0340   -6.3710   11.0930 H     300  H4K300      0.0976
     28  H5        19.0350   -2.5770    8.0650 H     300  H4K300      0.0447
     29  H9        22.4510   -6.3540   10.2260 H     300  H4K300      0.0624
     30  H8        24.2000   -5.2970    8.8500 H     300  H4K300      0.0618
     31  H7        23.6680   -3.3650    7.4330 H     300  H4K300      0.0618
     32  H6        21.3740   -2.4660    7.3530 H     300  H4K300      0.0621
@<TRIPOS>BOND
     1    32    22    1
     2    31    21    1
     3    22    21   ar
     4    22    17   ar
     5    21    20   ar
     6    28    18    1
     7    11    10    2
     8    18    17    1
     9    18    13    1
    10    17    16   ar
    11    20    30    1
    12    20    19   ar
    13    10     9   am
    14    10    12   am
    15    25     9    1
    16     9     8    1
    17    13    12    1
    18    13    14    2
    19    16    19   ar
    20    16    15    1
    21    19    29    1
    22    12    26    1
    23    23     5    1
    24    14    15    2
    25    15    27    1
    26     8     5    1
    27     8     7    2
    28     5     4    2
    29     7     6    2
    30     4     3    2
    31     6    24    1
    32     6     3    1
    33     3     2    1
    34     2     1    3
