@<TRIPOS>MOLECULE
4fta_H5K_A_1.pdb
 36 38 0 0 0
SMALL
GASTEIGER

@<TRIPOS>ATOM
      1  N5        10.7980   -5.6580   13.6090 N.1   301  H5K301     -0.1881
      2  C13       11.5360   -5.0930   12.9530 C.1   301  H5K301      0.1349
      3  C11       12.4280   -4.3830   12.1110 C.2   301  H5K301      0.2195
      4  N3        12.0290   -3.1830   11.6490 N.2   301  H5K301     -0.3940
      5  C10       12.8310   -2.5780   10.7660 C.2   301  H5K301      0.1319
      6  C12       13.6630   -4.9630   11.7120 C.2   301  H5K301      0.1281
      7  N4        14.4740   -4.3200   10.8600 N.2   301  H5K301     -0.3898
      8  C9        14.0640   -3.1310   10.3880 C.2   301  H5K301      0.2079
      9  N2        14.8980   -2.4430    9.4870 N.am  301  H5K301     -0.2420
     10  C8        16.1590   -2.7070    9.0110 C.2   301  H5K301      0.3100
     11  O3        16.7030   -1.9900    8.1770 O.2   301  H5K301     -0.2521
     12  N1        16.7640   -3.8090    9.5780 N.am  301  H5K301     -0.2691
     13  C7        18.1480   -4.1400    9.5610 C.ar  301  H5K301      0.0354
     14  C6        19.0530   -3.4830    8.7540 C.ar  301  H5K301     -0.0327
     15  C14       18.5870   -5.1660   10.3950 C.ar  301  H5K301     -0.0398
     16  C15       19.8970   -5.5450   10.4150 C.ar  301  H5K301     -0.0523
     17  C16       20.8540   -4.9010    9.5920 C.ar  301  H5K301     -0.0170
     18  C5        20.4230   -3.8380    8.7580 C.ar  301  H5K301     -0.0161
     19  C4        21.3800   -3.1910    7.9400 C.ar  301  H5K301     -0.0532
     20  C3        22.6870   -3.5780    7.9430 C.ar  301  H5K301     -0.0472
     21  C17       22.2160   -5.2850    9.5560 C.ar  301  H5K301     -0.0400
     22  C2        23.1240   -4.6310    8.7520 C.ar  301  H5K301      0.0594
     23  C1        24.5760   -4.9940    8.7760 C.2   301  H5K301      0.3368
     24  O2        25.3920   -4.4220    8.0550 O.2   301  H5K301     -0.2451
     25  O1        24.9140   -5.9400    9.6130 O.3   301  H5K301     -0.4771
     26  H7        12.4150   -1.6720   10.3330 H     301  H5K301      0.1017
     27  H8        14.0090   -5.9340   12.0650 H     301  H5K301      0.1011
     28  H6        14.4450   -1.6010    9.1460 H     301  H5K301      0.1589
     29  H5        16.2070   -4.5170   10.0440 H     301  H5K301      0.1564
     30  H4        18.8090   -2.6960    8.0430 H     301  H5K301      0.0642
     31  H9        17.8910   -5.6900   11.0490 H     301  H5K301      0.0636
     32  H10       20.2290   -6.3510   11.0670 H     301  H5K301      0.0624
     33  H3        21.0490   -2.3810    7.2900 H     301  H5K301      0.0624
     34  H2        23.3840   -3.0440    7.3000 H     301  H5K301      0.0626
     35  H11       22.5250   -6.1230   10.1810 H     301  H5K301      0.0632
     36  H1        25.8880   -6.1340    9.5780 H     301  H5K301      0.2954
@<TRIPOS>BOND
     1    33    19    1
     2    34    20    1
     3    19    20   ar
     4    19    18   ar
     5    20    22   ar
     6    30    14    1
     7    24    23    2
     8    11    10    2
     9    22    23    1
    10    22    21   ar
    11    14    18   ar
    12    14    13   ar
    13    18    17   ar
    14    23    25    1
    15    10     9   am
    16    10    12   am
    17    28     9    1
    18     9     8    1
    19    21    17   ar
    20    21    35    1
    21    13    12    1
    22    13    15   ar
    23    36    25    1
    24    12    29    1
    25    17    16   ar
    26    26     5    1
    27     8     5    1
    28     8     7    2
    29    15    16   ar
    30    15    31    1
    31    16    32    1
    32     5     4    2
    33     7     6    2
    34     4     3    2
    35     6    27    1
    36     6     3    1
    37     3     2    1
    38     2     1    3
