@<TRIPOS>MOLECULE
4ftc_H6K_A_1.pdb
 34 36 0 0 0
SMALL
GASTEIGER

@<TRIPOS>ATOM
      1  N4        10.7700   -5.8330   13.6790 N.1   301  H6K301     -0.1881
      2  C6        11.4680   -5.2370   13.0030 C.1   301  H6K301      0.1349
      3  C4        12.3550   -4.5180   12.1480 C.2   301  H6K301      0.2195
      4  N2        11.9410   -3.3410   11.6480 N.2   301  H6K301     -0.3940
      5  C3        12.7540   -2.7230   10.7830 C.2   301  H6K301      0.1319
      6  C5        13.6330   -5.0640   11.8050 C.2   301  H6K301      0.1281
      7  N3        14.4530   -4.4050   10.9770 N.2   301  H6K301     -0.3898
      8  C2        14.0230   -3.2370   10.4640 C.2   301  H6K301      0.2079
      9  N1        14.8760   -2.5400    9.5930 N.am  301  H6K301     -0.2420
     10  C1        16.1780   -2.7710    9.2230 C.2   301  H6K301      0.3111
     11  O         16.7680   -2.0680    8.4060 O.2   301  H6K301     -0.2520
     12  N5        16.8170   -3.8510    9.8570 N.am  301  H6K301     -0.2524
     13  C7        18.1540   -4.2030    9.6640 C.ar  301  H6K301      0.1484
     14  N7        18.6130   -5.2090   10.4030 N.ar  301  H6K301     -0.1580
     15  N6        19.9360   -5.2700   10.0680 N.ar  301  H6K301     -0.2752
     16  C9        20.2860   -4.3520    9.1410 C.ar  301  H6K301      0.0676
     17  C8        19.1480   -3.6350    8.8650 C.ar  301  H6K301      0.0056
     18  C10       21.6460   -4.2620    8.5720 C.ar  301  H6K301     -0.0001
     19  C15       22.5860   -5.2660    8.7940 C.ar  301  H6K301     -0.0526
     20  C14       23.8770   -5.1410    8.3020 C.ar  301  H6K301     -0.0611
     21  C13       24.2360   -4.0340    7.5620 C.ar  301  H6K301     -0.0617
     22  C12       23.3040   -3.0520    7.3030 C.ar  301  H6K301     -0.0611
     23  C11       22.0160   -3.1570    7.8090 C.ar  301  H6K301     -0.0526
     24  H3        12.3290   -1.8310   10.3280 H     301  H6K301      0.1017
     25  H4        13.9960   -6.0180   12.1840 H     301  H6K301      0.1011
     26  H2        14.4210   -1.7300    9.1840 H     301  H6K301      0.1589
     27  H5        16.3230   -4.4550   10.5070 H     301  H6K301      0.1579
     28  H1        20.4880   -5.9690   10.5510 H     301  H6K301      0.1890
     29  H6        19.0710   -2.8050    8.1640 H     301  H6K301      0.0674
     30  H11       22.3090   -6.1850    9.3060 H     301  H6K301      0.0624
     31  H10       24.5990   -5.9280    8.5110 H     301  H6K301      0.0618
     32  H9        25.2580   -3.9470    7.1970 H     301  H6K301      0.0618
     33  H8        23.5700   -2.2020    6.6770 H     301  H6K301      0.0618
     34  H7        21.3220   -2.3520    7.5740 H     301  H6K301      0.0624
@<TRIPOS>BOND
     1    33    22    1
     2    32    21    1
     3    22    21   ar
     4    22    23   ar
     5    21    20   ar
     6    34    23    1
     7    23    18   ar
     8    29    17    1
     9    20    31    1
    10    20    19   ar
    11    11    10    2
    12    18    19   ar
    13    18    16    1
    14    19    30    1
    15    17    16   ar
    16    17    13   ar
    17    16    15   ar
    18    26     9    1
    19    10     9   am
    20    10    12   am
    21     9     8    1
    22    13    12    1
    23    13    14   ar
    24    12    27    1
    25    15    14   ar
    26    15    28    1
    27    24     5    1
    28     8     5    1
    29     8     7    2
    30     5     4    2
    31     7     6    2
    32     4     3    2
    33     6     3    1
    34     6    25    1
    35     3     2    1
    36     2     1    3
