@<TRIPOS>MOLECULE
4ftj_H8K_A_1.pdb
 49 53 0 0 0
SMALL
GASTEIGER

@<TRIPOS>ATOM
      1  O1        25.4470  -10.7770    7.0320 O.3   301  H8K301     -0.3918
      2  C1        25.3160   -9.6520    7.9080 C.3   301  H8K301      0.0554
      3  C6        24.7270   -8.4720    7.1590 C.3   301  H8K301     -0.0254
      4  C5        23.2030   -8.4430    7.2650 C.3   301  H8K301     -0.0352
      5  C4        22.7350   -8.2430    8.6980 C.3   301  H8K301      0.0081
      6  C3        23.7480   -8.8030    9.6800 C.3   301  H8K301     -0.0352
      7  C2        24.4680  -10.0200    9.1070 C.3   301  H8K301     -0.0254
      8  N1        22.4320   -6.8190    8.9440 N.3   301  H8K301     -0.3093
      9  C7        21.8310   -6.4390   10.2250 C.3   301  H8K301      0.0215
     10  C8        20.6810   -5.4880   10.0100 C.ar  301  H8K301     -0.0333
     11  C21       19.4310   -5.7370   10.5680 C.ar  301  H8K301     -0.0532
     12  C12       18.3340   -4.9300   10.2900 C.ar  301  H8K301     -0.0334
     13  C13       16.9110   -5.0390   10.7490 C.3   301  H8K301      0.0023
     14  C14       16.2500   -3.8990   10.1190 C.ar  301  H8K301      0.0100
     15  C16       15.0680   -3.1560    9.9860 C.ar  301  H8K301      0.0728
     16  C17       13.8170   -3.3730   10.6360 C.ar  301  H8K301      0.0377
     17  C20       13.4340   -4.4310   11.5160 C.ar  301  H8K301     -0.0147
     18  C19       12.2150   -4.1460   11.9710 C.ar  301  H8K301      0.0923
     19  O2        11.7750   -2.9610   11.4400 O.2   301  H8K301     -0.4704
     20  C18       12.7700   -2.5180   10.6230 C.ar  301  H8K301      0.1008
     21  N3        15.3430   -2.1060    9.1790 N.ar  301  H8K301     -0.2760
     22  N2        16.6470   -2.0960    8.7700 N.ar  301  H8K301     -0.1730
     23  C15       17.1990   -3.1750    9.3360 C.ar  301  H8K301      0.0968
     24  C11       18.4840   -3.8310    9.4470 C.ar  301  H8K301      0.0059
     25  C10       19.7350   -3.5620    8.8950 C.ar  301  H8K301     -0.0519
     26  C9        20.8150   -4.3790    9.1800 C.ar  301  H8K301     -0.0567
     27  H4        26.3710  -10.7460    6.6690 H     301  H8K301      0.2098
     28  H1        26.3120   -9.3730    8.2500 H     301  H8K301      0.0593
     29  H11       25.0290   -8.5040    6.1140 H     301  H8K301      0.0291
     30  H12       25.1520   -7.5400    7.5300 H     301  H8K301      0.0291
     31  H9        22.8090   -7.6580    6.6200 H     301  H8K301      0.0281
     32  H10       22.8040   -9.3650    6.8450 H     301  H8K301      0.0281
     33  H2        21.8140   -8.8070    8.8220 H     301  H8K301      0.0460
     34  H8        24.4680   -8.0370    9.9650 H     301  H8K301      0.0281
     35  H7        23.2640   -9.0810   10.6140 H     301  H8K301      0.0281
     36  H6        23.7460  -10.7900    8.8370 H     301  H8K301      0.0291
     37  H5        25.0700  -10.4820    9.8880 H     301  H8K301      0.0291
     38  H13       23.1900   -6.1960    8.6850 H     301  H8K301      0.1225
     39  H15       21.4540   -7.3210   10.7400 H     301  H8K301      0.0474
     40  H14       22.5400   -5.9970   10.9230 H     301  H8K301      0.0474
     41  H23       19.2850   -6.5770   11.2460 H     301  H8K301      0.0624
     42  H19       16.4690   -5.9890   10.4480 H     301  H8K301      0.0363
     43  H18       16.8400   -5.0100   11.8360 H     301  H8K301      0.0363
     44  H22       14.0360   -5.3050   11.7590 H     301  H8K301      0.0655
     45  H21       11.5120   -4.6220   12.6520 H     301  H8K301      0.1029
     46  H20       12.5640   -1.5930   10.0900 H     301  H8K301      0.1036
     47  H3        14.7220   -1.3660    8.8660 H     301  H8K301      0.1889
     48  H17       19.8500   -2.7180    8.2180 H     301  H8K301      0.0624
     49  H16       21.7890   -4.1480    8.7480 H     301  H8K301      0.0621
@<TRIPOS>BOND
     1    29     3    1
     2    31     4    1
     3    27     1    1
     4    32     4    1
     5     1     2    1
     6     3     4    1
     7     3    30    1
     8     3     2    1
     9     4     5    1
    10     2    28    1
    11     2     7    1
    12    48    25    1
    13    38     8    1
    14     5    33    1
    15     5     8    1
    16     5     6    1
    17    49    26    1
    18    22    21   ar
    19    22    23   ar
    20    36     7    1
    21    47    21    1
    22    25    26   ar
    23    25    24   ar
    24     8     9    1
    25     7     6    1
    26     7    37    1
    27    21    15   ar
    28    26    10   ar
    29    23    24    1
    30    23    14   ar
    31    24    12   ar
    32     6    34    1
    33     6    35    1
    34    15    14   ar
    35    15    16    1
    36    10     9    1
    37    10    11   ar
    38    46    20    1
    39    14    13    1
    40     9    39    1
    41     9    40    1
    42    12    11   ar
    43    12    13    1
    44    42    13    1
    45    11    41    1
    46    20    16   ar
    47    20    19   ar
    48    16    17   ar
    49    13    43    1
    50    19    18   ar
    51    17    44    1
    52    17    18   ar
    53    18    45    1
