@<TRIPOS>MOLECULE
4ftk_H9K_A_1.pdb
 42 46 0 0 0
SMALL
GASTEIGER

@<TRIPOS>ATOM
      1  O2        22.5800   -6.1860   10.5860 O.3   301  H9K301     -0.5068
      2  C19       21.4950   -5.4300   10.2290 C.ar  301  H9K301      0.1172
      3  C18       20.2510   -5.6910   10.7850 C.ar  301  H9K301     -0.0161
      4  C20       21.6310   -4.4260    9.2800 C.ar  301  H9K301     -0.0195
      5  C21       20.5250   -3.6830    8.8990 C.ar  301  H9K301     -0.0488
      6  C22       19.2650   -3.9600    9.4340 C.ar  301  H9K301      0.0061
      7  C14       17.9490   -3.3520    9.2690 C.ar  301  H9K301      0.0968
      8  N2        17.3520   -2.3130    8.6710 N.ar  301  H9K301     -0.1730
      9  N1        16.0300   -2.4230    9.0200 N.ar  301  H9K301     -0.2761
     10  C17       19.1300   -4.9830   10.3700 C.ar  301  H9K301     -0.0303
     11  C16       17.6810   -5.1940   10.6990 C.3   301  H9K301      0.0024
     12  C15       16.9920   -4.1250   10.0130 C.ar  301  H9K301      0.0099
     13  C13       15.7870   -3.4880    9.8160 C.ar  301  H9K301      0.0698
     14  C10       14.4960   -3.7190   10.4930 C.ar  301  H9K301      0.0001
     15  C9        13.4880   -2.7670   10.4470 C.ar  301  H9K301     -0.0520
     16  C8        12.3330   -2.9270   11.1850 C.ar  301  H9K301     -0.0534
     17  C11       14.2910   -4.8600   11.2650 C.ar  301  H9K301     -0.0520
     18  C12       13.1320   -5.0120   12.0050 C.ar  301  H9K301     -0.0534
     19  C7        12.1310   -4.0380   11.9990 C.ar  301  H9K301     -0.0178
     20  C4        10.9730   -4.1060   12.9410 C.ar  301  H9K301     -0.0177
     21  C3        10.2440   -2.9560   13.2670 C.ar  301  H9K301     -0.0506
     22  C2         8.9900   -3.0270   13.8440 C.ar  301  H9K301     -0.0196
     23  C5        10.4140   -5.3330   13.3000 C.ar  301  H9K301     -0.0506
     24  C6         9.1610   -5.4160   13.8850 C.ar  301  H9K301     -0.0196
     25  C1         8.4370   -4.2620   14.1410 C.ar  301  H9K301      0.1169
     26  O1         7.2270   -4.3570   14.7630 O.3   301  H9K301     -0.5068
     27  H14       22.3210   -6.8790   11.2480 H     301  H9K301      0.2921
     28  H13       20.1130   -6.4470   11.5570 H     301  H9K301      0.0657
     29  H15       22.6070   -4.2240    8.8400 H     301  H9K301      0.0654
     30  H16       20.6340   -2.8970    8.1550 H     301  H9K301      0.0625
     31  H1        15.3900   -1.7280    8.6470 H     301  H9K301      0.1889
     32  H12       17.3440   -6.1780   10.3770 H     301  H9K301      0.0363
     33  H11       17.5170   -5.1620   11.7750 H     301  H9K301      0.0363
     34  H8        13.5560   -1.8630    9.8450 H     301  H9K301      0.0624
     35  H7        11.5310   -2.2040   11.0440 H     301  H9K301      0.0624
     36  H9        15.0270   -5.6630   11.2830 H     301  H9K301      0.0624
     37  H10       13.0370   -5.9090   12.6140 H     301  H9K301      0.0624
     38  H4        10.6720   -1.9660   13.1130 H     301  H9K301      0.0625
     39  H3         8.4600   -2.0980   14.0470 H     301  H9K301      0.0654
     40  H5        10.9420   -6.2670   13.1200 H     301  H9K301      0.0625
     41  H6         8.7760   -6.3790   14.2120 H     301  H9K301      0.0654
     42  H2         6.9060   -3.4470   14.9910 H     301  H9K301      0.2921
@<TRIPOS>BOND
     1    30     5    1
     2    31     9    1
     3     8     9   ar
     4     8     7   ar
     5    29     4    1
     6     5     4   ar
     7     5     6   ar
     8     9    13   ar
     9     7     6    1
    10     7    12   ar
    11     4     2   ar
    12     6    10   ar
    13    13    12   ar
    14    13    14    1
    15    34    15    1
    16    12    11    1
    17     2     1    1
    18     2     3   ar
    19    10    11    1
    20    10     3   ar
    21    32    11    1
    22    15    14   ar
    23    15    16   ar
    24    14    17   ar
    25     1    27    1
    26    11    33    1
    27     3    28    1
    28    35    16    1
    29    16    19   ar
    30    17    36    1
    31    17    18   ar
    32    19    18   ar
    33    19    20    1
    34    18    37    1
    35    20    21   ar
    36    20    23   ar
    37    38    21    1
    38    40    23    1
    39    21    22   ar
    40    23    24   ar
    41    22    39    1
    42    22    25   ar
    43    24    25   ar
    44    24    41    1
    45    25    26    1
    46    26    42    1
