@<TRIPOS>MOLECULE
4ftl_H0K_A_1.pdb
 45 49 0 0 0
SMALL
GASTEIGER

@<TRIPOS>ATOM
      1  O2         7.3630   -4.5000   14.8460 O.3   301  H0K301     -0.5068
      2  C19        8.5750   -4.4100   14.2220 C.ar  301  H0K301      0.1169
      3  C18        9.3660   -5.5270   13.9780 C.ar  301  H0K301     -0.0196
      4  C17       10.5800   -5.3860   13.3260 C.ar  301  H0K301     -0.0506
      5  C20        9.0300   -3.1570   13.8540 C.ar  301  H0K301     -0.0196
      6  C21       10.2440   -3.0270   13.2070 C.ar  301  H0K301     -0.0506
      7  C16       11.0250   -4.1400   12.8800 C.ar  301  H0K301     -0.0177
      8  C13       12.2780   -3.9870   12.0710 C.ar  301  H0K301     -0.0178
      9  C12       13.2500   -4.9900   12.0050 C.ar  301  H0K301     -0.0534
     10  C11       14.3750   -4.8530   11.2060 C.ar  301  H0K301     -0.0520
     11  C14       12.4580   -2.8770   11.2500 C.ar  301  H0K301     -0.0534
     12  C15       13.5790   -2.7330   10.4600 C.ar  301  H0K301     -0.0520
     13  C10       14.5670   -3.7070   10.4390 C.ar  301  H0K301      0.0001
     14  C9        15.8660   -3.4390    9.7830 C.ar  301  H0K301      0.0698
     15  C7        17.0870   -4.0700    9.8900 C.ar  301  H0K301      0.0099
     16  C6        17.8590   -5.1540   10.5460 C.3   301  H0K301      0.0023
     17  N2        16.0300   -2.4180    8.9110 N.ar  301  H0K301     -0.2761
     18  N1        17.3010   -2.3220    8.4280 N.ar  301  H0K301     -0.1730
     19  C8        17.9610   -3.3210    9.0190 C.ar  301  H0K301      0.0968
     20  C22       19.2870   -3.8900    9.1310 C.ar  301  H0K301      0.0062
     21  C5        19.2600   -4.9260   10.0570 C.ar  301  H0K301     -0.0337
     22  C4        20.4370   -5.6030   10.3620 C.ar  301  H0K301     -0.0573
     23  C3        21.6200   -5.2620    9.7290 C.ar  301  H0K301     -0.0561
     24  C23       20.4800   -3.5620    8.4860 C.ar  301  H0K301     -0.0469
     25  C2        21.6580   -4.2480    8.7730 C.ar  301  H0K301     -0.0215
     26  C1        22.9320   -3.9150    8.0430 C.3   301  H0K301      0.0693
     27  O1        23.7070   -5.0620    7.7380 O.3   301  H0K301     -0.3904
     28  H15        7.2070   -5.4470   15.0940 H     301  H0K301      0.2921
     29  H14        9.0680   -6.5210   14.3040 H     301  H0K301      0.0654
     30  H13       11.1630   -6.2900   13.1590 H     301  H0K301      0.0625
     31  H16        8.4320   -2.2760   14.0840 H     301  H0K301      0.0654
     32  H17       10.5970   -2.0150   13.0190 H     301  H0K301      0.0625
     33  H10       13.1720   -5.8950   12.6040 H     301  H0K301      0.0624
     34  H9        15.1020   -5.6630   11.1740 H     301  H0K301      0.0624
     35  H11       11.6650   -2.1440   11.1350 H     301  H0K301      0.0624
     36  H12       13.6360   -1.8150    9.8820 H     301  H0K301      0.0624
     37  H7        17.4980   -6.1430   10.2690 H     301  H0K301      0.0363
     38  H8        17.8010   -5.1000   11.6320 H     301  H0K301      0.0363
     39  H1        15.3570   -1.7420    8.5650 H     301  H0K301      0.1889
     40  H6        20.4190   -6.4000   11.1040 H     301  H0K301      0.0621
     41  H5        22.5290   -5.7990    9.9970 H     301  H0K301      0.0621
     42  H18       20.4700   -2.7800    7.7280 H     301  H0K301      0.0628
     43  H3        22.6640   -3.3710    7.1390 H     301  H0K301      0.0607
     44  H4        23.5410   -3.2350    8.6360 H     301  H0K301      0.0607
     45  H2        23.1870   -5.5680    7.0610 H     301  H0K301      0.2098
@<TRIPOS>BOND
     1    45    27    1
     2    43    26    1
     3    42    24    1
     4    27    26    1
     5    26    44    1
     6    26    25    1
     7    18    17   ar
     8    18    19   ar
     9    24    25   ar
    10    24    20   ar
    11    39    17    1
    12    25    23   ar
    13    17    14   ar
    14    19    20    1
    15    19    15   ar
    16    20    21   ar
    17    23    41    1
    18    23    22   ar
    19    14    15   ar
    20    14    13    1
    21    36    12    1
    22    15    16    1
    23    21    22   ar
    24    21    16    1
    25    37    16    1
    26    22    40    1
    27    13    12   ar
    28    13    10   ar
    29    12    11   ar
    30    16    38    1
    31    35    11    1
    32    34    10    1
    33    10     9   ar
    34    11     8   ar
    35     9     8   ar
    36     9    33    1
    37     8     7    1
    38     7     6   ar
    39     7     4   ar
    40    32     6    1
    41    30     4    1
    42     6     5   ar
    43     4     3   ar
    44     5    31    1
    45     5     2   ar
    46     3     2   ar
    47     3    29    1
    48     2     1    1
    49     1    28    1
