@<TRIPOS>MOLECULE
4ftm_1HK_A_1.pdb
 39 42 0 0 0
SMALL
GASTEIGER

@<TRIPOS>ATOM
      1  O1         7.3960   -4.2630   14.4740 O.3   301  1HK301     -0.5033
      2  C1         8.5810   -4.1820   13.8090 C.ar  301  1HK301      0.1585
      3  C18        9.1210   -2.9290   13.4920 C.ar  301  1HK301      0.1615
      4  O2         8.3530   -1.8680   13.9020 O.3   301  1HK301     -0.4914
      5  C19        8.8240   -0.5460   13.6590 C.3   301  1HK301      0.0790
      6  C17       10.3480   -2.8460   12.8380 C.ar  301  1HK301     -0.0125
      7  C4        11.0610   -4.0100   12.5140 C.ar  301  1HK301     -0.0359
      8  C3        10.5320   -5.2470   12.8860 C.ar  301  1HK301     -0.0543
      9  C2         9.2990   -5.3350   13.5030 C.ar  301  1HK301     -0.0162
     10  C5        12.2300   -4.0100   11.6140 C.3   301  1HK301      0.0144
     11  C6        12.6480   -3.0360   10.8100 C.2   301  1HK301     -0.0563
     12  C7        13.9140   -2.9320   10.1760 C.2   301  1HK301      0.0361
     13  C9        15.0460   -3.7810   10.2880 C.3   301  1HK301      0.0744
     14  C10       15.6110   -5.0040   10.8750 C.3   301  1HK301     -0.0094
     15  C11       17.0740   -4.9080   10.5620 C.ar  301  1HK301     -0.0371
     16  C16       17.3190   -3.8440    9.6970 C.ar  301  1HK301      0.0019
     17  C8        16.0640   -3.1320    9.5340 C.2   301  1HK301      0.0799
     18  N2        15.6070   -2.0060    8.9810 N.2   301  1HK301     -0.1857
     19  N1        14.3030   -1.8990    9.3830 N.pl3 301  1HK301     -0.2408
     20  C15       18.6120   -3.6030    9.2350 C.ar  301  1HK301     -0.0525
     21  C14       19.6590   -4.4050    9.6700 C.ar  301  1HK301     -0.0611
     22  C13       19.4200   -5.4450   10.5520 C.ar  301  1HK301     -0.0615
     23  C12       18.1310   -5.7020   10.9910 C.ar  301  1HK301     -0.0579
     24  H2         7.0790   -3.3460   14.6830 H     301  1HK301      0.2923
     25 H192        8.9170   -0.3150   12.6000 H     301  1HK301      0.0660
     26 H191        8.0490    0.0800   14.0970 H     301  1HK301      0.0660
     27 H193        9.7580   -0.3470   14.1820 H     301  1HK301      0.0660
     28  H13       10.7910   -1.8880   12.5730 H     301  1HK301      0.0658
     29  H4        11.0850   -6.1630   12.6920 H     301  1HK301      0.0622
     30  H3         8.9160   -6.3230   13.7590 H     301  1HK301      0.0655
     31  H5        12.7890   -4.9430   11.6600 H     301  1HK301      0.0401
     32  H6        11.9930   -2.2020   10.5640 H     301  1HK301      0.0594
     33  H7        15.1720   -5.9070   10.4510 H     301  1HK301      0.0326
     34  H8        15.4350   -5.0650   11.9490 H     301  1HK301      0.0326
     35  H1        13.7640   -1.1010    9.0790 H     301  1HK301      0.1740
     36  H12       18.7850   -2.8020    8.5180 H     301  1HK301      0.0624
     37  H11       20.6690   -4.2100    9.3140 H     301  1HK301      0.0618
     38  H10       20.2440   -6.0630   10.9040 H     301  1HK301      0.0618
     39  H9        17.9350   -6.5280   11.6750 H     301  1HK301      0.0620
@<TRIPOS>BOND
     1    36    20    1
     2    18    19    1
     3    18    17    2
     4    35    19    1
     5    20    21   ar
     6    20    16   ar
     7    37    21    1
     8    19    12    1
     9    17    16    1
    10    17    13    1
    11    21    22   ar
    12    16    15   ar
    13    12    13    1
    14    12    11    2
    15    13    14    1
    16    33    14    1
    17    22    38    1
    18    22    23   ar
    19    15    14    1
    20    15    23   ar
    21    32    11    1
    22    11    10    1
    23    14    34    1
    24    23    39    1
    25    10    31    1
    26    10     7    1
    27     7     6   ar
    28     7     8   ar
    29    28     6    1
    30    25     5    1
    31    29     8    1
    32     6     3   ar
    33     8     9   ar
    34     3     2   ar
    35     3     4    1
    36     9    30    1
    37     9     2   ar
    38     5     4    1
    39     5    26    1
    40     5    27    1
    41     2     1    1
    42     1    24    1
