@<TRIPOS>MOLECULE
4ftq_4HK_A_1.pdb
 48 52 0 0 0
SMALL
GASTEIGER

@<TRIPOS>ATOM
      1  N1        10.1890   -5.4370   13.4160 N.1   301  4HK301     -0.1882
      2  C1        11.0960   -5.0780   12.8280 C.1   301  4HK301      0.1322
      3  C2        12.2410   -4.6630   12.0990 C.2   301  4HK301      0.1890
      4  N2        12.2020   -3.4990   11.4210 N.2   301  4HK301     -0.4042
      5  C6        13.2670   -3.1710   10.6780 C.2   301  4HK301      0.0742
      6  C5        14.4250   -3.9400   10.6090 C.3   301  4HK301      0.0974
      7  C4        14.4290   -5.1380   11.3180 C.2   301  4HK301     -0.0607
      8  C3        13.3380   -5.5170   12.0740 C.2   301  4HK301     -0.0163
      9  C7        15.6190   -3.5100    9.8600 C.ar  301  4HK301      0.0579
     10  C9        16.8680   -4.1020    9.7920 C.ar  301  4HK301      0.0065
     11  C10       17.7090   -5.1840   10.3150 C.3   301  4HK301      0.0021
     12  C11       19.0640   -4.8830    9.7470 C.ar  301  4HK301     -0.0302
     13  C22       18.9870   -3.7990    8.8830 C.ar  301  4HK301      0.0063
     14  C8        17.6270   -3.2590    8.9050 C.ar  301  4HK301      0.0965
     15  N4        16.8750   -2.2430    8.4650 N.ar  301  4HK301     -0.1733
     16  N3        15.6580   -2.4180    9.0670 N.ar  301  4HK301     -0.2794
     17  C21       20.1180   -3.4070    8.1680 C.ar  301  4HK301     -0.0456
     18  C18       21.3370   -4.0670    8.3190 C.ar  301  4HK301     -0.0053
     19  C19       22.5160   -3.5640    7.5130 C.3   301  4HK301     -0.0271
     20  C20       22.5630   -4.0820    6.0960 C.3   301  4HK301     -0.0611
     21  C13       21.3930   -5.1500    9.2060 C.ar  301  4HK301      0.1245
     22  C12       20.2740   -5.5440    9.9230 C.ar  301  4HK301     -0.0155
     23  O1        22.5920   -5.8180    9.2750 O.3   301  4HK301     -0.4862
     24  C14       22.7490   -6.9540    8.4270 C.3   301  4HK301      0.1254
     25  C17       22.3710   -8.1550    9.2740 C.3   301  4HK301      0.0846
     26  O2        23.5820   -8.8190    9.6200 O.3   301  4HK301     -0.3760
     27  C16       24.5460   -8.5280    8.6210 C.3   301  4HK301      0.0512
     28  C15       24.2070   -7.1730    8.0500 C.3   301  4HK301      0.0099
     29  H4        13.1160   -2.2350   10.1430 H     301  4HK301      0.0935
     30  H3        15.2830   -5.8130   11.2840 H     301  4HK301      0.0587
     31  H2        13.3350   -6.4520   12.6320 H     301  4HK301      0.0654
     32  H5        17.3590   -6.1670   10.0030 H     301  4HK301      0.0363
     33  H6        17.7260   -5.1970   11.4040 H     301  4HK301      0.0363
     34  H1        14.9340   -1.7360    8.8600 H     301  4HK301      0.1886
     35  H17       20.0290   -2.6000    7.4430 H     301  4HK301      0.0628
     36  H16       22.4760   -2.4760    7.5020 H     301  4HK301      0.0312
     37  H15       23.4560   -3.7810    8.0180 H     301  4HK301      0.0312
     38 H201       23.3590   -3.6170    5.5170 H     301  4HK301      0.0233
     39 H202       21.6320   -3.8910    5.5650 H     301  4HK301      0.0233
     40 H203       22.7360   -5.1560    6.0560 H     301  4HK301      0.0233
     41  H7        20.3050   -6.3580   10.6460 H     301  4HK301      0.0657
     42  H8        22.1050   -6.8740    7.5530 H     301  4HK301      0.0757
     43  H14       21.7220   -8.8430    8.7350 H     301  4HK301      0.0597
     44  H13       21.8810   -7.9370   10.2210 H     301  4HK301      0.0597
     45  H12       24.5300   -9.3140    7.8680 H     301  4HK301      0.0561
     46  H11       25.5150   -8.5810    9.1150 H     301  4HK301      0.0561
     47  H9        24.3710   -7.1370    6.9740 H     301  4HK301      0.0324
     48  H10       24.8540   -6.3910    8.4450 H     301  4HK301      0.0324
@<TRIPOS>BOND
     1    38    20    1
     2    39    20    1
     3    40    20    1
     4    20    19    1
     5    47    28    1
     6    35    17    1
     7    36    19    1
     8    19    37    1
     9    19    18    1
    10    42    24    1
    11    45    27    1
    12    28    24    1
    13    28    48    1
    14    28    27    1
    15    17    18   ar
    16    17    13   ar
    17    18    21   ar
    18    24    25    1
    19    24    23    1
    20    15    14   ar
    21    15    16   ar
    22    27    46    1
    23    27    26    1
    24    43    25    1
    25    34    16    1
    26    13    14    1
    27    13    12   ar
    28    14    10   ar
    29    16     9   ar
    30    21    23    1
    31    21    22   ar
    32    25    26    1
    33    25    44    1
    34    12    22   ar
    35    12    11    1
    36    10     9   ar
    37    10    11    1
    38     9     6    1
    39    22    41    1
    40    32    11    1
    41    29     5    1
    42    11    33    1
    43     6     5    1
    44     6     7    1
    45     5     4    2
    46    30     7    1
    47     7     8    2
    48     4     3    2
    49     8     3    1
    50     8    31    1
    51     3     2    1
    52     2     1    3
