@<TRIPOS>MOLECULE
4ftt_6HK_A_1.pdb
 45 48 0 0 0
SMALL
GASTEIGER

@<TRIPOS>ATOM
      1  O2        16.3580   -1.8670    8.9940 O.2   301  6HK301     -0.2698
      2  C13       17.0130   -2.8510    9.3350 C.2   301  6HK301      0.2501
      3  N2        18.3470   -2.8850    9.1240 N.am  301  6HK301     -0.2799
      4  C14       19.4010   -3.8160    9.2770 C.ar  301  6HK301      0.0553
      5  C6        19.3610   -4.8650   10.2020 C.ar  301  6HK301      0.0529
      6  C5        20.4250   -5.7650   10.2610 C.ar  301  6HK301     -0.0385
      7  C4        21.5230   -5.6030    9.4340 C.ar  301  6HK301     -0.0562
      8  C15       20.5240   -3.6680    8.4590 C.ar  301  6HK301     -0.0350
      9  C3        21.5950   -4.5520    8.5310 C.ar  301  6HK301     -0.0349
     10  C2        22.7960   -4.3830    7.6240 C.3   301  6HK301      0.0701
     11  C1        24.0000   -3.8010    8.3140 C.2   301  6HK301      0.3112
     12  O3        24.4510   -4.6180    9.2690 O.3   301  6HK301     -0.4677
     13  C20       25.5610   -4.1540   10.0820 C.3   301  6HK301      0.0817
     14  O1        24.5150   -2.7460    8.0450 O.2   301  6HK301     -0.2505
     15  C12       16.3210   -3.9990   10.0020 C.ar  301  6HK301      0.0581
     16  C7        16.9420   -4.9510   10.8380 C.ar  301  6HK301      0.0439
     17  N1        18.3220   -4.9920   11.1450 N.pl3 301  6HK301     -0.3124
     18  C11       14.9250   -3.9950    9.9350 C.ar  301  6HK301     -0.0475
     19  C10       14.1620   -4.8580   10.7030 C.ar  301  6HK301     -0.0552
     20  C9        14.7710   -5.8030   11.5220 C.ar  301  6HK301     -0.0131
     21  C8        16.1620   -5.8450   11.5690 C.ar  301  6HK301     -0.0341
     22  C16       14.0090   -6.6680   12.4590 C.3   301  6HK301      0.1394
     23  N4        12.6510   -6.6510   13.0120 N.pl3 301  6HK301     -0.2966
     24  C19       11.5500   -5.7230   12.7590 C.3   301  6HK301      0.0037
     25  C18       12.5940   -7.6550   13.9150 C.2   301  6HK301      0.1362
     26  N3        13.7110   -8.3240   14.0630 N.2   301  6HK301     -0.4061
     27  C17       14.6000   -7.7400   13.1900 C.2   301  6HK301      0.0877
     28  H9        18.7060   -2.0040    8.7730 H     301  6HK301      0.1552
     29  H4        20.4040   -6.6040   10.9540 H     301  6HK301      0.0637
     30  H3        22.3440   -6.3170    9.4940 H     301  6HK301      0.0621
     31  H10       20.5760   -2.8500    7.7420 H     301  6HK301      0.0639
     32  H1        22.5700   -3.7340    6.7800 H     301  6HK301      0.0426
     33  H2        23.0130   -5.3480    7.1700 H     301  6HK301      0.0426
     34 H203       26.4250   -3.9130    9.4640 H     301  6HK301      0.0661
     35 H202       25.2980   -3.2950   10.6980 H     301  6HK301      0.0661
     36 H201       25.7950   -5.0090   10.7150 H     301  6HK301      0.0661
     37  H5        18.5930   -5.1260   12.1140 H     301  6HK301      0.1522
     38  H8        14.4110   -3.3340    9.2410 H     301  6HK301      0.0626
     39  H7        13.0800   -4.7800   10.6270 H     301  6HK301      0.0621
     40  H6        16.7000   -6.5650   12.1780 H     301  6HK301      0.0640
     41 H193       11.3690   -5.5620   11.6980 H     301  6HK301      0.0429
     42 H191       10.6300   -6.1280   13.1760 H     301  6HK301      0.0429
     43 H192       11.7220   -4.7680   13.2510 H     301  6HK301      0.0429
     44  H12       11.6890   -7.8890   14.4730 H     301  6HK301      0.1144
     45  H11       15.6080   -8.1480   13.1270 H     301  6HK301      0.0949
@<TRIPOS>BOND
     1    32    10    1
     2    33    10    1
     3    10    11    1
     4    10     9    1
     5    31     8    1
     6    14    11    2
     7    11    12    1
     8     8     9   ar
     9     8     4   ar
    10     9     7   ar
    11    28     3    1
    12     1     2    2
    13     3     4    1
    14     3     2   am
    15    38    18    1
    16    12    13    1
    17     4     5   ar
    18     2    15    1
    19     7    30    1
    20     7     6   ar
    21    34    13    1
    22    18    15   ar
    23    18    19   ar
    24    15    16   ar
    25    13    35    1
    26    13    36    1
    27     5     6   ar
    28     5    17    1
    29     6    29    1
    30    39    19    1
    31    19    20   ar
    32    16    17    1
    33    16    21   ar
    34    17    37    1
    35    20    21   ar
    36    20    22    1
    37    21    40    1
    38    41    24    1
    39    22    23    1
    40    22    27    1
    41    24    23    1
    42    24    42    1
    43    24    43    1
    44    23    25    1
    45    45    27    1
    46    27    26    2
    47    25    26    2
    48    25    44    1
