@<TRIPOS>MOLECULE
4ftu_7HK_A_1.pdb
 46 49 0 0 0
SMALL
GASTEIGER

@<TRIPOS>ATOM
      1  O2        16.3360   -1.9990    9.0050 O.2   301  7HK301     -0.2698
      2  C18       17.1090   -2.9170    9.2840 C.2   301  7HK301      0.2501
      3  N4        18.4230   -2.8040    9.0060 N.am  301  7HK301     -0.2799
      4  C19       19.5280   -3.6820    9.0610 C.ar  301  7HK301      0.0553
      5  C6        19.6010   -4.7800    9.9260 C.ar  301  7HK301      0.0529
      6  C5        20.6910   -5.6450    9.8400 C.ar  301  7HK301     -0.0385
      7  C4        21.7180   -5.3850    8.9480 C.ar  301  7HK301     -0.0562
      8  C20       20.5740   -3.4390    8.1740 C.ar  301  7HK301     -0.0350
      9  C3        21.6880   -4.2690    8.1250 C.ar  301  7HK301     -0.0349
     10  C2        22.8710   -3.9160    7.2500 C.3   301  7HK301      0.0701
     11  C1        22.6870   -4.3430    5.8210 C.2   301  7HK301      0.3112
     12  O3        22.1290   -5.5500    5.7540 O.3   301  7HK301     -0.4677
     13  C21       21.8700   -6.0900    4.4370 C.3   301  7HK301      0.0817
     14  O1        23.0000   -3.6980    4.8550 O.2   301  7HK301     -0.2505
     15  C17       16.5750   -4.1640    9.9220 C.ar  301  7HK301      0.0582
     16  C7        17.2930   -5.0030   10.8020 C.ar  301  7HK301      0.0454
     17  N1        18.6890   -4.9600   10.9840 N.pl3 301  7HK301     -0.3124
     18  C16       15.2080   -4.3890    9.7610 C.ar  301  7HK301     -0.0461
     19  C15       14.5460   -5.3540   10.4950 C.ar  301  7HK301     -0.0397
     20  C9        15.2370   -6.1310   11.4140 C.ar  301  7HK301      0.0329
     21  C8        16.6110   -5.9650   11.5430 C.ar  301  7HK301     -0.0186
     22  N2        14.5840   -7.0700   12.2500 N.pl3 301  7HK301     -0.3171
     23  C10       13.2580   -7.0680   12.7460 C.2   301  7HK301      0.0209
     24  C14       12.7240   -8.2590   13.2210 C.3   301  7HK301      0.0575
     25  C13       11.4020   -8.2650   13.6300 C.2   301  7HK301      0.0648
     26  N3        10.6030   -7.1910   13.5900 N.2   301  7HK301     -0.4233
     27  C12       11.1420   -6.0530   13.1470 C.2   301  7HK301      0.0789
     28  C11       12.4560   -5.9330   12.7370 C.2   301  7HK301     -0.0141
     29  H14       18.6870   -1.8740    8.6980 H     301  7HK301      0.1552
     30  H4        20.7450   -6.5350   10.4650 H     301  7HK301      0.0637
     31  H3        22.5610   -6.0710    8.8930 H     301  7HK301      0.0621
     32  H15       20.5240   -2.5950    7.4890 H     301  7HK301      0.0639
     33  H1        23.0540   -2.8450    7.3340 H     301  7HK301      0.0426
     34  H2        23.7890   -4.3770    7.6120 H     301  7HK301      0.0426
     35 H212       21.2810   -5.4010    3.8330 H     301  7HK301      0.0661
     36 H211       22.8600   -6.2230    4.0040 H     301  7HK301      0.0661
     37 H213       21.3470   -7.0440    4.4900 H     301  7HK301      0.0661
     38  H5        19.0760   -5.3420   11.8410 H     301  7HK301      0.1522
     39  H13       14.6410   -3.8040    9.0400 H     301  7HK301      0.0626
     40  H12       13.4810   -5.4960   10.3180 H     301  7HK301      0.0636
     41  H6        17.1610   -6.6020   12.2350 H     301  7HK301      0.0655
     42  H7        15.1530   -7.8610   12.5330 H     301  7HK301      0.1519
     43  H11       13.3100   -9.1760   13.2790 H     301  7HK301      0.0440
     44  H10       10.9330   -9.1680   14.0180 H     301  7HK301      0.0928
     45  H9        10.4650   -5.2000   13.1370 H     301  7HK301      0.0970
     46  H8        12.8490   -4.9490   12.4920 H     301  7HK301      0.0659
@<TRIPOS>BOND
     1    35    13    1
     2    36    13    1
     3    13    37    1
     4    13    12    1
     5    14    11    2
     6    12    11    1
     7    11    10    1
     8    10    33    1
     9    10    34    1
    10    10     9    1
    11    32     8    1
    12     9     8   ar
    13     9     7   ar
    14     8     4   ar
    15    29     3    1
    16    31     7    1
    17     7     6   ar
    18     1     2    2
    19     3     4    1
    20     3     2   am
    21    39    18    1
    22     4     5   ar
    23     2    15    1
    24    18    15   ar
    25    18    19   ar
    26     6     5   ar
    27     6    30    1
    28    15    16   ar
    29     5    17    1
    30    40    19    1
    31    19    20   ar
    32    16    17    1
    33    16    21   ar
    34    17    38    1
    35    20    21   ar
    36    20    22    1
    37    21    41    1
    38    22    42    1
    39    22    23    1
    40    46    28    1
    41    28    23    2
    42    28    27    1
    43    23    24    1
    44    45    27    1
    45    27    26    2
    46    24    43    1
    47    24    25    1
    48    26    25    2
    49    25    44    1
