@<TRIPOS>MOLECULE
4ftw_3CM_A_1.pdb
 32 34 0 0 0
SMALL
GASTEIGER

@<TRIPOS>ATOM
      1  C1       -48.2260  -30.8180  -10.5800 C.3   302  3CM302      0.2695
      2  C2       -47.8080  -29.9570   -9.4040 C.3   302  3CM302      0.2406
      3  C3       -48.5300  -28.6930   -9.4480 C.3   302  3CM302      0.2198
      4  C4       -48.3960  -28.2290  -10.8180 C.3   302  3CM302      0.2144
      5  C5       -49.2580  -29.0310  -11.7110 C.3   302  3CM302      0.1835
      6  C6       -48.5590  -29.0250  -13.0320 C.3   302  3CM302      0.2142
      7  O2       -48.0720  -30.6020   -8.1440 O.3   302  3CM302     -0.2149
      8  O3       -47.8150  -27.7870   -8.6720 O.3   302  3CM302     -0.2174
      9  O5       -49.3460  -30.3300  -11.2460 O.3   302  3CM302     -0.3256
     10  O6       -47.6440  -27.9480  -12.9670 O.3   302  3CM302     -0.2176
     11  O1       -48.9350  -31.8780  -10.1040 O.3   302  3CM302     -0.3257
     12  O4       -48.8390  -26.9070  -10.8910 O.3   302  3CM302     -0.2176
     13  C10      -47.0910  -35.3370   -9.2770 C.3   302  3CM302      0.2695
     14  C20      -46.2920  -34.3620  -10.0920 C.3   302  3CM302      0.2404
     15  C30      -46.8590  -32.9770  -10.0720 C.3   302  3CM302      0.2167
     16  C40      -48.3000  -33.1090  -10.1750 C.3   302  3CM302      0.1804
     17  C50      -48.6560  -33.8180   -8.9820 C.3   302  3CM302      0.1803
     18  C60      -50.1290  -33.6520   -8.7690 C.3   302  3CM302      0.2141
     19  O10      -47.1380  -36.5010   -9.9850 O.3   302  3CM302     -0.3286
     20  O20      -44.9410  -34.3410   -9.5740 O.3   302  3CM302     -0.2149
     21  O30      -46.4170  -32.3240  -11.2050 O.3   302  3CM302     -0.2175
     22  O50      -48.4290  -35.0960   -9.3110 O.3   302  3CM302     -0.3257
     23  O60      -50.3650  -32.3230   -8.3700 O.3   302  3CM302     -0.2176
     24  C11      -46.7710  -37.5630   -9.1490 C.3   302  3CM302      0.1449
     25  C21      -46.6300  -38.7760  -10.0230 C.3   302  3CM302      0.0322
     26  C31      -45.3690  -39.5080   -9.6540 C.3   302  3CM302      0.0026
     27  C12      -45.7550  -40.4320   -8.5520 C.3   302  3CM302      0.0001
     28  C22      -44.8300  -40.2510   -7.3930 C.3   302  3CM302      0.0000
     29  C32      -43.5390  -40.8950   -7.6160 C.3   302  3CM302      0.0000
     30  C42      -43.7500  -42.2970   -7.9380 C.3   302  3CM302      0.0000
     31  C52      -44.3680  -42.2800   -9.2600 C.3   302  3CM302      0.0000
     32  C62      -45.7420  -41.8080   -9.0830 C.3   302  3CM302      0.0000
@<TRIPOS>BOND
     1     6    10    1
     2     6     5    1
     3     5     9    1
     4     5     4    1
     5     9     1    1
     6    21    15    1
     7    12     4    1
     8     4     3    1
     9     1    11    1
    10     1     2    1
    11    16    11    1
    12    16    15    1
    13    16    17    1
    14    14    15    1
    15    14    20    1
    16    14    13    1
    17    25    26    1
    18    25    24    1
    19    19    13    1
    20    19    24    1
    21    26    27    1
    22     3     2    1
    23     3     8    1
    24     2     7    1
    25    22    13    1
    26    22    17    1
    27    31    32    1
    28    31    30    1
    29    32    27    1
    30    17    18    1
    31    18    23    1
    32    27    28    1
    33    30    29    1
    34    29    28    1
