@<TRIPOS>MOLECULE
4ftw_PIN_A_1.pdb
 18 18 0 0 0
SMALL
GASTEIGER

@<TRIPOS>ATOM
      1  C1       -43.5840  -41.2360  -14.0040 C.3   301  PIN301      0.1225
      2  C2       -43.3410  -40.1860  -12.8870 C.3   301  PIN301      0.0939
      3  N1       -43.8240  -38.8370  -13.2610 N.3   301  PIN301     -0.2689
      4  C3       -44.4760  -38.4810  -14.5060 C.3   301  PIN301      0.0897
      5  C4       -43.0620  -37.6910  -12.8210 C.3   301  PIN301      0.0897
      6  C1'      -46.2070  -34.7940  -14.9470 C.3   301  PIN301      0.1225
      7  C2'      -45.0230  -34.7180  -14.0440 C.3   301  PIN301      0.0939
      8  N1'      -44.5310  -36.0750  -13.8180 N.3   301  PIN301     -0.2689
      9  C3'      -43.9970  -36.5200  -12.5570 C.3   301  PIN301      0.0897
     10  C4'      -45.2420  -37.1620  -14.4550 C.3   301  PIN301      0.0897
     11  S1       -43.4340  -42.9290  -13.3960 S.3   301  PIN301     -0.1946
     12  S1'      -46.2060  -33.3210  -16.0120 S.3   301  PIN301     -0.1946
     13  O1       -42.7040  -42.9760  -12.1420 O.3   301  PIN301     -0.3074
     14  O2       -42.7650  -43.7630  -14.3810 O.3   301  PIN301     -0.3074
     15  O3       -44.8270  -43.4170  -13.1620 O.3   301  PIN301     -0.3074
     16  O1'      -46.3050  -33.6840  -17.4230 O.3   301  PIN301     -0.3074
     17  O2'      -44.9570  -32.5790  -15.8000 O.3   301  PIN301     -0.3074
     18  O3'      -47.3890  -32.5310  -15.6000 O.3   301  PIN301     -0.3074
@<TRIPOS>BOND
     1    16    12    1
     2    12    17    1
     3    12    18    1
     4    12     6    1
     5     6     7    1
     6     4    10    1
     7     4     3    1
     8    10     8    1
     9    14    11    1
    10     7     8    1
    11     1    11    1
    12     1     2    1
    13     8     9    1
    14    11    15    1
    15    11    13    1
    16     3     2    1
    17     3     5    1
    18     5     9    1
