@<TRIPOS>MOLECULE
4fu7_1UP_A_1.pdb
 20 21 0 0 0
SMALL
GASTEIGER

@<TRIPOS>ATOM
      1  O3        25.5480  -20.4210    5.8190 O.2   305  1UP305     -0.2676
      2  C13       25.0660  -19.2700    5.8350 C.2   305  1UP305      0.3052
      3  N1        25.8700  -18.1600    5.6000 N.am  305  1UP305     -0.0845
      4  C12       23.5760  -19.0620    6.1680 C.3   305  1UP305      0.2930
      5  O2        23.0430  -17.8650    5.5890 O.3   305  1UP305     -0.4624
      6  C11       22.5130  -16.9950    6.5250 C.ar  305  1UP305      0.1728
      7  C2        23.2810  -15.9050    6.9730 C.ar  305  1UP305      0.1724
      8  O1        24.5190  -15.7580    6.3660 O.3   305  1UP305     -0.4684
      9  C1        25.5550  -15.0590    7.0650 C.3   305  1UP305      0.2526
     10  C10       21.1760  -17.2420    7.1190 C.ar  305  1UP305      0.0373
     11  C5        20.7220  -16.3390    8.1520 C.ar  305  1UP305      0.0031
     12  C4        21.5370  -15.2510    8.5790 C.ar  305  1UP305      0.0033
     13  C3        22.7650  -15.0190    8.0180 C.ar  305  1UP305      0.0400
     14  C9        20.3210  -18.3470    6.7510 C.ar  305  1UP305      0.0111
     15  C8        19.0830  -18.5130    7.3660 C.ar  305  1UP305      0.0976
     16  C14       18.1210  -19.6110    6.9290 C.2   305  1UP305      0.4766
     17  N3        16.8870  -19.3950    7.1020 N.pl3 305  1UP305      0.2047
     18  N2        18.6390  -20.7520    6.3880 N.pl3 305  1UP305      0.2047
     19  C7        18.6440  -17.5820    8.3970 C.ar  305  1UP305      0.0080
     20  C6        19.4380  -16.5320    8.7750 C.ar  305  1UP305      0.0004
@<TRIPOS>BOND
     1     5     4    1
     2     5     6    1
     3     3     2   am
     4     1     2    2
     5     2     4    1
     6     8     7    1
     7     8     9    1
     8    18    16    2
     9     6     7   ar
    10     6    10   ar
    11    14    10   ar
    12    14    15   ar
    13    16    17    1
    14    16    15    1
    15     7    13   ar
    16    10    11   ar
    17    15    19   ar
    18    13    12   ar
    19    11    12   ar
    20    11    20   ar
    21    19    20   ar
