@<TRIPOS>MOLECULE
4fu8_2UP_A_1.pdb
 13 14 0 0 0
SMALL
GASTEIGER

@<TRIPOS>ATOM
      1  CAI      -20.4570  -18.7150   -6.6060 C.ar  301  2UP301      0.0080
      2  CAM      -21.3590  -17.6860   -6.8940 C.ar  301  2UP301      0.0003
      3  CAG      -22.6210  -17.6730   -6.2870 C.ar  301  2UP301      0.0000
      4  CAD      -23.5190  -16.6420   -6.5770 C.ar  301  2UP301      0.0000
      5  CAC      -23.1590  -15.6290   -7.4740 C.ar  301  2UP301      0.0000
      6  CAF      -21.9020  -15.6430   -8.0900 C.ar  301  2UP301      0.0000
      7  CAL      -20.9970  -16.6690   -7.7970 C.ar  301  2UP301      0.0000
      8  CAH      -19.7360  -16.6880   -8.4050 C.ar  301  2UP301      0.0003
      9  CAE      -18.8440  -17.7260   -8.1170 C.ar  301  2UP301      0.0080
     10  CAK      -19.1960  -18.7470   -7.2180 C.ar  301  2UP301      0.0975
     11  CAJ      -18.2950  -19.7790   -6.9160 C.2   301  2UP301      0.4766
     12  NAB      -16.9850  -19.5540   -6.9030 N.pl3 301  2UP301      0.2047
     13  NAA      -18.7240  -21.0030   -6.6050 N.pl3 301  2UP301      0.2047
@<TRIPOS>BOND
     1     8     9   ar
     2     8     7   ar
     3     9    10   ar
     4     6     7   ar
     5     6     5   ar
     6     7     2   ar
     7     5     4   ar
     8    10    11    1
     9    10     1   ar
    10    11    12    2
    11    11    13    1
    12     2     1   ar
    13     2     3   ar
    14     4     3   ar
