@<TRIPOS>MOLECULE
4fu9_675_A_1.pdb
 37 39 0 0 0
SMALL
GASTEIGER

@<TRIPOS>ATOM
      1  N18      -10.5770  -19.3560    7.2410 N.2   313  675313     -0.0994
      2  C17       -9.3260  -19.5480    7.0030 C.2   313  675313      0.3081
      3  N19       -8.8520  -20.7250    6.5270 N.pl3 313  675313     -0.2466
      4  C12       -8.3100  -18.4400    7.3550 C.ar  313  675313      0.0653
      5  C11       -8.6540  -17.4000    8.3090 C.ar  313  675313     -0.0463
      6  C10       -7.7500  -16.4000    8.6200 C.ar  313  675313     -0.0532
      7  C2        -6.4540  -16.4020    8.0560 C.ar  313  675313     -0.0171
      8  C1        -5.5060  -15.4210    8.4270 C.ar  313  675313     -0.0419
      9  C6        -4.2700  -15.4350    7.8310 C.ar  313  675313      0.0376
     10  C5        -3.9030  -16.4230    6.8700 C.ar  313  675313     -0.0490
     11  C4        -4.8040  -17.4020    6.5160 C.ar  313  675313     -0.0533
     12  C3        -6.1010  -17.4120    7.1110 C.ar  313  675313     -0.0170
     13  C13       -7.0440  -18.4150    6.7740 C.ar  313  675313     -0.0392
     14  C23       -3.2060  -14.4370    8.1730 C.2   313  675313      0.2483
     15  O36       -2.4420  -14.0310    7.3010 O.2   313  675313     -0.2699
     16  N24       -3.1290  -14.0740    9.5060 N.am  313  675313     -0.2815
     17  C25       -2.1730  -13.1950   10.0900 C.ar  313  675313      0.0337
     18  C30       -1.7390  -13.4340   11.4070 C.ar  313  675313     -0.0405
     19  C29       -0.7540  -12.6010   11.9590 C.ar  313  675313     -0.0600
     20  C28       -0.2090  -11.5690   11.2000 C.ar  313  675313     -0.0616
     21  C27       -0.6370  -11.3450    9.8940 C.ar  313  675313     -0.0600
     22  C26       -1.6260  -12.1310    9.3370 C.ar  313  675313     -0.0405
     23  H18      -10.8530  -18.4510    7.5990 H     313  675313      0.3633
     24 H191       -7.8650  -20.9480    6.4490 H     313  675313      0.2884
     25 H192       -9.4920  -21.4690    6.2720 H     313  675313      0.2884
     26  H11       -9.6240  -17.3900    8.8000 H     313  675313      0.0626
     27  H10       -8.0200  -15.6110    9.3200 H     313  675313      0.0624
     28  H1        -5.7580  -14.6980    9.2000 H     313  675313      0.0631
     29  H5        -2.9110  -16.4040    6.4190 H     313  675313      0.0625
     30  H4        -4.5420  -18.1560    5.7760 H     313  675313      0.0624
     31  H13       -6.7460  -19.1360    6.0170 H     313  675313      0.0632
     32  H24       -3.7750  -14.4870   10.1710 H     313  675313      0.1551
     33  H30       -2.1370  -14.2490   12.0090 H     313  675313      0.0636
     34  H29       -0.4080  -12.7610   12.9790 H     313  675313      0.0618
     35  H28        0.5720  -10.9330   11.6150 H     313  675313      0.0618
     36  H27       -0.1740  -10.5630    9.2920 H     313  675313      0.0618
     37  H26       -1.9780  -11.8720    8.3410 H     313  675313      0.0636
@<TRIPOS>BOND
     1    30    11    1
     2    31    13    1
     3    25     3    1
     4    29    10    1
     5    24     3    1
     6    11    10   ar
     7    11    12   ar
     8     3     2    1
     9    13    12   ar
    10    13     4   ar
    11    10     9   ar
    12     2     1    2
    13     2     4    1
    14    12     7   ar
    15     1    23    1
    16    15    14    2
    17     4     5   ar
    18     9    14    1
    19     9     8   ar
    20     7     8   ar
    21     7     6   ar
    22    14    16   am
    23     5     6   ar
    24     5    26    1
    25    37    22    1
    26     8    28    1
    27     6    27    1
    28    36    21    1
    29    22    21   ar
    30    22    17   ar
    31    16    17    1
    32    16    32    1
    33    21    20   ar
    34    17    18   ar
    35    20    35    1
    36    20    19   ar
    37    18    19   ar
    38    18    33    1
    39    19    34    1
