@<TRIPOS>MOLECULE
4fua_PGH_A_1.pdb
 10 9 0 0 0
SMALL
GASTEIGER

@<TRIPOS>ATOM
      1  C1        73.9760   46.1490   77.1860 C.2   217  PGH217      0.1177
      2  C2        73.3740   44.8130   77.6440 C.3   217  PGH217      0.2044
      3  N2        73.1690   46.9480   76.4480 N.am  217  PGH217     -0.2004
      4  O2        73.7630   48.1060   76.0560 O.3   217  PGH217     -0.4026
      5  O1        75.1160   46.4930   77.4840 O.2   217  PGH217     -0.5374
      6  O1P       72.1900   44.5390   76.9080 O.3   217  PGH217     -0.2633
      7  O2P       70.4180   43.3600   75.8170 O.3   217  PGH217     -0.1145
      8  O3P       71.7160   42.2210   77.7270 O.3   217  PGH217     -0.1145
      9  O4P       72.8290   42.6310   75.4270 O.2   217  PGH217     -0.2224
     10  P         71.7660   43.1250   76.5000 P.3   217  PGH217      0.5330
@<TRIPOS>BOND
     1     9    10    2
     2     7    10    1
     3     4     3    1
     4     3     1   am
     5    10     6    1
     6    10     8    1
     7     6     2    1
     8     1     5    2
     9     1     2    1
