@<TRIPOS>MOLECULE
4fub_4UP_A_1.pdb
 22 25 0 0 0
SMALL
GASTEIGER

@<TRIPOS>ATOM
      1  N2       -10.7300  -19.5640    7.0920 N.pl3 301  4UP301      0.2047
      2  C1        -9.5030  -19.8460    6.8980 C.2   301  4UP301      0.4766
      3  N1        -9.0120  -21.0330    6.3670 N.pl3 301  4UP301      0.2047
      4  C2        -8.5070  -18.7570    7.2300 C.ar  301  4UP301      0.0975
      5  C11       -7.2170  -18.7550    6.6920 C.ar  301  4UP301      0.0080
      6  C10       -6.3310  -17.6670    6.9790 C.ar  301  4UP301      0.0002
      7  C5        -6.7860  -16.5850    7.8290 C.ar  301  4UP301     -0.0002
      8  C4        -8.1070  -16.6150    8.3870 C.ar  301  4UP301      0.0002
      9  C3        -8.9510  -17.6780    8.0980 C.ar  301  4UP301      0.0080
     10  C9        -4.9910  -17.6510    6.4410 C.ar  301  4UP301     -0.0002
     11  C8        -4.1400  -16.6040    6.7400 C.ar  301  4UP301     -0.0019
     12  C7        -4.5960  -15.5250    7.6090 C.ar  301  4UP301      0.0073
     13  C6        -5.8940  -15.5100    8.1290 C.ar  301  4UP301     -0.0019
     14  C12       -3.6410  -14.4460    8.0330 C.3   301  4UP301      0.1691
     15  C13       -2.2660  -14.8660    8.5280 C.3   301  4UP301      0.1691
     16  O         -2.4660  -14.2590    7.2340 O.3   301  4UP301     -0.3442
     17  C14       -1.5370  -14.0720    9.5710 C.ar  301  4UP301      0.0073
     18  C19       -0.8930  -14.7900   10.6140 C.ar  301  4UP301     -0.0019
     19  C18       -0.2320  -14.0880   11.6370 C.ar  301  4UP301     -0.0002
     20  C17       -0.2190  -12.6720   11.6250 C.ar  301  4UP301     -0.0000
     21  C16       -0.8430  -11.9550   10.5850 C.ar  301  4UP301     -0.0002
     22  C15       -1.5010  -12.6500    9.5440 C.ar  301  4UP301     -0.0019
@<TRIPOS>BOND
     1     3     2    2
     2    10    11   ar
     3    10     6   ar
     4     5     6   ar
     5     5     4   ar
     6    11    12   ar
     7     2     1    1
     8     2     4    1
     9     6     7   ar
    10     4     9   ar
    11    16    14    1
    12    16    15    1
    13    12    14    1
    14    12    13   ar
    15     7    13   ar
    16     7     8   ar
    17    14    15    1
    18     9     8   ar
    19    15    17    1
    20    22    17   ar
    21    22    21   ar
    22    17    18   ar
    23    21    20   ar
    24    18    19   ar
    25    20    19   ar
