@<TRIPOS>MOLECULE
4fuc_239_A_1.pdb
 42 44 0 0 0
SMALL
GASTEIGER

@<TRIPOS>ATOM
      1  N18      -10.4290  -19.5540    7.3080 N.2   301  239301     -0.0994
      2  C17       -9.2240  -19.8460    7.0640 C.2   301  239301      0.3081
      3  N19       -8.7900  -21.0620    6.5420 N.pl3 301  239301     -0.2466
      4  C12       -8.2220  -18.7670    7.3930 C.ar  301  239301      0.0653
      5  C13       -6.9830  -18.6930    6.7690 C.ar  301  239301     -0.0392
      6  C3        -6.0640  -17.6640    7.1220 C.ar  301  239301     -0.0170
      7  C4        -4.7670  -17.6020    6.4890 C.ar  301  239301     -0.0533
      8  C5        -3.8740  -16.6160    6.8390 C.ar  301  239301     -0.0490
      9  C6        -4.2270  -15.6690    7.8550 C.ar  301  239301      0.0376
     10  C1        -5.4660  -15.7150    8.4820 C.ar  301  239301     -0.0419
     11  C2        -6.4180  -16.7130    8.1060 C.ar  301  239301     -0.0171
     12  C10       -7.7090  -16.7660    8.7190 C.ar  301  239301     -0.0532
     13  C11       -8.5840  -17.7820    8.3930 C.ar  301  239301     -0.0463
     14  C23       -3.1720  -14.6500    8.2290 C.2   301  239301      0.2483
     15  O35       -2.4260  -14.2000    7.3780 O.2   301  239301     -0.2699
     16  N24       -3.0510  -14.3350    9.5970 N.am  301  239301     -0.2815
     17  C25       -2.1230  -13.4250   10.1860 C.ar  301  239301      0.0337
     18  C30       -1.6120  -12.2730    9.5380 C.ar  301  239301     -0.0402
     19  C29       -0.7480  -11.4130   10.2340 C.ar  301  239301     -0.0556
     20  C28       -0.3900  -11.6760   11.5540 C.ar  301  239301     -0.0337
     21  C27       -0.8670  -12.8280   12.1920 C.ar  301  239301     -0.0556
     22  C26       -1.7250  -13.7030   11.5250 C.ar  301  239301     -0.0402
     23  C37        0.4710  -10.6980   12.3300 C.3   301  239301      0.0185
     24  N38        1.8830  -11.0600   12.1200 N.3   301  239301     -0.3261
     25  H18      -11.1010  -20.2880    7.1250 H     301  239301      0.3633
     26 H191       -7.8100  -21.2820    6.3950 H     301  239301      0.2884
     27 H192       -9.4520  -21.7970    6.3140 H     301  239301      0.2884
     28  H13       -6.6960  -19.3750    5.9730 H     301  239301      0.0632
     29  H4        -4.5010  -18.3410    5.7340 H     301  239301      0.0624
     30  H5        -2.8950  -16.5630    6.3650 H     301  239301      0.0625
     31  H1        -5.7280  -15.0120    9.2720 H     301  239301      0.0631
     32  H10       -7.9940  -16.0020    9.4400 H     301  239301      0.0624
     33  H11       -9.5460  -17.8420    8.8950 H     301  239301      0.0626
     34  H24       -3.6530  -14.8180   10.2560 H     301  239301      0.1551
     35  H30       -1.8590  -12.0160    8.5090 H     301  239301      0.0636
     36  H29       -0.3550  -10.5370    9.7180 H     301  239301      0.0621
     37  H27       -0.5600  -13.0350   13.2160 H     301  239301      0.0621
     38  H26       -2.0690  -14.5970   12.0410 H     301  239301      0.0636
     39 H371        0.3190   -9.6930   11.9400 H     301  239301      0.0471
     40 H372        0.1680  -10.6470   13.3750 H     301  239301      0.0471
     41 H381        2.1650  -11.8730   12.6600 H     301  239301      0.1185
     42 H382        2.1150  -11.1950   11.1420 H     301  239301      0.1185
@<TRIPOS>BOND
     1    29     7    1
     2    28     5    1
     3    27     3    1
     4    30     8    1
     5    26     3    1
     6     7     8   ar
     7     7     6   ar
     8     3     2    1
     9     5     6   ar
    10     5     4   ar
    11     8     9   ar
    12     2     1    2
    13     2     4    1
    14     6    11   ar
    15    25     1    1
    16    15    14    2
    17     4    13   ar
    18     9    14    1
    19     9    10   ar
    20    11    10   ar
    21    11    12   ar
    22    14    16   am
    23    13    12   ar
    24    13    33    1
    25    10    31    1
    26    35    18    1
    27    12    32    1
    28    18    17   ar
    29    18    19   ar
    30    16    17    1
    31    16    34    1
    32    36    19    1
    33    17    22   ar
    34    19    20   ar
    35    42    24    1
    36    22    38    1
    37    22    21   ar
    38    20    21   ar
    39    20    23    1
    40    39    23    1
    41    24    23    1
    42    24    41    1
    43    21    37    1
    44    23    40    1
