@<TRIPOS>MOLECULE
4fud_6UP_A_1.pdb
 14 15 0 0 0
SMALL
GASTEIGER

@<TRIPOS>ATOM
      1  CAI      -20.3710  -18.7890   -6.7130 C.ar  301  6UP301      0.0093
      2  CAN      -21.2630  -17.7350   -6.9630 C.ar  301  6UP301      0.0170
      3  CAL      -22.5690  -17.7200   -6.4280 C.ar  301  6UP301      0.0891
      4  N1       -22.9640  -18.7490   -5.6720 N.pl3 301  6UP301     -0.1281
      5  CAE      -23.4460  -16.6660   -6.7050 C.ar  301  6UP301      0.0181
      6  CAD      -23.0080  -15.6150   -7.5190 C.ar  301  6UP301      0.0014
      7  CAG      -21.7250  -15.6230   -8.0730 C.ar  301  6UP301      0.0001
      8  CAM      -20.8430  -16.6720   -7.7950 C.ar  301  6UP301      0.0013
      9  CAH      -19.5510  -16.6540   -8.3360 C.ar  301  6UP301      0.0003
     10  CAF      -18.6780  -17.7170   -8.0700 C.ar  301  6UP301      0.0080
     11  CAK      -19.0850  -18.7970   -7.2630 C.ar  301  6UP301      0.0975
     12  CAJ      -18.1930  -19.8320   -6.9260 C.2   301  6UP301      0.4766
     13  N2       -18.6710  -20.9670   -6.4000 N.pl3 301  6UP301      0.2047
     14  N3       -16.8870  -19.5860   -6.9780 N.pl3 301  6UP301      0.2047
@<TRIPOS>BOND
     1     9    10   ar
     2     9     8   ar
     3     7     8   ar
     4     7     6   ar
     5    10    11   ar
     6     8     2   ar
     7     6     5   ar
     8    11    12    1
     9    11     1   ar
    10    14    12    2
    11     2     1   ar
    12     2     3   ar
    13    12    13    1
    14     5     3   ar
    15     3     4    1
