@<TRIPOS>MOLECULE
4fue_7UP_A_1.pdb
 44 47 0 0 0
SMALL
GASTEIGER

@<TRIPOS>ATOM
      1  N2        -8.8350  -21.1440    6.5210 N.pl3 301  7UP301     -0.2466
      2  C1        -9.2700  -19.9210    7.0160 C.2   301  7UP301      0.3081
      3  N1       -10.4720  -19.6210    7.2440 N.2   301  7UP301     -0.0994
      4  C2        -8.2550  -18.8350    7.3270 C.ar  301  7UP301      0.0653
      5  C11       -7.0130  -18.8150    6.7220 C.ar  301  7UP301     -0.0392
      6  C10       -6.1020  -17.7450    6.9540 C.ar  301  7UP301     -0.0170
      7  C5        -6.4740  -16.6830    7.8380 C.ar  301  7UP301     -0.0167
      8  C4        -7.7750  -16.7070    8.4550 C.ar  301  7UP301     -0.0532
      9  C3        -8.6490  -17.7510    8.2200 C.ar  301  7UP301     -0.0463
     10  C9        -4.7970  -17.7540    6.3390 C.ar  301  7UP301     -0.0529
     11  C8        -3.8940  -16.7490    6.6110 C.ar  301  7UP301     -0.0457
     12  C7        -4.2480  -15.6960    7.5340 C.ar  301  7UP301      0.0259
     13  C6        -5.5140  -15.6600    8.1380 C.ar  301  7UP301     -0.0386
     14  C12       -3.2580  -14.7210    7.8640 C.1   301  7UP301     -0.0610
     15  C13       -2.4410  -13.9240    8.1770 C.1   301  7UP301     -0.0610
     16  C14       -1.4780  -12.9850    8.6330 C.ar  301  7UP301      0.0256
     17  C22       -1.4060  -12.7530   10.0050 C.ar  301  7UP301     -0.0428
     18  C21       -0.4660  -11.8530   10.5300 C.ar  301  7UP301     -0.0406
     19  C17        0.4120  -11.1530    9.6330 C.ar  301  7UP301     -0.0303
     20  C16        0.3190  -11.3870    8.2500 C.ar  301  7UP301     -0.0559
     21  C15       -0.6200  -12.3070    7.7450 C.ar  301  7UP301     -0.0460
     22  C20       -0.3760  -11.6980   12.0370 C.3   301  7UP301     -0.0148
     23  C19        0.8030  -10.8200   12.5510 C.3   301  7UP301      0.0002
     24  N3         1.8960  -10.5960   11.5720 N.3   301  7UP301     -0.3117
     25  C18        1.4510  -10.2020   10.2060 C.3   301  7UP301      0.0215
     26  H3        -9.5020  -21.8700    6.2810 H     301  7UP301      0.2884
     27  H1        -7.8590  -21.3730    6.3660 H     301  7UP301      0.2884
     28  H2       -11.1580  -20.3470    7.0810 H     301  7UP301      0.3633
     29  H9        -6.7070  -19.5800    6.0120 H     301  7UP301      0.0632
     30  H5        -8.0610  -15.8920    9.1180 H     301  7UP301      0.0624
     31  H4        -9.6190  -17.7750    8.7140 H     301  7UP301      0.0626
     32  H8        -4.5340  -18.5650    5.6620 H     301  7UP301      0.0624
     33  H7        -2.9100  -16.7330    6.1450 H     301  7UP301      0.0630
     34  H6        -5.7490  -14.8910    8.8700 H     301  7UP301      0.0636
     35  H19       -2.0930  -13.2780   10.6660 H     301  7UP301      0.0633
     36  H11        0.9770  -10.8590    7.5620 H     301  7UP301      0.0621
     37  H10       -0.6850  -12.4930    6.6740 H     301  7UP301      0.0630
     38  H18       -1.3160  -11.2660   12.3720 H     301  7UP301      0.0326
     39  H17       -0.3420  -12.6670   12.5330 H     301  7UP301      0.0326
     40  H16        0.4290   -9.8400   12.8430 H     301  7UP301      0.0427
     41  H15        1.2000  -11.2620   13.4640 H     301  7UP301      0.0427
     42  H14        2.4860  -11.4200   11.5130 H     301  7UP301      0.1223
     43  H12        2.3230  -10.1850    9.5530 H     301  7UP301      0.0474
     44  H13        1.0990   -9.1720   10.2390 H     301  7UP301      0.0474
@<TRIPOS>BOND
     1    32    10    1
     2    29     5    1
     3    33    11    1
     4    26     1    1
     5    10    11   ar
     6    10     6   ar
     7    27     1    1
     8     1     2    1
     9    11    12   ar
    10    37    21    1
    11     5     6   ar
    12     5     4   ar
    13     6     7   ar
    14     2     3    2
    15     2     4    1
    16    28     3    1
    17     4     9   ar
    18    12    14    1
    19    12    13   ar
    20    36    20    1
    21    21    20   ar
    22    21    16   ar
    23     7    13   ar
    24     7     8   ar
    25    14    15    3
    26    13    34    1
    27    15    16    1
    28     9     8   ar
    29     9    31    1
    30    20    19   ar
    31     8    30    1
    32    16    17   ar
    33    43    25    1
    34    19    25    1
    35    19    18   ar
    36    17    18   ar
    37    17    35    1
    38    25    44    1
    39    25    24    1
    40    18    22    1
    41    42    24    1
    42    24    23    1
    43    22    38    1
    44    22    39    1
    45    22    23    1
    46    23    40    1
    47    23    41    1
