@<TRIPOS>MOLECULE
4fuf_8UP_A_1.pdb
 37 38 0 0 0
SMALL
GASTEIGER

@<TRIPOS>ATOM
      1 BR         -2.4330  -17.8930    1.7520 Br    301  8UP301     -0.0916
      2  C14       -2.4890  -17.7630    3.7690 C.3   301  8UP301      0.0064
      3  C13       -3.2240  -18.9630    4.3310 C.3   301  8UP301     -0.0090
      4  C12       -3.8050  -18.6820    5.7430 C.3   301  8UP301      0.0905
      5  O2        -4.7800  -17.6480    5.5110 O.3   301  8UP301     -0.4877
      6  C11       -5.1700  -16.9490    6.6130 C.ar  301  8UP301      0.1696
      7  C2        -4.3590  -15.9310    7.1180 C.ar  301  8UP301      0.1621
      8  O1        -3.1460  -15.7650    6.4470 O.3   301  8UP301     -0.4914
      9  C1        -2.0910  -15.0050    7.0560 C.3   301  8UP301      0.0790
     10  C10       -6.4500  -17.2380    7.2120 C.ar  301  8UP301      0.0283
     11  C5        -6.8780  -16.4410    8.3140 C.ar  301  8UP301     -0.0141
     12  C4        -6.0420  -15.4380    8.8220 C.ar  301  8UP301     -0.0503
     13  C3        -4.8150  -15.1690    8.2410 C.ar  301  8UP301     -0.0157
     14  C9        -7.2880  -18.2940    6.7490 C.ar  301  8UP301     -0.0356
     15  C8        -8.4920  -18.5370    7.3670 C.ar  301  8UP301      0.0654
     16  C15       -9.3780  -19.6790    6.9330 C.2   301  8UP301      0.3081
     17  N2        -8.8030  -20.8320    6.4140 N.pl3 301  8UP301     -0.2466
     18  N1       -10.6170  -19.4820    7.0860 N.2   301  8UP301     -0.0994
     19  C7        -8.9490  -17.6940    8.4610 C.ar  301  8UP301     -0.0463
     20  C6        -8.1630  -16.6760    8.9080 C.ar  301  8UP301     -0.0531
     21  H14       -2.9460  -16.7940    3.9560 H     301  8UP301      0.0383
     22  H13       -1.4400  -17.7230    4.0570 H     301  8UP301      0.0383
     23  H12       -4.0080  -19.2880    3.6490 H     301  8UP301      0.0306
     24  H11       -2.5420  -19.8090    4.3710 H     301  8UP301      0.0306
     25  H9        -4.2600  -19.5760    6.1650 H     301  8UP301      0.0697
     26  H10       -3.0240  -18.3700    6.4350 H     301  8UP301      0.0697
     27  H2        -1.1610  -15.0640    6.4930 H     301  8UP301      0.0660
     28  H3        -2.3420  -13.9580    7.2150 H     301  8UP301      0.0660
     29  H1        -1.9440  -15.4840    8.0220 H     301  8UP301      0.0660
     30  H5        -6.3500  -14.9040    9.7190 H     301  8UP301      0.0625
     31  H4        -4.2080  -14.3660    8.6570 H     301  8UP301      0.0655
     32  H8        -6.9850  -18.8800    5.8850 H     301  8UP301      0.0633
     33  H17       -9.3820  -21.6090    6.1120 H     301  8UP301      0.2884
     34  H15       -7.8010  -20.9560    6.3200 H     301  8UP301      0.2884
     35  H16      -11.2210  -20.2510    6.8330 H     301  8UP301      0.3633
     36  H7        -9.9150  -17.8770    8.9310 H     301  8UP301      0.0626
     37  H6        -8.4940  -16.0340    9.7230 H     301  8UP301      0.0624
@<TRIPOS>BOND
     1     1     2    1
     2    23     3    1
     3     2    21    1
     4     2    22    1
     5     2     3    1
     6     3    24    1
     7     3     4    1
     8     5     4    1
     9     5     6    1
    10     4    25    1
    11     4    26    1
    12    32    14    1
    13    33    17    1
    14    34    17    1
    15    17    16    1
    16     8     9    1
    17     8     7    1
    18    27     9    1
    19     6     7   ar
    20     6    10   ar
    21    14    10   ar
    22    14    15   ar
    23    35    18    1
    24    16    18    2
    25    16    15    1
    26     9    28    1
    27     9    29    1
    28     7    13   ar
    29    10    11   ar
    30    15    19   ar
    31    13    31    1
    32    13    12   ar
    33    11    12   ar
    34    11    20   ar
    35    19    20   ar
    36    19    36    1
    37    12    30    1
    38    20    37    1
