@<TRIPOS>MOLECULE
4fug_9UP_A_1.pdb
 18 19 0 0 0
SMALL
GASTEIGER

@<TRIPOS>ATOM
      1  CAA      -24.2190  -19.9870   -2.5970 C.3   301  9UP301      0.2574
      2  OAL      -24.0900  -19.9160   -4.0200 O.3   301  9UP301     -0.4292
      3  CAN      -23.6230  -18.7290   -4.5310 C.2   301  9UP301      0.4255
      4  OAD      -23.7000  -17.7130   -3.8280 O.2   301  9UP301     -0.2242
      5  N1       -23.0660  -18.7680   -5.7580 N.am  301  9UP301     -0.1424
      6  CAP      -22.5830  -17.7010   -6.4380 C.ar  301  9UP301      0.0767
      7  CAR      -21.2600  -17.6800   -6.9340 C.ar  301  9UP301      0.0157
      8  CAJ      -20.3850  -18.7510   -6.6880 C.ar  301  9UP301      0.0093
      9  CAF      -23.4450  -16.6380   -6.7520 C.ar  301  9UP301      0.0167
     10  CAE      -23.0000  -15.5540   -7.5310 C.ar  301  9UP301      0.0013
     11  CAH      -21.7030  -15.5610   -8.0640 C.ar  301  9UP301      0.0001
     12  CAQ      -20.8220  -16.6000   -7.7380 C.ar  301  9UP301      0.0013
     13  CAI      -19.5230  -16.6080   -8.2790 C.ar  301  9UP301      0.0003
     14  CAG      -18.6480  -17.6560   -7.9830 C.ar  301  9UP301      0.0080
     15  CAO      -19.0680  -18.7400   -7.1850 C.ar  301  9UP301      0.0975
     16  CAM      -18.1610  -19.7610   -6.8400 C.2   301  9UP301      0.4766
     17  N2       -18.5400  -20.9460   -6.3370 N.pl3 301  9UP301      0.2047
     18  N3       -16.8610  -19.5560   -6.9640 N.pl3 301  9UP301      0.2047
@<TRIPOS>BOND
     1    13    14   ar
     2    13    12   ar
     3    11    12   ar
     4    11    10   ar
     5    14    15   ar
     6    12     7   ar
     7    10     9   ar
     8    15    16    1
     9    15     8   ar
    10    18    16    2
    11     7     8   ar
    12     7     6   ar
    13    16    17    1
    14     9     6   ar
    15     6     5    1
    16     5     3   am
    17     3     2    1
    18     3     4    2
    19     2     1    1
