@<TRIPOS>MOLECULE
4fuh_1U2_A_1.pdb
 39 41 0 0 0
SMALL
GASTEIGER

@<TRIPOS>ATOM
      1  O         -1.2310  -16.1350    6.9220 O.2   301  1U2301     -0.2522
      2  C8        -1.8240  -15.0770    7.2170 C.2   301  1U2301      0.3081
      3  N4        -1.1650  -13.8700    7.4310 N.am  301  1U2301     -0.2692
      4  C9         0.2420  -13.6940    7.3030 C.ar  301  1U2301      0.0348
      5  C14        1.1230  -14.6730    7.8370 C.ar  301  1U2301     -0.0404
      6  C13        2.5010  -14.4970    7.7090 C.ar  301  1U2301     -0.0600
      7  C12        3.0090  -13.3570    7.0860 C.ar  301  1U2301     -0.0616
      8  C11        2.1370  -12.3910    6.5740 C.ar  301  1U2301     -0.0600
      9  C10        0.7470  -12.5530    6.6690 C.ar  301  1U2301     -0.0404
     10  N3        -3.2410  -14.9470    7.4030 N.am  301  1U2301     -0.2692
     11  C7        -4.1940  -15.9750    7.2370 C.ar  301  1U2301      0.0354
     12  C6        -5.4160  -15.8640    7.8660 C.ar  301  1U2301     -0.0327
     13  C15       -3.8790  -17.1190    6.3970 C.ar  301  1U2301     -0.0398
     14  C16       -4.7940  -18.1100    6.2480 C.ar  301  1U2301     -0.0523
     15  C17       -6.0710  -18.0040    6.8800 C.ar  301  1U2301     -0.0170
     16  C5        -6.3840  -16.8900    7.6710 C.ar  301  1U2301     -0.0161
     17  C4        -7.6820  -16.7890    8.2540 C.ar  301  1U2301     -0.0532
     18  C3        -8.5810  -17.7870    8.0620 C.ar  301  1U2301     -0.0463
     19  C18       -7.0280  -19.0220    6.6540 C.ar  301  1U2301     -0.0392
     20  C2        -8.2730  -18.9380    7.2210 C.ar  301  1U2301      0.0653
     21  C1        -9.3160  -20.0060    6.9270 C.2   301  1U2301      0.3081
     22  N2        -8.9200  -21.2520    6.4920 N.pl3 301  1U2301     -0.2466
     23  N1       -10.5630  -19.7540    7.1740 N.2   301  1U2301     -0.0994
     24  H8        -1.6750  -13.0370    7.7080 H     301  1U2301      0.1564
     25  H13        0.7570  -15.5460    8.3760 H     301  1U2301      0.0636
     26  H12        3.1770  -15.2570    8.0980 H     301  1U2301      0.0618
     27  H11        4.0860  -13.2190    7.0120 H     301  1U2301      0.0618
     28  H10        2.5350  -11.4960    6.0990 H     301  1U2301      0.0618
     29  H9         0.0940  -11.7890    6.2490 H     301  1U2301      0.0636
     30  H7        -3.6380  -14.0590    7.6920 H     301  1U2301      0.1564
     31  H6        -5.6860  -15.0160    8.4930 H     301  1U2301      0.0642
     32  H14       -2.9500  -17.2090    5.8370 H     301  1U2301      0.0636
     33  H15       -4.5620  -18.9930    5.6550 H     301  1U2301      0.0624
     34  H5        -7.9390  -15.9140    8.8510 H     301  1U2301      0.0624
     35  H4        -9.5280  -17.7250    8.5920 H     301  1U2301      0.0626
     36  H16       -6.7610  -19.8170    5.9640 H     301  1U2301      0.0632
     37  H3        -9.6130  -21.9620    6.2790 H     301  1U2301      0.2884
     38  H2        -7.9520  -21.5480    6.4190 H     301  1U2301      0.2884
     39  H1       -10.8150  -18.8300    7.4980 H     301  1U2301      0.3633
@<TRIPOS>BOND
     1    33    14    1
     2    32    13    1
     3    36    19    1
     4    28     8    1
     5    14    13   ar
     6    14    15   ar
     7    29     9    1
     8    37    22    1
     9    13    11   ar
    10    38    22    1
    11    22    21    1
    12     8     9   ar
    13     8     7   ar
    14    19    15   ar
    15    19    20   ar
    16     9     4   ar
    17    15    16   ar
    18     1     2    2
    19    21    23    2
    20    21    20    1
    21    27     7    1
    22     7     6   ar
    23    23    39    1
    24     2    10   am
    25     2     3   am
    26    20    18   ar
    27    11    10    1
    28    11    12   ar
    29     4     3    1
    30     4     5   ar
    31    10    30    1
    32     3    24    1
    33    16    12   ar
    34    16    17   ar
    35     6     5   ar
    36     6    26    1
    37     5    25    1
    38    12    31    1
    39    18    17   ar
    40    18    35    1
    41    17    34    1
