@<TRIPOS>MOLECULE
4fui_UI3_A_1.pdb
 24 26 0 0 0
SMALL
GASTEIGER

@<TRIPOS>ATOM
      1  C1        -4.6770  -15.3540    7.8800 C.ar  301  UI3301      0.0369
      2  C2        -5.9240  -15.5630    8.4360 C.ar  301  UI3301      0.0031
      3  C3        -6.7110  -16.7100    8.0950 C.ar  301  UI3301      0.0002
      4  C4        -6.2120  -17.6860    7.1660 C.ar  301  UI3301      0.0033
      5  C5        -4.8910  -17.4770    6.5940 C.ar  301  UI3301      0.0371
      6  C6        -4.1430  -16.3250    6.9460 C.ar  301  UI3301      0.1387
      7  C9        -8.0100  -16.8680    8.6710 C.ar  301  UI3301      0.0003
      8  C10       -8.8030  -17.9450    8.3370 C.ar  301  UI3301      0.0080
      9  C11       -8.3350  -18.9410    7.3940 C.ar  301  UI3301      0.0975
     10  C12       -7.0650  -18.8230    6.8280 C.ar  301  UI3301      0.0081
     11  C16       -9.2980  -20.0430    7.0000 C.2   301  UI3301      0.4766
     12  N17       -8.7690  -21.2160    6.4630 N.pl3 301  UI3301      0.2047
     13  N18      -10.5420  -19.8150    7.2050 N.pl3 301  UI3301      0.2047
     14  O19       -2.8700  -16.1780    6.3480 O.3   301  UI3301     -0.4714
     15  C20       -1.8960  -15.2820    6.9000 C.3   301  UI3301      0.2525
     16  C24       -4.2930  -18.4280    5.6980 C.ar  301  UI3301      0.0446
     17  C25       -3.8600  -18.1810    4.4190 C.ar  301  UI3301      0.1229
     18  N26       -3.3130  -19.3900    3.9470 N.ar  301  UI3301     -0.1297
     19  N27       -3.4150  -20.3670    4.9130 N.ar  301  UI3301     -0.1470
     20  C28       -4.0000  -19.8080    5.9730 C.ar  301  UI3301      0.1236
     21  S34       -2.5650  -19.7510    2.4720 S.O2  301  UI3301      0.0828
     22  O35       -1.1560  -19.7240    2.6870 O.2   301  UI3301     -0.1508
     23  O36       -3.1780  -20.9510    2.0580 O.2   301  UI3301     -0.1508
     24  C37       -3.0500  -18.4790    1.5090 C.3   301  UI3301      0.2042
@<TRIPOS>BOND
     1    24    21    1
     2    23    21    2
     3    21    22    2
     4    21    18    1
     5    18    17   ar
     6    18    19   ar
     7    17    16   ar
     8    19    20   ar
     9    16    20   ar
    10    16     5    1
    11    14    15    1
    12    14     6    1
    13    12    11    2
    14     5     6   ar
    15     5     4   ar
    16    10     4   ar
    17    10     9   ar
    18     6     1   ar
    19    11    13    1
    20    11     9    1
    21     4     3   ar
    22     9     8   ar
    23     1     2   ar
    24     3     2   ar
    25     3     7   ar
    26     8     7   ar
