@<TRIPOS>MOLECULE
4fuj_1U9_A_1.pdb
 44 46 0 0 0
SMALL
GASTEIGER

@<TRIPOS>ATOM
      1  O          0.3680   -9.8220    4.4190 O.3   301  1U9301     -0.3947
      2  C16        1.0130   -9.5030    5.6390 C.3   301  1U9301      0.0482
      3  C15        1.4950  -10.8610    6.2590 C.3   301  1U9301     -0.0044
      4  C14        0.4840  -11.3510    7.2510 C.ar  301  1U9301     -0.0446
      5  C13        0.3490  -10.7050    8.4980 C.ar  301  1U9301     -0.0585
      6  C12       -0.5760  -11.1820    9.4220 C.ar  301  1U9301     -0.0609
      7  C11       -1.3910  -12.2830    9.1120 C.ar  301  1U9301     -0.0546
      8  C17       -0.3300  -12.4780    6.9290 C.ar  301  1U9301     -0.0513
      9  C10       -1.2890  -12.9470    7.8550 C.ar  301  1U9301     -0.0248
     10  C9        -2.2200  -13.9920    7.3920 C.2   301  1U9301     -0.0540
     11  C8        -3.4180  -14.2810    7.9630 C.2   301  1U9301     -0.0540
     12  C7        -4.3620  -15.3630    7.5640 C.ar  301  1U9301     -0.0244
     13  C6        -5.5880  -15.4520    8.2110 C.ar  301  1U9301     -0.0469
     14  C18       -3.9920  -16.3890    6.5850 C.ar  301  1U9301     -0.0540
     15  C19       -4.8540  -17.4270    6.3090 C.ar  301  1U9301     -0.0535
     16  C20       -6.1530  -17.4890    6.9660 C.ar  301  1U9301     -0.0170
     17  C5        -6.5130  -16.4770    7.9100 C.ar  301  1U9301     -0.0173
     18  C4        -7.8050  -16.5370    8.5730 C.ar  301  1U9301     -0.0532
     19  C3        -8.6560  -17.5800    8.3250 C.ar  301  1U9301     -0.0463
     20  C21       -7.0660  -18.5490    6.6980 C.ar  301  1U9301     -0.0392
     21  C2        -8.2820  -18.6100    7.3520 C.ar  301  1U9301      0.0653
     22  C1        -9.2940  -19.6900    7.0180 C.2   301  1U9301      0.3081
     23  N2        -8.8730  -20.9590    6.6200 N.pl3 301  1U9301     -0.2466
     24  N1       -10.4820  -19.3520    7.1860 N.2   301  1U9301     -0.0994
     25  H16       -0.6100   -9.8110    4.5880 H     301  1U9301      0.2094
     26  H14        1.8640   -8.8460    5.4700 H     301  1U9301      0.0560
     27  H15        0.3450   -8.9600    6.3060 H     301  1U9301      0.0560
     28  H13        1.6700  -11.5940    5.4740 H     301  1U9301      0.0335
     29  H12        2.4640  -10.7430    6.7410 H     301  1U9301      0.0335
     30  H11        0.9540   -9.8320    8.7380 H     301  1U9301      0.0620
     31  H10       -0.6700  -10.6950   10.3920 H     301  1U9301      0.0618
     32  H9        -2.0940  -12.6340    9.8660 H     301  1U9301      0.0623
     33  H17       -0.2050  -12.9720    5.9670 H     301  1U9301      0.0626
     34  H8        -1.8750  -14.5410    6.5170 H     301  1U9301      0.0624
     35  H7        -3.7690  -13.6900    8.8070 H     301  1U9301      0.0624
     36  H6        -5.8360  -14.7590    9.0120 H     301  1U9301      0.0629
     37  H18       -3.0340  -16.3480    6.0710 H     301  1U9301      0.0624
     38  H19       -4.5770  -18.2080    5.6030 H     301  1U9301      0.0624
     39  H5        -8.0840  -15.7480    9.2690 H     301  1U9301      0.0624
     40  H4        -9.6000  -17.6470    8.8630 H     301  1U9301      0.0626
     41  H20       -6.8050  -19.2780    5.9350 H     301  1U9301      0.0632
     42  H3        -9.5420  -21.6860    6.3870 H     301  1U9301      0.2884
     43  H2        -7.8920  -21.2130    6.5640 H     301  1U9301      0.2884
     44  H1       -11.1800  -20.0710    7.0490 H     301  1U9301      0.3633
@<TRIPOS>BOND
     1     1    25    1
     2     1     2    1
     3    26     2    1
     4    28     3    1
     5    38    15    1
     6     2     3    1
     7     2    27    1
     8    41    20    1
     9    33     8    1
    10    37    14    1
    11     3    29    1
    12     3     4    1
    13    15    14   ar
    14    15    16   ar
    15    42    23    1
    16    34    10    1
    17    43    23    1
    18    14    12   ar
    19    23    22    1
    20    20    16   ar
    21    20    21   ar
    22     8     4   ar
    23     8     9   ar
    24    16    17   ar
    25    22    24    2
    26    22    21    1
    27    44    24    1
    28     4     5   ar
    29    21    19   ar
    30    10     9    1
    31    10    11    2
    32    12    11    1
    33    12    13   ar
    34     9     7   ar
    35    17    13   ar
    36    17    18   ar
    37    11    35    1
    38    13    36    1
    39    19    18   ar
    40    19    40    1
    41     5    30    1
    42     5     6   ar
    43    18    39    1
    44     7     6   ar
    45     7    32    1
    46     6    31    1
