@<TRIPOS>MOLECULE
4ful_0VU_A_1.pdb
 31 34 0 0 0
SMALL
GASTEIGER

@<TRIPOS>ATOM
      1  C1        41.2210   13.1650   30.7850 C.ar  1201  0VU1201     0.0002
      2  C2        42.3430   12.6590   30.0980 C.ar  1201  0VU1201     0.0026
      3  C3        43.6690   13.0360   30.4530 C.ar  1201  0VU1201     0.0307
      4  C4        43.8050   13.9410   31.5510 C.ar  1201  0VU1201     0.0071
      5  C5        42.6720   14.4800   32.2130 C.ar  1201  0VU1201     0.0537
      6  C6        41.3810   14.0650   31.8430 C.ar  1201  0VU1201     0.0045
      7  C7        42.8250   15.4560   33.3370 C.2   1201  0VU1201     0.2490
      8  N1        43.4480   16.7220   33.1460 N.am  1201  0VU1201    -0.2761
      9  N2        47.1590   11.5780   28.5050 N.2   1201  0VU1201    -0.1683
     10  N3        46.0470   13.0640   29.9840 N.2   1201  0VU1201    -0.3361
     11  N4        48.3910   13.2890   29.6830 N.pl3 1201  0VU1201    -0.1358
     12  C8        43.7000   17.3840   31.8410 C.3   1201  0VU1201     0.0937
     13  O1        42.3460   15.0710   34.4200 O.2   1201  0VU1201    -0.2699
     14  C9        45.0090   18.1830   31.8200 C.3   1201  0VU1201     0.0216
     15  C10       45.1440   19.1530   33.0100 C.3   1201  0VU1201     0.0035
     16  C11       44.6460   18.6000   34.3610 C.3   1201  0VU1201     0.0216
     17  C12       43.4010   17.7010   34.2580 C.3   1201  0VU1201     0.0937
     18  C13       44.8420   12.4760   29.7260 C.2   1201  0VU1201     0.1457
     19  C14       44.7740   11.4070   28.8290 C.2   1201  0VU1201     0.0545
     20  C15       45.9620   11.0060   28.2380 C.2   1201  0VU1201     0.1144
     21  C16       47.1840   12.6170   29.3690 C.1   1201  0VU1201     0.1696
     22  C17       48.6900   14.5490   30.2370 C.ar  1201  0VU1201     0.0827
     23  C18       49.9730   15.1110   29.9920 C.ar  1201  0VU1201     0.0187
     24  C19       50.3390   16.3620   30.5260 C.ar  1201  0VU1201     0.0214
     25  C20       49.4130   17.0680   31.3110 C.ar  1201  0VU1201     0.1251
     26  C21       48.1580   16.5190   31.5750 C.ar  1201  0VU1201     0.0214
     27  C22       47.8090   15.2670   31.0580 C.ar  1201  0VU1201     0.0187
     28  S1        49.7540   18.6680   32.0110 S.O2  1201  0VU1201     0.0935
     29  O2        49.9830   18.4230   33.4330 O.2   1201  0VU1201    -0.1503
     30  O3        48.6810   19.5250   31.5090 O.2   1201  0VU1201    -0.1503
     31  N5        51.2090   19.1130   31.2390 N.3   1201  0VU1201     0.0392
@<TRIPOS>BOND
     1    20     9    1
     2    20    19    2
     3     9    21    2
     4    19    18    1
     5    21    11    1
     6    21    10    2
     7    11    22    1
     8    18    10    2
     9    18     3    1
    10    23    22   ar
    11    23    24   ar
    12     2     3   ar
    13     2     1   ar
    14    22    27   ar
    15     3     4   ar
    16    24    25   ar
    17     1     6   ar
    18    27    26   ar
    19    31    28    1
    20    25    26   ar
    21    25    28    1
    22    30    28    2
    23     4     5   ar
    24    14    12    1
    25    14    15    1
    26    12     8    1
    27     6     5   ar
    28    28    29    2
    29     5     7    1
    30    15    16    1
    31     8     7   am
    32     8    17    1
    33     7    13    2
    34    17    16    1
