@<TRIPOS>MOLECULE
4fus_CBI_A_1.pdb
 23 24 0 0 0
SMALL
GASTEIGER

@<TRIPOS>ATOM
      1  C1        41.8810   30.5390   48.4720 C.3   802  CBI802      0.2695
      2  C2        40.6890   30.3860   47.5670 C.3   802  CBI802      0.2406
      3  C3        40.3710   31.7300   46.9670 C.3   802  CBI802      0.2198
      4  C4        40.2070   32.7820   48.0690 C.3   802  CBI802      0.2144
      5  C5        41.4980   32.8420   48.8860 C.3   802  CBI802      0.1835
      6  C6        41.4310   33.8800   50.0370 C.3   802  CBI802      0.2142
      7  O2        41.0910   29.4520   46.5980 O.3   802  CBI802     -0.2149
      8  O3        39.1890   31.5080   46.2350 O.3   802  CBI802     -0.2174
      9  O4        39.9760   34.0700   47.5030 O.3   802  CBI802     -0.2176
     10  O5        41.7620   31.5630   49.4250 O.3   802  CBI802     -0.3256
     11  O6        40.3030   33.6590   50.8950 O.3   802  CBI802     -0.2176
     12  C1'       44.9980   27.3700   51.1920 C.3   802  CBI802      0.3023
     13  C2'       44.6330   28.7010   51.8290 C.3   802  CBI802      0.2433
     14  C3'       43.3060   29.0500   51.2300 C.3   802  CBI802      0.2168
     15  C4'       43.4720   29.1960   49.7490 C.3   802  CBI802      0.1804
     16  C5'       44.1860   27.9750   49.1720 C.3   802  CBI802      0.1804
     17  C6'       44.5240   28.1660   47.7100 C.3   802  CBI802      0.2141
     18  O1'       46.1110   26.8720   51.8230 O.3   802  CBI802     -0.1869
     19  O2'       44.3670   28.3760   53.2050 O.3   802  CBI802     -0.2148
     20  O3'       42.8450   30.2840   51.7790 O.3   802  CBI802     -0.2175
     21  O4'       42.1730   29.3000   49.1610 O.3   802  CBI802     -0.3257
     22  O5'       45.4000   27.6610   49.8530 O.3   802  CBI802     -0.3237
     23  O6'       45.3410   29.3060   47.4300 O.3   802  CBI802     -0.2176
@<TRIPOS>BOND
     1     8     3    1
     2     7     2    1
     3     3     2    1
     4     3     4    1
     5    23    17    1
     6     9     4    1
     7     2     1    1
     8    17    16    1
     9     4     5    1
    10     1    21    1
    11     1    10    1
    12     5    10    1
    13     5     6    1
    14    21    15    1
    15    16    15    1
    16    16    22    1
    17    15    14    1
    18    22    12    1
    19     6    11    1
    20    12    18    1
    21    12    13    1
    22    14    20    1
    23    14    13    1
    24    13    19    1
