@<TRIPOS>MOLECULE
4fut_ATP_A_1.pdb
 31 33 0 0 0
SMALL
GASTEIGER

@<TRIPOS>ATOM
      1  PG        41.1380  -50.4030   -4.5610 P.3   608  ATP608      0.5373
      2  O1G       41.5120  -51.8620   -4.7270 O.3   608  ATP608     -0.1143
      3  O2G       42.1690  -49.5530   -3.8660 O.3   608  ATP608     -0.1143
      4  O3G       40.7270  -49.7560   -5.8540 O.2   608  ATP608     -0.2221
      5  PB        38.3210  -50.6930   -3.9760 P.3   608  ATP608      0.2277
      6  O1B       38.2620  -51.1420   -5.4210 O.2   608  ATP608     -0.5168
      7  O2B       37.5640  -51.4860   -2.9620 O.3   608  ATP608     -0.4368
      8  O3B       39.8630  -50.4480   -3.5600 O.3   608  ATP608     -0.2258
      9  PA        36.2620  -48.6620   -4.1620 P.3   608  ATP608      0.2189
     10  O1A       36.3220  -47.7100   -5.3330 O.2   608  ATP608     -0.5170
     11  O2A       35.6440  -48.1920   -2.8660 O.3   608  ATP608     -0.4371
     12  O3A       37.7770  -49.1580   -3.8860 O.3   608  ATP608     -0.2700
     13  O5'       35.4250  -49.9570   -4.5560 O.3   608  ATP608     -0.3112
     14  C5'       34.8190  -50.1020   -5.8410 C.3   608  ATP608      0.1813
     15  C4'       34.7200  -51.6070   -6.0480 C.3   608  ATP608      0.1821
     16  O4'       33.7980  -52.1530   -5.1160 O.3   608  ATP608     -0.3135
     17  C3'       34.1810  -52.0050   -7.4090 C.3   608  ATP608      0.2184
     18  O3'       35.2490  -52.0040   -8.3540 O.3   608  ATP608     -0.2174
     19  C2'       33.5670  -53.3550   -7.1240 C.3   608  ATP608      0.2570
     20  O2'       34.5630  -54.3870   -7.0940 O.3   608  ATP608     -0.2130
     21  C1'       33.0560  -53.2140   -5.7040 C.3   608  ATP608      0.3186
     22  N9        31.6160  -52.8600   -5.7030 N.pl3 608  ATP608     -0.1439
     23  C8        31.0990  -51.6230   -5.5430 C.3   608  ATP608      0.3377
     24  N7        29.7490  -51.6500   -5.5910 N.2   608  ATP608     -0.2095
     25  C5        29.3790  -52.9290   -5.7930 C.2   608  ATP608      0.2526
     26  C6        28.1060  -53.6580   -5.9550 C.2   608  ATP608      0.4393
     27  N6        26.9050  -53.0260   -5.8930 N.pl3 608  ATP608      0.2180
     28  N1        28.1740  -54.9930   -6.1540 N.2   608  ATP608      0.0021
     29  C2        29.3550  -55.6410   -6.2080 C.3   608  ATP608      0.5254
     30  N3        30.5440  -55.0440   -6.0830 N.2   608  ATP608     -0.0055
     31  C4        30.6190  -53.7170   -5.8670 C.2   608  ATP608      0.3518
@<TRIPOS>BOND
     1    18    17    1
     2    17    19    1
     3    17    15    1
     4    19    20    1
     5    19    21    1
     6    29    28    1
     7    29    30    1
     8    28    26    2
     9    30    31    2
    10    15    14    1
    11    15    16    1
    12    26    27    1
    13    26    25    1
    14    31    25    1
    15    31    22    1
    16     4     1    2
    17    14    13    1
    18    25    24    2
    19    21    22    1
    20    21    16    1
    21    22    23    1
    22    24    23    1
    23     6     5    2
    24    10     9    2
    25     2     1    1
    26     1     3    1
    27     1     8    1
    28    13     9    1
    29     9    12    1
    30     9    11    1
    31     5    12    1
    32     5     8    1
    33     5     7    1
