@<TRIPOS>MOLECULE
4fux_E75_A_1.pdb
 48 51 0 0 0
SMALL
GASTEIGER

@<TRIPOS>ATOM
      1  O2        22.5340   10.0000   11.1940 O.3   401  E75401     -0.3918
      2  C10       23.6450    9.6190   12.0110 C.3   401  E75401      0.0554
      3  C9        24.1270    8.2520   11.5850 C.3   401  E75401     -0.0252
      4  C8        23.0930    7.1740   11.9030 C.3   401  E75401     -0.0315
      5  C11       23.2530    9.6290   13.4730 C.3   401  E75401     -0.0252
      6  C12       23.4360    8.2580   14.1270 C.3   401  E75401     -0.0315
      7  C7        22.7080    7.1670   13.3700 C.3   401  E75401      0.0318
      8  N4        22.9760    5.8610   13.9750 N.pl3 401  E75401     -0.2667
      9  C4        22.1820    5.2800   14.8880 C.1   401  E75401      0.1978
     10  N2        21.1230    5.9940   15.2840 N.2   401  E75401     -0.3326
     11  N3        22.4040    3.9930   15.1920 N.2   401  E75401     -0.3411
     12  C5        21.4270    3.3850   15.8860 C.2   401  E75401      0.0806
     13  C6        20.2630    4.0050   16.3000 C.3   401  E75401      0.0767
     14  C3        20.1670    5.3480   15.9630 C.2   401  E75401      0.1284
     15  C2        18.9850    6.2080   16.2370 C.ar  401  E75401      0.0791
     16  C13       18.5090    7.2280   15.4760 C.ar  401  E75401      0.1447
     17  C14       18.9440    7.8610   14.2070 C.3   401  E75401     -0.0030
     18  O1        17.4120    7.7540   16.0550 O.2   401  E75401     -0.3586
     19  C1        18.0840    6.1560   17.3560 C.ar  401  E75401      0.1235
     20  N1        17.1490    7.0550   17.2620 N.ar  401  E75401     -0.0774
     21  C15       18.1040    5.2600   18.5270 C.ar  401  E75401      0.0043
     22  C20       16.9650    4.5510   18.8950 C.ar  401  E75401     -0.0524
     23  C19       17.0110    3.6510   19.9460 C.ar  401  E75401     -0.0611
     24  C18       18.1880    3.4410   20.6290 C.ar  401  E75401     -0.0617
     25  C17       19.3170    4.1440   20.2790 C.ar  401  E75401     -0.0611
     26  C16       19.2790    5.0560   19.2390 C.ar  401  E75401     -0.0524
     27  H10       22.4760   10.9900   11.2370 H     401  E75401      0.2098
     28  H9        24.4490   10.3400   11.8700 H     401  E75401      0.0593
     29  H8        24.2930    8.2780   10.5110 H     401  E75401      0.0291
     30  H7        25.1000    8.0170   12.0130 H     401  E75401      0.0291
     31  H6        22.2090    7.3360   11.2880 H     401  E75401      0.0284
     32  H5        23.4570    6.1990   11.5840 H     401  E75401      0.0284
     33  H12       22.2170    9.9510   13.5670 H     401  E75401      0.0291
     34  H11       23.8330   10.3800   14.0080 H     401  E75401      0.0291
     35  H14       24.4920    8.0290   14.2690 H     401  E75401      0.0284
     36  H13       23.0400    8.3130   15.1390 H     401  E75401      0.0284
     37  H4        21.6480    7.4080   13.4120 H     401  E75401      0.0505
     38  H3        23.8250    5.3760   13.7060 H     401  E75401      0.1596
     39  H1        21.5990    2.3280   16.0830 H     401  E75401      0.0939
     40  H2        19.4780    3.4700   16.8300 H     401  E75401      0.0454
     41  H16       19.2800    7.1080   13.4960 H     401  E75401      0.0309
     42  H15       18.1530    8.4400   13.7330 H     401  E75401      0.0309
     43  H17       19.7830    8.5300   14.3910 H     401  E75401      0.0309
     44  H22       16.0290    4.7040   18.3590 H     401  E75401      0.0624
     45  H21       16.1070    3.1140   20.2300 H     401  E75401      0.0618
     46  H20       18.2380    2.7060   21.4280 H     401  E75401      0.0618
     47  H19       20.2390    3.9840   20.8310 H     401  E75401      0.0618
     48  H18       20.1730    5.6210   18.9780 H     401  E75401      0.0624
@<TRIPOS>BOND
     1    29     3    1
     2     1    27    1
     3     1     2    1
     4    31     4    1
     5    32     4    1
     6     3     4    1
     7     3     2    1
     8     3    30    1
     9    28     2    1
    10     4     7    1
    11     2     5    1
    12     7    37    1
    13     7     8    1
    14     7     6    1
    15     5    33    1
    16     5    34    1
    17     5     6    1
    18    41    17    1
    19    38     8    1
    20    42    17    1
    21     8     9    1
    22     6    35    1
    23     6    36    1
    24    17    43    1
    25    17    16    1
    26     9    11    2
    27     9    10    2
    28    11    12    2
    29    10    14    2
    30    16    18   ar
    31    16    15   ar
    32    12    39    1
    33    12    13    1
    34    14    15    1
    35    14    13    1
    36    18    20   ar
    37    15    19   ar
    38    13    40    1
    39    20    19   ar
    40    19    21    1
    41    44    22    1
    42    21    22   ar
    43    21    26   ar
    44    22    23   ar
    45    48    26    1
    46    26    25   ar
    47    23    45    1
    48    23    24   ar
    49    25    24   ar
    50    25    47    1
    51    24    46    1
