@<TRIPOS>MOLECULE
4fuy_EK2_A_1.pdb
 42 45 0 0 0
SMALL
GASTEIGER

@<TRIPOS>ATOM
      1  O1        22.9530    5.0550   14.7700 O.2   401  EK2401     -0.2684
      2  C14       22.0870    5.8280   14.3890 C.2   401  EK2401      0.2630
      3  N4        22.2490    6.6260   13.2970 N.am  401  EK2401     -0.2920
      4  C18       23.5570    6.6020   12.6210 C.3   401  EK2401      0.0385
      5  C17       23.7250    7.8150   11.7410 C.3   401  EK2401      0.0635
      6  O2        22.7500    7.8700   10.6980 O.3   401  EK2401     -0.3767
      7  C16       21.4450    7.5010   11.1640 C.3   401  EK2401      0.0635
      8  C15       21.3160    7.5730   12.6650 C.3   401  EK2401      0.0385
      9  C12       20.7450    5.7600   15.0400 C.ar  401  EK2401      0.1026
     10  C11       19.8230    6.7600   15.2700 C.ar  401  EK2401     -0.0227
     11  N3        20.2650    4.5630   15.5280 N.ar  401  EK2401     -0.3565
     12  C13       19.0330    4.8110   16.0330 C.ar  401  EK2401      0.0115
     13  C10       18.6980    6.1410   15.8990 C.ar  401  EK2401      0.0184
     14  C9        17.4870    6.7590   16.2510 C.ar  401  EK2401      0.0749
     15  N2        16.8610    7.7040   15.5150 N.ar  401  EK2401     -0.2763
     16  N1        15.6460    8.0580   16.0140 N.ar  401  EK2401     -0.1811
     17  C8        15.4820    7.3180   17.0980 C.ar  401  EK2401      0.0575
     18  C7        16.5510    6.4660   17.4030 C.ar  401  EK2401      0.0273
     19  C3        16.7160    5.3740   18.3890 C.ar  401  EK2401     -0.0116
     20  C2        15.6130    4.6590   18.8420 C.ar  401  EK2401     -0.0355
     21  C4        17.9660    5.1530   18.9690 C.ar  401  EK2401     -0.0355
     22  C5        18.0910    4.1820   19.9390 C.ar  401  EK2401      0.0429
     23 CL2        19.6810    3.8550   20.5870 Cl    401  EK2401     -0.0835
     24  C6        17.0200    3.4480   20.3870 C.ar  401  EK2401     -0.0250
     25  C1        15.7820    3.7140   19.8350 C.ar  401  EK2401      0.0429
     26 CL1        14.3840    2.8550   20.4250 Cl    401  EK2401     -0.0835
     27  H16       23.7200    5.7290   11.9910 H     401  EK2401      0.0487
     28  H15       24.4280    6.6360   13.2730 H     401  EK2401      0.0487
     29  H14       24.6480    7.9600   11.1810 H     401  EK2401      0.0575
     30  H13       23.6260    8.7290   12.3250 H     401  EK2401      0.0575
     31  H11       20.7270    8.2020   10.7420 H     401  EK2401      0.0575
     32  H12       21.2090    6.5180   10.7590 H     401  EK2401      0.0575
     33  H10       20.3620    7.0830   12.8440 H     401  EK2401      0.0487
     34  H9        21.3230    8.5470   13.1530 H     401  EK2401      0.0487
     35  H7        19.9840    7.8110   15.0360 H     401  EK2401      0.0647
     36  H2        20.8490    3.8140   15.8790 H     401  EK2401      0.1655
     37  H8        18.4590    3.9920   16.4660 H     401  EK2401      0.0813
     38  H1        16.7360    7.3790   14.5610 H     401  EK2401      0.1889
     39  H6        14.5620    7.4090   17.6740 H     401  EK2401      0.0854
     40  H3        14.6180    4.8180   18.4310 H     401  EK2401      0.0638
     41  H4        18.7960    5.7840   18.6710 H     401  EK2401      0.0638
     42  H5        17.1590    2.6660   21.1340 H     401  EK2401      0.0647
@<TRIPOS>BOND
     1     6     7    1
     2     6     5    1
     3    31     7    1
     4    32     7    1
     5     7     8    1
     6    29     5    1
     7     5    30    1
     8     5     4    1
     9    27     4    1
    10     4    28    1
    11     4     3    1
    12     8    33    1
    13     8    34    1
    14     8     3    1
    15     3     2   am
    16     2     1    2
    17     2     9    1
    18    38    15    1
    19    35    10    1
    20     9    10   ar
    21     9    11   ar
    22    10    13   ar
    23    15    16   ar
    24    15    14   ar
    25    11    36    1
    26    11    12   ar
    27    13    12   ar
    28    13    14    1
    29    16    17   ar
    30    12    37    1
    31    14    18   ar
    32    17    18   ar
    33    17    39    1
    34    18    19    1
    35    19    20   ar
    36    19    21   ar
    37    40    20    1
    38    41    21    1
    39    20    25   ar
    40    21    22   ar
    41    25    24   ar
    42    25    26    1
    43    22    24   ar
    44    22    23    1
    45    24    42    1
