@<TRIPOS>MOLECULE
4fv0_EK3_A_1.pdb
 46 49 0 0 0
SMALL
GASTEIGER

@<TRIPOS>ATOM
      1  F         19.9820   11.5800   12.2640 F     401  EK3401     -0.2055
      2  C1        19.6570   10.5600   13.1030 C.ar  401  EK3401      0.1234
      3  C6        19.4580    9.3160   12.5710 C.ar  401  EK3401     -0.0258
      4  C5        19.1490    8.2760   13.4310 C.ar  401  EK3401     -0.0498
      5  C4        19.0310    8.4950   14.8000 C.ar  401  EK3401      0.0028
      6  C3        19.2430    9.7800   15.2920 C.ar  401  EK3401     -0.0498
      7  C2        19.5590   10.8230   14.4410 C.ar  401  EK3401     -0.0258
      8  C7        18.6530    7.3960   15.7140 C.ar  401  EK3401      0.0999
      9  C9        19.3570    6.1620   16.1440 C.ar  401  EK3401      0.0241
     10  C8        18.4920    5.6170   17.0710 C.ar  401  EK3401      0.0304
     11  N2        17.4160    6.3980   17.1630 N.ar  401  EK3401     -0.2836
     12  N1        17.4820    7.4790   16.3540 N.ar  401  EK3401     -0.1733
     13  C10       20.6440    5.5430   15.7300 C.2   401  EK3401     -0.0221
     14  C14       20.8940    4.1920   15.9480 C.2   401  EK3401     -0.0271
     15  C13       22.0870    3.6560   15.5020 C.2   401  EK3401      0.0801
     16  N3        23.0380    4.3700   14.8810 N.2   401  EK3401     -0.4006
     17  C12       22.7970    5.6820   14.6790 C.2   401  EK3401      0.1553
     18  C11       21.6130    6.3050   15.0830 C.3   401  EK3401      0.0664
     19  N4        23.8700    6.3930   14.1780 N.pl3 401  EK3401     -0.3195
     20  C15       24.0400    7.2000   12.9560 C.3   401  EK3401      0.0226
     21  C20       22.7930    7.2140   12.0710 C.3   401  EK3401     -0.0345
     22  C19       22.6430    8.5450   11.3310 C.3   401  EK3401     -0.0514
     23  C18       23.9880    9.1070   10.8940 C.3   401  EK3401     -0.0529
     24  C17       24.8880    9.3980   12.0850 C.3   401  EK3401     -0.0514
     25  C16       24.4650    8.6090   13.3190 C.3   401  EK3401     -0.0345
     26  H5        19.5540    9.1440   11.5010 H     401  EK3401      0.0646
     27  H4        19.0000    7.2770   13.0240 H     401  EK3401      0.0625
     28  H3        19.1430    9.9750   16.3570 H     401  EK3401      0.0625
     29  H2        19.7250   11.8260   14.8310 H     401  EK3401      0.0646
     30  H6        18.6160    4.7130   17.6660 H     401  EK3401      0.0830
     31  H1        16.5990    6.2660   17.7500 H     401  EK3401      0.1882
     32  H9        20.1740    3.5440   16.4450 H     401  EK3401      0.0646
     33  H8        22.3120    2.5970   15.6030 H     401  EK3401      0.0970
     34  H7        21.4420    7.3700   14.9350 H     401  EK3401      0.0447
     35  H10       24.6160    6.5300   14.8500 H     401  EK3401      0.1484
     36  H11       24.8400    6.7610   12.3630 H     401  EK3401      0.0498
     37  H20       22.8630    6.4090   11.3410 H     401  EK3401      0.0283
     38  H21       21.8570    7.0010   12.5830 H     401  EK3401      0.0283
     39  H19       21.9930    8.4100   10.4680 H     401  EK3401      0.0266
     40  H18       22.1190    9.2650   11.9570 H     401  EK3401      0.0266
     41  H17       24.4920    8.4330   10.2050 H     401  EK3401      0.0265
     42  H16       23.8470   10.0190   10.3160 H     401  EK3401      0.0265
     43  H15       25.9330    9.2180   11.8430 H     401  EK3401      0.0266
     44  H14       24.8630   10.4640   12.3070 H     401  EK3401      0.0266
     45  H13       23.6750    9.1470   13.8360 H     401  EK3401      0.0283
     46  H12       25.2850    8.5950   14.0360 H     401  EK3401      0.0283
@<TRIPOS>BOND
     1    41    23    1
     2    42    23    1
     3    39    22    1
     4    23    22    1
     5    23    24    1
     6    22    40    1
     7    22    21    1
     8    37    21    1
     9    26     3    1
    10    43    24    1
    11    21    38    1
    12    21    20    1
    13    24    44    1
    14    24    25    1
    15     1     2    1
    16    36    20    1
    17     3     2   ar
    18     3     4   ar
    19    20    25    1
    20    20    19    1
    21    27     4    1
    22     2     7   ar
    23    25    45    1
    24    25    46    1
    25     4     5   ar
    26    19    17    1
    27    19    35    1
    28     7    29    1
    29     7     6   ar
    30    17    16    2
    31    17    18    1
    32     5     6   ar
    33     5     8    1
    34    16    15    2
    35    34    18    1
    36    18    13    1
    37     6    28    1
    38    15    33    1
    39    15    14    1
    40     8     9   ar
    41     8    12   ar
    42    13    14    2
    43    13     9    1
    44    14    32    1
    45     9    10   ar
    46    12    11   ar
    47    10    11   ar
    48    10    30    1
    49    11    31    1
