@<TRIPOS>MOLECULE
4fv2_EK5_A_1.pdb
 49 53 0 0 0
SMALL
GASTEIGER

@<TRIPOS>ATOM
      1  O1        15.0970    3.7310   17.9030 O.2   401  EK5401     -0.2686
      2  C14       15.7910    4.3180   17.0730 C.2   401  EK5401      0.2606
      3  N4        15.2830    5.1670   16.1770 N.am  401  EK5401     -0.3060
      4  C15       13.9150    5.6590   16.2420 C.3   401  EK5401      0.0372
      5  C16       13.6820    6.6870   17.3210 C.ar  401  EK5401     -0.0298
      6  C23       14.6710    7.6150   17.6690 C.ar  401  EK5401     -0.0536
      7  C22       14.4520    8.5770   18.6440 C.ar  401  EK5401     -0.0194
      8  C21       13.2140    8.6120   19.2680 C.ar  401  EK5401      0.1238
      9  O2        12.7640    9.4970   20.2200 O.3   401  EK5401     -0.4914
     10  C20       11.3970    9.1600   20.5920 C.3   401  EK5401      0.0937
     11  C19       10.9580    7.9820   19.7310 C.3   401  EK5401      0.0101
     12  C18       12.2170    7.7090   18.9510 C.ar  401  EK5401     -0.0022
     13  C17       12.4590    6.7450   17.9850 C.ar  401  EK5401     -0.0503
     14  C12       17.2460    4.0790   16.9950 C.ar  401  EK5401      0.1024
     15  C11       18.1990    4.5710   16.1390 C.ar  401  EK5401     -0.0227
     16  N3        17.8380    3.1890   17.8590 N.ar  401  EK5401     -0.3565
     17  C13       19.1590    3.1190   17.5550 C.ar  401  EK5401      0.0115
     18  C10       19.4330    3.9350   16.4740 C.ar  401  EK5401      0.0184
     19  C9        20.6340    4.2150   15.8720 C.ar  401  EK5401      0.0749
     20  N2        21.7410    3.4580   16.0270 N.ar  401  EK5401     -0.2763
     21  N1        22.8470    3.9440   15.3910 N.ar  401  EK5401     -0.1811
     22  C8        22.4590    5.0950   14.8550 C.ar  401  EK5401      0.0575
     23  C7        21.1010    5.3710   15.0940 C.ar  401  EK5401      0.0273
     24  C3        20.4320    6.6340   14.6840 C.ar  401  EK5401     -0.0130
     25  C2        19.6390    7.3310   15.5930 C.ar  401  EK5401     -0.0356
     26  C4        20.5610    7.1230   13.3880 C.ar  401  EK5401     -0.0538
     27  C5        19.9040    8.2850   13.0100 C.ar  401  EK5401     -0.0598
     28  C6        19.0950    8.9660   13.9110 C.ar  401  EK5401     -0.0434
     29  C1        18.9720    8.4670   15.1890 C.ar  401  EK5401      0.0416
     30 CL         17.9000    9.2610   16.3110 Cl    401  EK5401     -0.0835
     31  H10       15.8060    5.5070   15.3770 H     401  EK5401      0.1494
     32  H12       13.6100    6.0540   15.2730 H     401  EK5401      0.0512
     33  H11       13.2360    4.8310   16.4340 H     401  EK5401      0.0512
     34  H19       15.6390    7.5960   17.1690 H     401  EK5401      0.0622
     35  H18       15.2220    9.2970   18.9200 H     401  EK5401      0.0654
     36  H17       10.7910   10.0480   20.4320 H     401  EK5401      0.0700
     37  H16       11.4150    8.9460   21.6590 H     401  EK5401      0.0700
     38  H15       10.1310    8.2420   19.0730 H     401  EK5401      0.0347
     39  H14       10.6270    7.1250   20.3170 H     401  EK5401      0.0347
     40  H13       11.6720    6.0290   17.7520 H     401  EK5401      0.0625
     41  H8        18.0410    5.2680   15.3180 H     401  EK5401      0.0647
     42  H2        17.4320    2.8490   18.7230 H     401  EK5401      0.1655
     43  H9        19.8550    2.4970   18.1170 H     401  EK5401      0.0813
     44  H1        21.7420    2.5010   16.3680 H     401  EK5401      0.1889
     45  H7        23.1530    5.7420   14.3210 H     401  EK5401      0.0854
     46  H3        19.5250    6.9750   16.6140 H     401  EK5401      0.0638
     47  H4        21.1760    6.5800   12.6710 H     401  EK5401      0.0624
     48  H5        20.0220    8.6750   12.0000 H     401  EK5401      0.0618
     49  H6        18.5680    9.8710   13.6160 H     401  EK5401      0.0632
@<TRIPOS>BOND
     1    48    27    1
     2    47    26    1
     3    27    26   ar
     4    27    28   ar
     5    26    24   ar
     6    49    28    1
     7    28    29   ar
     8    45    22    1
     9    24    23    1
    10    24    25   ar
    11    22    23   ar
    12    22    21   ar
    13    23    19   ar
    14    29    25   ar
    15    29    30    1
    16    32     4    1
    17    41    15    1
    18    31     3    1
    19    21    20   ar
    20    25    46    1
    21    19    20   ar
    22    19    18    1
    23    20    44    1
    24    15    18   ar
    25    15    14   ar
    26     3     4    1
    27     3     2   am
    28     4    33    1
    29     4     5    1
    30    18    17   ar
    31    14     2    1
    32    14    16   ar
    33     2     1    2
    34    34     6    1
    35     5     6   ar
    36     5    13   ar
    37    17    16   ar
    38    17    43    1
    39     6     7   ar
    40    40    13    1
    41    16    42    1
    42    13    12   ar
    43     7    35    1
    44     7     8   ar
    45    12     8   ar
    46    12    11    1
    47    38    11    1
    48     8     9    1
    49    11    39    1
    50    11    10    1
    51     9    10    1
    52    36    10    1
    53    10    37    1
