@<TRIPOS>MOLECULE
4fv3_EK6_A_1.pdb
 39 42 0 0 0
SMALL
GASTEIGER

@<TRIPOS>ATOM
      1 CL2        17.6950    9.4760   16.6650 Cl    401  EK6401     -0.0825
      2  C27       18.7150    8.6920   15.4950 C.ar  401  EK6401      0.0548
      3  C6        18.8760    9.2050   14.1680 C.ar  401  EK6401      0.0058
      4  C5        18.1700   10.4660   13.7310 C.3   401  EK6401      0.1164
      5  N1        16.9720   10.1110   12.8990 N.3   401  EK6401     -0.2019
      6  C4        15.7580    9.7070   13.6500 C.3   401  EK6401      0.1987
      7  C3        14.9260   10.8290   14.2860 C.2   401  EK6401      0.3349
      8  O2        14.0580   10.6820   15.1390 O.2   401  EK6401     -0.2485
      9  O1        15.2650   12.0540   13.7690 O.3   401  EK6401     -0.4475
     10  C2        14.6320   13.2590   14.1900 C.3   401  EK6401      0.2086
     11  C1        14.2820   13.9750   12.8840 C.3   401  EK6401      0.0513
     12  C26       19.3400    7.5180   15.9310 C.ar  401  EK6401      0.0076
     13  C9        20.1440    6.7950   15.0200 C.ar  401  EK6401     -0.0103
     14  C8        20.3160    7.2750   13.7060 C.ar  401  EK6401     -0.0038
     15  C7        19.7000    8.4690   13.2870 C.ar  401  EK6401     -0.0023
     16  C10       20.8060    5.5820   15.4430 C.3   401  EK6401      0.1071
     17  C12       20.3160    4.4330   16.1680 C.2   401  EK6401      0.0878
     18  N3        21.3330    3.5240   16.3190 N.2   401  EK6401     -0.1522
     19  N2        22.4220    4.0720   15.7270 N.2   401  EK6401     -0.1507
     20  C11       22.1600    5.3120   15.1850 C.2   401  EK6401      0.1057
     21  C13       19.0320    4.1560   16.7630 C.2   401  EK6401      0.0190
     22  C25       17.7510    4.5900   16.3070 C.3   401  EK6401      0.0797
     23  C15       16.8160    4.1310   17.2340 C.2   401  EK6401      0.1182
     24  N4        17.4910    3.4150   18.2180 N.2   401  EK6401     -0.2435
     25  C14       18.8390    3.4320   17.9400 C.2   401  EK6401      0.0960
     26  C16       15.3700    4.4030   17.2710 C.2   401  EK6401      0.2790
     27  O3        14.6220    3.7630   18.0140 O.2   401  EK6401     -0.2670
     28  N5        14.9160    5.4300   16.4370 N.am  401  EK6401     -0.1952
     29  C17       13.4980    5.8480   16.3590 C.3   401  EK6401      0.1507
     30  C18       13.2120    6.6010   15.0180 C.3   401  EK6401      0.2081
     31  O4        13.7080    5.8080   13.9740 O.3   401  EK6401     -0.2181
     32  C19       13.1320    6.7880   17.4980 C.ar  401  EK6401      0.0010
     33  C24       14.0660    7.7540   17.9580 C.ar  401  EK6401      0.0111
     34  C23       13.7210    8.5750   19.0410 C.ar  401  EK6401      0.0848
     35 CL1        14.8550    9.7030   19.6110 Cl    401  EK6401     -0.0799
     36  C22       12.4610    8.4630   19.6690 C.ar  401  EK6401      0.1506
     37  F         12.1580    9.2390   20.6990 F     401  EK6401     -0.2033
     38  C21       11.5180    7.5060   19.2090 C.ar  401  EK6401      0.0302
     39  C20       11.8650    6.6740   18.1260 C.ar  401  EK6401     -0.0002
@<TRIPOS>BOND
     1    11    10    1
     2     5     6    1
     3     5     4    1
     4    15    14   ar
     5    15     3   ar
     6     6     7    1
     7    14    13   ar
     8     4     3    1
     9     9    10    1
    10     9     7    1
    11    31    30    1
    12     3     2   ar
    13     7     8    2
    14    30    29    1
    15    13    16    1
    16    13    12   ar
    17    20    16    1
    18    20    19    2
    19    16    17    1
    20     2    12   ar
    21     2     1    1
    22    19    18    1
    23    17    18    2
    24    17    21    1
    25    22    21    1
    26    22    23    1
    27    29    28    1
    28    29    32    1
    29    28    26   am
    30    21    25    2
    31    23    26    1
    32    23    24    2
    33    26    27    2
    34    32    33   ar
    35    32    39   ar
    36    25    24    1
    37    33    34   ar
    38    39    38   ar
    39    34    35    1
    40    34    36   ar
    41    38    36   ar
    42    36    37    1
