@<TRIPOS>MOLECULE
4fv4_EK7_A_1.pdb
 43 46 0 0 0
SMALL
GASTEIGER

@<TRIPOS>ATOM
      1  N5       -10.3640    2.1630   14.4870 N.1   401  EK7401     -0.1903
      2  C19      -11.4270    2.4610   14.7790 C.1   401  EK7401      0.1067
      3  C1       -12.7760    2.7900   15.1180 C.ar  401  EK7401      0.0944
      4  C2       -13.9020    2.2080   14.6370 C.ar  401  EK7401     -0.0111
      5  C9       -13.9410    1.1160   13.6000 C.3   401  EK7401     -0.0239
      6  C8       -15.2540    1.0990   12.8360 C.3   401  EK7401     -0.0296
      7  C7       -16.4510    1.3060   13.7310 C.3   401  EK7401      0.0909
      8  C4       -16.4030    2.1660   14.8330 C.2   401  EK7401      0.1289
      9  C3       -15.1100    2.7340   15.2450 C.ar  401  EK7401      0.0428
     10  C16      -14.8220    3.7100   16.1760 C.ar  401  EK7401      0.0790
     11  N4       -15.6180    4.4060   17.0360 N.pl3 401  EK7401     -0.3301
     12  C18      -15.7950    4.0100   18.4310 C.3   401  EK7401      0.0008
     13  C17      -16.3260    5.6050   16.6060 C.3   401  EK7401      0.0008
     14  S        -13.1150    4.0040   16.3060 S.2   401  EK7401     -0.0623
     15  C6       -17.6700    0.7190   13.4880 C.2   401  EK7401      0.0840
     16  N2       -18.7820    0.9590   14.1930 N.2   401  EK7401     -0.3406
     17  C5       -18.6580    1.8290   15.2060 C.1   401  EK7401      0.2021
     18  N1       -17.5050    2.4280   15.5600 N.2   401  EK7401     -0.3321
     19  N3       -19.8000    2.1260   15.8780 N.pl3 401  EK7401     -0.2389
     20  C10      -20.1200    2.8310   17.0580 C.ar  401  EK7401      0.0452
     21  C15      -19.1770    3.1160   18.0380 C.ar  401  EK7401     -0.0397
     22  C14      -19.4910    3.9890   19.0690 C.ar  401  EK7401     -0.0565
     23  C13      -20.7430    4.5850   19.1370 C.ar  401  EK7401     -0.0201
     24  C12      -21.6930    4.2780   18.1730 C.ar  401  EK7401      0.1186
     25  O        -22.9420    4.8420   18.1990 O.3   401  EK7401     -0.5067
     26  C11      -21.3880    3.4030   17.1440 C.ar  401  EK7401      0.0016
     27  H4       -13.1120    1.3040   12.9210 H     401  EK7401      0.0314
     28  H5       -13.7320    0.1440   14.0450 H     401  EK7401      0.0314
     29  H2       -15.2390    1.8470   12.0450 H     401  EK7401      0.0282
     30  H3       -15.3810    0.1440   12.3270 H     401  EK7401      0.0282
     31  H16      -15.8940    2.9300   18.5250 H     401  EK7401      0.0428
     32  H15      -16.6650    4.4690   18.8970 H     401  EK7401      0.0428
     33  H17      -14.9330    4.3050   19.0280 H     401  EK7401      0.0428
     34  H14      -17.1200    5.3530   15.9040 H     401  EK7401      0.0428
     35  H12      -15.6570    6.2950   16.0950 H     401  EK7401      0.0428
     36  H13      -16.7820    6.1620   17.4230 H     401  EK7401      0.0428
     37  H1       -17.7970   -0.0010   12.6840 H     401  EK7401      0.0942
     38  H6       -20.6270    1.7460   15.4270 H     401  EK7401      0.1656
     39  H11      -18.2050    2.6260   18.0580 H     401  EK7401      0.0636
     40  H10      -18.7560    4.1970   19.8460 H     401  EK7401      0.0619
     41  H9       -20.9710    5.3040   19.9190 H     401  EK7401      0.0654
     42  H8       -23.0180    5.4630   18.9700 H     401  EK7401      0.2921
     43  H7       -22.1260    3.1560   16.3830 H     401  EK7401      0.0673
@<TRIPOS>BOND
     1    29     6    1
     2    30     6    1
     3    37    15    1
     4     6     5    1
     5     6     7    1
     6    27     5    1
     7    15     7    1
     8    15    16    2
     9     5    28    1
    10     5     4    1
    11     7     8    1
    12    16    17    2
    13     1     2    3
    14     4     3   ar
    15     4     9   ar
    16     2     3    1
    17     8     9    1
    18     8    18    2
    19     3    14   ar
    20    17    18    2
    21    17    19    1
    22     9    10   ar
    23    38    19    1
    24    19    20    1
    25    34    13    1
    26    35    13    1
    27    10    14   ar
    28    10    11    1
    29    43    26    1
    30    13    11    1
    31    13    36    1
    32    11    12    1
    33    20    26   ar
    34    20    21   ar
    35    26    24   ar
    36    21    39    1
    37    21    22   ar
    38    24    25    1
    39    24    23   ar
    40    25    42    1
    41    12    31    1
    42    12    32    1
    43    12    33    1
    44    22    23   ar
    45    22    40    1
    46    23    41    1
