@<TRIPOS>MOLECULE
4fv9_E71_A_1.pdb
 40 44 0 0 0
SMALL
GASTEIGER

@<TRIPOS>ATOM
      1  F2       -10.2870    1.8230   10.1490 F     401  E71401     -0.2025
      2  C6       -11.5240    2.1430   10.5880 C.ar  401  E71401      0.1590
      3  C1       -11.7390    2.2490   11.9420 C.ar  401  E71401      0.1662
      4  F1       -10.7490    1.9060   12.7850 F     401  E71401     -0.2018
      5  C5       -12.5300    2.3930    9.6830 C.ar  401  E71401     -0.0236
      6  C4       -13.7660    2.8040   10.1580 C.ar  401  E71401     -0.0583
      7  C3       -13.9860    2.9460   11.5180 C.ar  401  E71401     -0.0509
      8  C2       -12.9650    2.6530   12.4230 C.ar  401  E71401      0.0254
      9  C7       -13.2390    2.7550   13.8820 C.ar  401  E71401      0.0517
     10  C9       -14.3360    2.2890   14.5820 C.ar  401  E71401      0.1770
     11  O        -14.1720    2.6130   15.8820 O.2   401  E71401     -0.3540
     12  N1       -12.9500    3.3070   16.0490 N.ar  401  E71401     -0.0854
     13  C8       -12.4340    3.3660   14.8550 C.ar  401  E71401      0.0785
     14  C10      -15.5260    1.6010   14.2040 C.ar  401  E71401      0.0479
     15  C16      -15.6570    0.7080   13.1630 C.ar  401  E71401      0.0159
     16  N3       -16.9520    0.2740   13.0720 N.ar  401  E71401     -0.3355
     17  C15      -17.6570    0.9030   14.0560 C.ar  401  E71401      0.1894
     18  C11      -16.8380    1.7220   14.8000 C.ar  401  E71401      0.0390
     19  N2       -18.9710    0.7960   14.3110 N.2   401  E71401     -0.3966
     20  C14      -19.4780    1.4940   15.3360 C.2   401  E71401      0.0734
     21  C13      -18.7310    2.3070   16.1820 C.3   401  E71401      0.0767
     22  C12      -17.3730    2.4240   15.8790 C.2   401  E71401     -0.0538
     23  C17      -19.3550    3.1370   17.2550 C.2   401  E71401     -0.0393
     24  C21      -20.7180    3.4340   17.2520 C.2   401  E71401     -0.0306
     25  C20      -21.2790    4.0850   18.3350 C.2   401  E71401      0.0775
     26  N4       -20.5880    4.4580   19.4160 N.2   401  E71401     -0.4234
     27  C19      -19.2840    4.1630   19.4260 C.2   401  E71401      0.0632
     28  C18      -18.6350    3.5120   18.3920 C.3   401  E71401      0.0405
     29  H4       -12.3640    2.2310    8.6220 H     401  E71401      0.0647
     30  H3       -14.5670    3.0160    9.4520 H     401  E71401      0.0619
     31  H2       -14.9550    3.2800   11.8860 H     401  E71401      0.0625
     32  H5       -11.4770    3.8490   14.6640 H     401  E71401      0.0870
     33  H8       -14.8890    0.3660   12.4730 H     401  E71401      0.0815
     34  H1       -17.3280   -0.3930   12.4060 H     401  E71401      0.1678
     35  H7       -20.5480    1.3450   15.4520 H     401  E71401      0.0935
     36  H6       -16.7160    3.0760   16.4520 H     401  E71401      0.0593
     37  H12      -21.3610    3.1970   16.4040 H     401  E71401      0.0643
     38  H11      -22.3380    4.3380   18.3560 H     401  E71401      0.0969
     39  H10      -18.7420    4.4740   20.3170 H     401  E71401      0.0928
     40  H9       -17.5810    3.2710   18.5060 H     401  E71401      0.0424
@<TRIPOS>BOND
     1    29     5    1
     2    30     6    1
     3     5     6   ar
     4     5     2   ar
     5     1     2    1
     6     6     7   ar
     7     2     3   ar
     8     7    31    1
     9     7     8   ar
    10     3     8   ar
    11     3     4    1
    12    34    16    1
    13     8     9    1
    14    33    15    1
    15    16    15   ar
    16    16    17   ar
    17    15    14   ar
    18     9    10   ar
    19     9    13   ar
    20    17    19    2
    21    17    18   ar
    22    14    10    1
    23    14    18   ar
    24    19    20    2
    25    10    11   ar
    26    32    13    1
    27    18    22    2
    28    13    12   ar
    29    20    35    1
    30    20    21    1
    31    22    21    1
    32    22    36    1
    33    11    12   ar
    34    21    23    1
    35    37    24    1
    36    24    23    2
    37    24    25    1
    38    23    28    1
    39    25    38    1
    40    25    26    2
    41    28    40    1
    42    28    27    1
    43    26    27    2
    44    27    39    1
