@<TRIPOS>MOLECULE
4fvq_ATP_A_1.pdb
 31 33 0 0 0
SMALL
GASTEIGER

@<TRIPOS>ATOM
      1  PG        -1.2260    7.6880   22.0030 P.3   901  ATP901      0.5373
      2  O1G       -1.3880    6.3420   22.6320 O.3   901  ATP901     -0.1143
      3  O2G        0.1730    8.1650   21.7860 O.3   901  ATP901     -0.1143
      4  O3G       -2.1370    7.9390   20.8130 O.2   901  ATP901     -0.2221
      5  PB        -2.4660   10.0920   23.0010 P.3   901  ATP901      0.2277
      6  O1B       -2.2840   10.7200   21.6410 O.2   901  ATP901     -0.5168
      7  O2B       -1.9590   10.9630   24.1250 O.3   901  ATP901     -0.4368
      8  O3B       -1.8610    8.6090   23.1770 O.3   901  ATP901     -0.2258
      9  PA        -5.0920    9.2020   22.3450 P.3   901  ATP901      0.2189
     10  O1A       -5.3940    7.8620   23.0000 O.3   901  ATP901     -0.4371
     11  O2A       -4.5710    9.2890   20.9290 O.2   901  ATP901     -0.5170
     12  O3A       -4.0470    9.9410   23.2990 O.3   901  ATP901     -0.2700
     13  O5'       -6.3550   10.1430   22.5200 O.3   901  ATP901     -0.3112
     14  C5'       -7.2190   10.1220   23.6450 C.3   901  ATP901      0.1813
     15  C4'       -8.5740   10.6360   23.1800 C.3   901  ATP901      0.1821
     16  O4'       -8.5230   12.0590   23.0080 O.3   901  ATP901     -0.3135
     17  C3'       -8.9420   10.0860   21.7950 C.3   901  ATP901      0.2184
     18  O3'       -9.8310    8.9670   21.7530 O.3   901  ATP901     -0.2174
     19  C2'       -9.5880   11.2040   21.0280 C.3   901  ATP901      0.2570
     20  O2'      -10.9780   10.9910   20.8480 O.3   901  ATP901     -0.2130
     21  C1'       -9.2860   12.4470   21.8510 C.3   901  ATP901      0.3186
     22  N9        -8.4560   13.3210   21.0080 N.pl3 901  ATP901     -0.1439
     23  C8        -7.1420   13.1580   20.8210 C.3   901  ATP901      0.3377
     24  N7        -6.6760   14.1100   19.9890 N.2   901  ATP901     -0.2095
     25  C5        -7.7290   14.8750   19.6520 C.2   901  ATP901      0.2526
     26  C6        -7.9100   16.0740   18.8220 C.2   901  ATP901      0.4393
     27  N6        -6.8340   16.6020   18.2160 N.pl3 901  ATP901      0.2180
     28  N1        -9.1460   16.5840   18.7270 N.2   901  ATP901      0.0021
     29  C2       -10.2200   16.0380   19.3480 C.3   901  ATP901      0.5254
     30  N3       -10.1250   14.9500   20.1380 N.2   901  ATP901     -0.0055
     31  C4        -8.9110   14.3520   20.3100 C.2   901  ATP901      0.3518
@<TRIPOS>BOND
     1    27    26    1
     2    28    26    2
     3    28    29    1
     4    26    25    1
     5    29    30    1
     6    25    24    2
     7    25    31    1
     8    24    23    1
     9    30    31    2
    10    31    22    1
    11     4     1    2
    12    23    22    1
    13    20    19    1
    14    11     9    2
    15    22    21    1
    16    19    17    1
    17    19    21    1
    18     6     5    2
    19    18    17    1
    20     3     1    1
    21    17    15    1
    22    21    16    1
    23     1     2    1
    24     1     8    1
    25     9    13    1
    26     9    10    1
    27     9    12    1
    28    13    14    1
    29     5     8    1
    30     5    12    1
    31     5     7    1
    32    16    15    1
    33    15    14    1
