@<TRIPOS>MOLECULE
4fvr_ATP_A_1.pdb
 31 33 0 0 0
SMALL
GASTEIGER

@<TRIPOS>ATOM
      1  PG         2.4830   -7.8720   21.7460 P.3   901  ATP901      0.5373
      2  O1G        2.6340   -6.4930   22.3620 O.3   901  ATP901     -0.1143
      3  O2G        1.0620   -8.3430   21.6470 O.3   901  ATP901     -0.1143
      4  O3G        3.3250   -8.0710   20.4950 O.2   901  ATP901     -0.2221
      5  PB         3.7590  -10.2840   22.7460 P.3   901  ATP901      0.2277
      6  O1B        3.5980  -10.7730   21.3310 O.2   901  ATP901     -0.5168
      7  O2B        3.0600  -11.1280   23.7980 O.3   901  ATP901     -0.4368
      8  O3B        3.2590   -8.7620   22.8510 O.3   901  ATP901     -0.2258
      9  PA         6.3510   -9.4040   22.2530 P.3   901  ATP901      0.2189
     10  O1A        6.7150   -8.1350   22.9730 O.3   901  ATP901     -0.4371
     11  O2A        5.8230   -9.3320   20.8420 O.2   901  ATP901     -0.5170
     12  O3A        5.3120  -10.2140   23.1580 O.3   901  ATP901     -0.2700
     13  O5'        7.6930  -10.3000   22.2940 O.3   901  ATP901     -0.3112
     14  C5'        8.5100  -10.3160   23.4580 C.3   901  ATP901      0.1813
     15  C4'        9.8690  -10.9520   23.1830 C.3   901  ATP901      0.1821
     16  O4'        9.6920  -12.2740   22.6780 O.3   901  ATP901     -0.3135
     17  C3'       10.7000  -10.2070   22.1390 C.3   901  ATP901      0.2184
     18  O3'       12.0940  -10.3050   22.5130 O.3   901  ATP901     -0.2174
     19  C2'       10.5000  -10.9870   20.8680 C.3   901  ATP901      0.2570
     20  O2'       11.6560  -10.9210   20.0310 O.3   901  ATP901     -0.2130
     21  C1'       10.3550  -12.3950   21.4140 C.3   901  ATP901      0.3186
     22  N9         9.5330  -13.2810   20.5700 N.pl3 901  ATP901     -0.1439
     23  C8         8.2000  -13.1650   20.4100 C.3   901  ATP901      0.3377
     24  N7         7.7540  -14.1640   19.6230 N.2   901  ATP901     -0.2095
     25  C5         8.8310  -14.9170   19.2760 C.2   901  ATP901      0.2526
     26  C6         9.0420  -16.1310   18.4600 C.2   901  ATP901      0.4393
     27  N6         7.9480  -16.6980   17.8930 N.pl3 901  ATP901      0.2180
     28  N1        10.3080  -16.6160   18.3460 N.2   901  ATP901      0.0021
     29  C2        11.3670  -16.0200   18.9580 C.3   901  ATP901      0.5254
     30  N3        11.2440  -14.9050   19.7040 N.2   901  ATP901     -0.0055
     31  C4        10.0090  -14.3460   19.9140 C.2   901  ATP901      0.3518
@<TRIPOS>BOND
     1    27    26    1
     2    28    26    2
     3    28    29    1
     4    26    25    1
     5    29    30    1
     6    25    24    2
     7    25    31    1
     8    24    23    1
     9    30    31    2
    10    31    22    1
    11    20    19    1
    12    23    22    1
    13     4     1    2
    14    22    21    1
    15    11     9    2
    16    19    21    1
    17    19    17    1
    18     6     5    2
    19    21    16    1
    20     3     1    1
    21     1     2    1
    22     1     8    1
    23    17    18    1
    24    17    15    1
    25     9    13    1
    26     9    10    1
    27     9    12    1
    28    13    14    1
    29    16    15    1
    30     5     8    1
    31     5    12    1
    32     5     7    1
    33    15    14    1
