@<TRIPOS>MOLECULE
4fvt_CNA_A_1.pdb
 44 48 0 0 0
SMALL
GASTEIGER

@<TRIPOS>ATOM
      1  PA        16.7220   28.4500  -15.2850 P.3   401  CNA401      0.2189
      2  O1A       17.2120   28.5950  -16.8290 O.2   401  CNA401     -0.5170
      3  O2A       16.2640   29.7450  -14.7050 O.3   401  CNA401     -0.4371
      4  O5B       15.6330   27.2470  -15.2470 O.3   401  CNA401     -0.3112
      5  C5B       14.7700   27.0050  -14.1170 C.3   401  CNA401      0.1813
      6  C4B       13.6650   26.0020  -14.5410 C.3   401  CNA401      0.1821
      7  O4B       12.8950   25.4400  -13.4170 O.3   401  CNA401     -0.3135
      8  C3B       12.6220   26.6820  -15.4250 C.3   401  CNA401      0.2184
      9  O3B       11.9200   25.6570  -16.1660 O.3   401  CNA401     -0.2174
     10  C2B       11.7290   27.3110  -14.3530 C.3   401  CNA401      0.2570
     11  O2B       10.4280   27.6560  -14.8630 O.3   401  CNA401     -0.2130
     12  C1B       11.6040   26.1390  -13.3820 C.3   401  CNA401      0.3186
     13  N9A       11.2900   26.5550  -11.9710 N.pl3 401  CNA401     -0.1439
     14  C8A       11.6770   27.6430  -11.2960 C.3   401  CNA401      0.3377
     15  N7A       11.1630   27.5730  -10.0600 N.2   401  CNA401     -0.2095
     16  C5A       10.4660   26.4320   -9.9680 C.2   401  CNA401      0.2526
     17  C6A        9.7700   25.8980   -8.9600 C.2   401  CNA401      0.4393
     18  N6A        9.7480   26.5970   -7.8290 N.pl3 401  CNA401      0.2180
     19  N1A        9.1260   24.7260   -9.0870 N.2   401  CNA401      0.0021
     20  C2A        9.2000   24.0420  -10.3100 C.3   401  CNA401      0.5254
     21  N3A        9.9370   24.6120  -11.3530 N.2   401  CNA401     -0.0055
     22  C4A       10.5480   25.7990  -11.1530 C.2   401  CNA401      0.3518
     23  O3        18.0220   27.8770  -14.4770 O.3   401  CNA401     -0.2703
     24  PN        18.8620   26.5980  -14.9860 P.3   401  CNA401      0.2188
     25  O1N       19.6460   26.1090  -13.6850 O.3   401  CNA401     -0.4371
     26  O2N       18.0440   25.5080  -15.5840 O.2   401  CNA401     -0.5170
     27  O5D       20.0580   27.1470  -16.0000 O.3   401  CNA401     -0.3138
     28  C5D       21.3720   27.4410  -15.4760 C.3   401  CNA401      0.1517
     29  C4D       21.6490   28.9610  -15.4180 C.3   401  CNA401      0.0648
     30  C4'       20.7760   29.7210  -14.3730 C.3   401  CNA401      0.0276
     31  C3D       23.1130   29.1910  -14.9850 C.3   401  CNA401      0.1862
     32  O3D       23.7230   30.2290  -15.8270 O.3   401  CNA401     -0.2203
     33  C2D       22.9990   29.6300  -13.5050 C.3   401  CNA401      0.2000
     34  O2D       24.1790   30.3080  -13.0390 O.3   401  CNA401     -0.2186
     35  C1D       21.7890   30.5680  -13.5590 C.3   401  CNA401      0.1061
     36  N1N       21.2490   30.8740  -12.2080 N.pl3 401  CNA401     -0.3015
     37  C2N       21.7160   30.1920  -11.0540 C.3   401  CNA401      0.1224
     38  C3N       21.1680   30.4960   -9.7940 C.2   401  CNA401      0.0543
     39  C7N       21.5940   29.8410   -8.6240 C.2   401  CNA401      0.2818
     40  O7N       22.7410   29.4070   -8.5020 O.2   401  CNA401     -0.2670
     41  N7N       20.6550   29.7220   -7.6710 N.am  401  CNA401     -0.0839
     42  C4N       20.1490   31.4500   -9.6950 C.2   401  CNA401      0.0033
     43  C5N       19.6770   32.1200  -10.8230 C.2   401  CNA401      0.0157
     44  C6N       20.2200   31.8350  -12.0770 C.2   401  CNA401      0.0616
@<TRIPOS>BOND
     1     2     1    2
     2     9     8    1
     3    27    28    1
     4    27    24    1
     5    32    31    1
     6    26    24    2
     7    28    29    1
     8     8     6    1
     9     8    10    1
    10    29    31    1
    11    29    30    1
    12     1     4    1
    13     1     3    1
    14     1    23    1
    15     4     5    1
    16    24    23    1
    17    24    25    1
    18    31    33    1
    19    11    10    1
    20     6     5    1
    21     6     7    1
    22    30    35    1
    23    10    12    1
    24    35    33    1
    25    35    36    1
    26    33    34    1
    27     7    12    1
    28    12    13    1
    29    36    44    1
    30    36    37    1
    31    44    43    2
    32    13    14    1
    33    13    22    1
    34    21    22    2
    35    21    20    1
    36    14    15    1
    37    22    16    1
    38    37    38    1
    39    43    42    1
    40    20    19    1
    41    15    16    2
    42    16    17    1
    43    38    42    2
    44    38    39    1
    45    19    17    2
    46    17    18    1
    47    39    40    2
    48    39    41   am
