@<TRIPOS>MOLECULE
4fvt_III_B_1.pdb
 37 36 0 0 0
SMALL
GASTEIGER

@<TRIPOS>ATOM
      1  N         34.5110   21.6470  -24.2450 N.3     3  SER3       -0.1202
      2  CA        33.8540   22.8030  -24.8410 C.3     3  SER3        0.2020
      3  C         33.4670   23.8010  -23.7510 C.2     3  SER3        0.2619
      4  O         33.4540   23.4570  -22.5580 O.2     3  SER3       -0.2717
      5  CB        32.6230   22.3720  -25.6400 C.3     3  SER3        0.2103
      6  OG        32.4450   23.1970  -26.7810 O.3     3  SER3       -0.2182
      7  N         33.1570   25.0320  -24.1640 N.am    4  GLY4       -0.1942
      8  CA        32.8120   26.1010  -23.2350 C.3     4  GLY4        0.2014
      9  C         31.3870   26.0530  -22.6900 C.2     4  GLY4        0.2639
     10  O         30.5160   25.3750  -23.2530 O.2     4  GLY4       -0.2714
     11  OH        25.8970   29.8790  -14.9970 O.2     5  LYS5       -0.2733
     12  CH        27.0840   30.1240  -14.8000 C.2     5  LYS5        0.2419
     13  CH3       27.5470   30.7060  -13.4630 C.3     5  LYS5        0.0964
     14  NZ        28.0480   29.8840  -15.7040 N.am    5  LYS5       -0.2054
     15  CE        27.7210   29.3130  -17.0320 C.3     5  LYS5        0.1151
     16  CD        28.9850   28.7650  -17.6980 C.3     5  LYS5        0.0235
     17  CG        28.6650   27.9050  -18.9310 C.3     5  LYS5        0.0041
     18  CB        29.9950   27.4150  -19.5340 C.3     5  LYS5        0.0312
     19  CA        29.8280   26.9370  -20.9800 C.3     5  LYS5        0.1728
     20  N         31.1640   26.7610  -21.5790 N.am    5  LYS5       -0.1963
     21  C         29.0500   27.9700  -21.8290 C.2     5  LYS5        0.2616
     22  O         29.5480   29.1100  -22.0010 O.2     5  LYS5       -0.2715
     23  N         27.8840   27.5890  -22.3520 N.am    6  VAL6       -0.1963
     24  CA        27.2240   28.3570  -23.4170 C.3     6  VAL6        0.1727
     25  C         25.7030   28.1410  -23.4740 C.2     6  VAL6        0.2616
     26  O         25.1900   27.1460  -22.9610 O.2     6  VAL6       -0.2715
     27  CB        27.8420   28.0180  -24.8110 C.3     6  VAL6        0.0290
     28  CG1       29.1900   28.7190  -25.0030 C.3     6  VAL6        0.0023
     29  CG2       27.9940   26.5020  -24.9850 C.3     6  VAL6        0.0023
     30  N         24.9890   29.0680  -24.1110 N.am    7  LEU7       -0.1977
     31  CA        23.5360   28.9710  -24.2320 C.3     7  LEU7        0.1596
     32  C         22.9970   29.8460  -25.3670 C.2     7  LEU7        0.2287
     33  O         21.7810   30.0460  -25.4940 O.2     7  LEU7       -0.2864
     34  CB        22.8780   29.3730  -22.9160 C.3     7  LEU7        0.0297
     35  CG        22.8310   30.8720  -22.6790 C.3     7  LEU7        0.0022
     36  CD        22.4150   31.1780  -21.2440 C.3     7  LEU7        0.0001
     37  CE        21.2820   30.2730  -20.7620 C.3     7  LEU7        0.0000
@<TRIPOS>BOND
     1     6     5    1
     2     5     2    1
     3    33    32    2
     4    32    31    1
     5    28    27    1
     6    29    27    1
     7     2     1    1
     8     2     3    1
     9    27    24    1
    10    31    30    1
    11    31    34    1
    12     7     3   am
    13     7     8    1
    14    30    25   am
    15     3     4    2
    16    25    24    1
    17    25    26    2
    18    24    23    1
    19    10     9    2
    20     8     9    1
    21    34    35    1
    22     9    20   am
    23    35    36    1
    24    23    21   am
    25    22    21    2
    26    21    19    1
    27    20    19    1
    28    36    37    1
    29    19    18    1
    30    18    17    1
    31    17    16    1
    32    16    15    1
    33    15    14    1
    34    14    12   am
    35    11    12    2
    36    12    13    1
