@<TRIPOS>MOLECULE
4fvv_SIA_B_1.pdb
 21 21 0 0 0
SMALL
GASTEIGER

@<TRIPOS>ATOM
      1  C1        10.3190    7.3350  -38.0700 C.2   1403  SIA1403     0.4179
      2  C2         9.0920    7.4190  -38.8270 C.3   1403  SIA1403     0.3155
      3  C3         9.3230    8.0540  -40.2070 C.3   1403  SIA1403     0.1056
      4  C4        10.1510    7.0550  -41.0760 C.3   1403  SIA1403     0.1798
      5  C5         9.3680    5.7350  -41.2420 C.3   1403  SIA1403     0.1554
      6  C6         9.1290    5.0940  -39.8040 C.3   1403  SIA1403     0.1734
      7  C7         8.3200    3.7530  -39.8080 C.3   1403  SIA1403     0.2135
      8  C8         7.8410    3.3340  -38.4030 C.3   1403  SIA1403     0.2173
      9  C9         7.0380    2.0230  -38.3000 C.3   1403  SIA1403     0.2175
     10  C10        9.7000    4.2770  -43.2720 C.2   1403  SIA1403     0.2420
     11  C11        8.9300    5.1510  -44.2210 C.3   1403  SIA1403     0.0964
     12  N5        10.1440    4.8170  -42.1000 N.am  1403  SIA1403    -0.2020
     13  O1A       10.9770    8.3570  -37.8920 O.co2 1403  SIA1403    -0.2401
     14  O1B       10.7290    6.2610  -37.5840 O.co2 1403  SIA1403    -0.2401
     15  O2         8.2700    8.3650  -38.0310 O.3   1403  SIA1403    -0.1830
     16  O4        10.3600    7.6160  -42.3440 O.3   1403  SIA1403    -0.2210
     17  O6         8.3890    6.0830  -38.9610 O.3   1403  SIA1403    -0.3220
     18  O7         7.1480    3.8710  -40.6150 O.3   1403  SIA1403    -0.2176
     19  O8         8.9680    3.1790  -37.5250 O.3   1403  SIA1403    -0.2175
     20  O9         6.6450    1.7490  -36.9180 O.3   1403  SIA1403    -0.2175
     21  O10        9.9100    3.1240  -43.5810 O.2   1403  SIA1403    -0.2733
@<TRIPOS>BOND
     1    11    10    1
     2    21    10    2
     3    10    12   am
     4    16     4    1
     5    12     5    1
     6     5     4    1
     7     5     6    1
     8     4     3    1
     9    18     7    1
    10     3     2    1
    11     7     6    1
    12     7     8    1
    13     6    17    1
    14    17     2    1
    15     2     1    1
    16     2    15    1
    17     8     9    1
    18     8    19    1
    19     9    20    1
    20     1    13   ar
    21     1    14   ar
