@<TRIPOS>MOLECULE
4fw8_NAI_A_1.pdb
 44 48 0 0 0
SMALL
GASTEIGER

@<TRIPOS>ATOM
      1  PA         9.9630  -15.8260    0.5580 P.3   501  NAI501      0.2189
      2  O1A       10.1160  -16.3740    2.1160 O.3   501  NAI501     -0.4371
      3  O2A       11.2210  -15.7240   -0.2570 O.2   501  NAI501     -0.5170
      4  O5B        8.8700  -16.7480   -0.2430 O.3   501  NAI501     -0.3112
      5  C5B        7.4570  -16.5360   -0.1360 C.3   501  NAI501      0.1813
      6  C4B        6.7680  -17.8490   -0.4500 C.3   501  NAI501      0.1821
      7  O4B        6.8780  -17.9980   -1.8870 O.3   501  NAI501     -0.3135
      8  C3B        7.5580  -19.0130    0.1530 C.3   501  NAI501      0.2184
      9  O3B        6.7050  -19.6700    1.0930 O.3   501  NAI501     -0.2174
     10  C2B        7.8740  -19.9290   -1.0330 C.3   501  NAI501      0.2570
     11  O2B        7.5210  -21.2960   -0.7130 O.3   501  NAI501     -0.2130
     12  C1B        6.9400  -19.3910   -2.1170 C.3   501  NAI501      0.3186
     13  N9A        7.4290  -19.6700   -3.4720 N.pl3 501  NAI501     -0.1439
     14  C8A        8.6510  -19.6090   -4.0030 C.3   501  NAI501      0.3377
     15  N7A        8.5740  -19.9810   -5.2930 N.2   501  NAI501     -0.2095
     16  C5A        7.3000  -20.2700   -5.5410 C.2   501  NAI501      0.2526
     17  C6A        6.6860  -20.6820   -6.6450 C.2   501  NAI501      0.4393
     18  N6A        7.4350  -20.8600   -7.7200 N.pl3 501  NAI501      0.2180
     19  N1A        5.3640  -20.9070   -6.6820 N.2   501  NAI501      0.0021
     20  C2A        4.5990  -20.7070   -5.5220 C.3   501  NAI501      0.5254
     21  N3A        5.2600  -20.2850   -4.3790 N.2   501  NAI501     -0.0055
     22  C4A        6.5920  -20.0800   -4.4180 C.2   501  NAI501      0.3518
     23  O3         9.1960  -14.3610    0.7520 O.3   501  NAI501     -0.2703
     24  PN         9.1510  -13.5140    2.0830 P.3   501  NAI501      0.2189
     25  O1N        8.0430  -14.0230    3.1690 O.3   501  NAI501     -0.4371
     26  O2N       10.4730  -13.2770    2.7080 O.2   501  NAI501     -0.5170
     27  O5D        8.5560  -12.1660    1.4840 O.3   501  NAI501     -0.3112
     28  C5D        7.4170  -12.1540    0.5810 C.3   501  NAI501      0.1813
     29  C4D        7.6520  -11.1790   -0.5830 C.3   501  NAI501      0.1799
     30  O4D        8.2000   -9.9650   -0.0540 O.3   501  NAI501     -0.3324
     31  C3D        8.7160  -11.7750   -1.4980 C.3   501  NAI501      0.2158
     32  O3D        8.4780  -11.3500   -2.8130 O.3   501  NAI501     -0.2175
     33  C2D        9.9790  -11.1470   -1.0380 C.3   501  NAI501      0.2312
     34  O2D       10.9220  -11.0920   -2.1300 O.3   501  NAI501     -0.2158
     35  C1D        9.4890   -9.7520   -0.6390 C.3   501  NAI501      0.2299
     36  N1N       10.4730   -9.1360    0.2650 N.pl3 501  NAI501     -0.2608
     37  C2N       10.6280   -9.6500    1.5180 C.2   501  NAI501      0.0678
     38  C3N       11.2470   -8.9000    2.5550 C.2   501  NAI501      0.0537
     39  C7N       11.4930   -9.4910    3.8150 C.2   501  NAI501      0.2818
     40  O7N       11.2190  -10.6700    4.0440 O.2   501  NAI501     -0.2670
     41  N7N       12.0570   -8.7040    4.7280 N.am  501  NAI501     -0.0839
     42  C4N       11.6230   -7.5340    2.3360 C.3   501  NAI501      0.0597
     43  C5N       11.0280   -6.9850    1.1760 C.2   501  NAI501     -0.0051
     44  C6N       10.4240   -7.7860    0.1880 C.2   501  NAI501      0.0630
@<TRIPOS>BOND
     1    18    17    1
     2    19    17    2
     3    19    20    1
     4    17    16    1
     5    16    15    2
     6    16    22    1
     7    20    21    1
     8    15    14    1
     9    22    21    2
    10    22    13    1
    11    14    13    1
    12    13    12    1
    13    32    31    1
    14    34    33    1
    15    12     7    1
    16    12    10    1
    17     7     6    1
    18    31    33    1
    19    31    29    1
    20    33    35    1
    21    10    11    1
    22    10     8    1
    23    35    30    1
    24    35    36    1
    25    29    30    1
    26    29    28    1
    27     6     5    1
    28     6     8    1
    29     3     1    2
    30     4     5    1
    31     4     1    1
    32     8     9    1
    33    44    36    1
    34    44    43    2
    35    36    37    1
    36     1    23    1
    37     1     2    1
    38    28    27    1
    39    23    24    1
    40    43    42    1
    41    27    24    1
    42    37    38    2
    43    24    26    2
    44    24    25    1
    45    42    38    1
    46    38    39    1
    47    39    40    2
    48    39    41   am
