@<TRIPOS>MOLECULE
4fw8_ZPG_A_1.pdb
 13 12 0 0 0
SMALL
GASTEIGER

@<TRIPOS>ATOM
      1  O29       19.0030   -4.9140    3.1300 O.3   502  ZPG502     -0.2205
      2  C27       19.0530   -3.6690    2.4110 C.3   502  ZPG502      0.1815
      3  C28       17.7750   -2.8520    2.6250 C.3   502  ZPG502      0.0382
      4  C24       20.3020   -2.9120    2.8550 C.3   502  ZPG502      0.1748
      5  O23       20.2610   -2.6190    4.2600 O.3   502  ZPG502     -0.3510
      6  C22       21.4480   -3.0100    4.9740 C.3   502  ZPG502      0.1449
      7  C26       21.1400   -4.1550    5.9540 C.3   502  ZPG502      0.0347
      8  C21       22.0350   -1.7480    5.6240 C.3   502  ZPG502      0.1715
      9  O20       23.1130   -1.9960    6.5340 O.3   502  ZPG502     -0.3510
     10  C20       24.4420   -2.1090    5.9950 C.3   502  ZPG502      0.1483
     11  C25       25.3580   -2.4940    7.1480 C.3   502  ZPG502      0.0349
     12  C18       24.9840   -0.8530    5.2900 C.3   502  ZPG502      0.2114
     13  O17       25.5260    0.1370    6.1880 O.3   502  ZPG502     -0.2177
@<TRIPOS>BOND
     1     2     3    1
     2     2     4    1
     3     2     1    1
     4     4     5    1
     5     5     6    1
     6     6     8    1
     7     6     7    1
     8    12    10    1
     9    12    13    1
    10     8     9    1
    11    10     9    1
    12    10    11    1
