@<TRIPOS>MOLECULE
4fwi_ATP_B_1.pdb
 31 33 0 0 0
SMALL
GASTEIGER

@<TRIPOS>ATOM
      1  PG         0.6250   10.3900   16.3390 P.3   402  ATP402      0.5373
      2  O1G        0.5420   10.7370   14.8630 O.2   402  ATP402     -0.2221
      3  O2G       -0.4150    9.4440   16.8770 O.3   402  ATP402     -0.1143
      4  O3G        0.8520   11.5530   17.2540 O.3   402  ATP402     -0.1143
      5  PB         1.9840    7.9520   16.3920 P.3   402  ATP402      0.2277
      6  O1B        0.5250    7.5370   16.4200 O.2   402  ATP402     -0.5168
      7  O2B        3.0340    7.3730   17.3160 O.3   402  ATP402     -0.4368
      8  O3B        1.9900    9.5590   16.4900 O.3   402  ATP402     -0.2258
      9  PA         1.8360    6.7200   13.8650 P.3   402  ATP402      0.2189
     10  O1A        2.1520    5.2940   14.2360 O.3   402  ATP402     -0.4371
     11  O2A        0.3980    7.1840   13.7330 O.2   402  ATP402     -0.5170
     12  O3A        2.5760    7.6660   14.9310 O.3   402  ATP402     -0.2700
     13  O5'        2.6330    7.1010   12.5300 O.3   402  ATP402     -0.3112
     14  C5'        4.0310    6.8350   12.3390 C.3   402  ATP402      0.1813
     15  C4'        4.4960    7.4640   11.0180 C.3   402  ATP402      0.1821
     16  O4'        3.9640    6.7160    9.9070 O.3   402  ATP402     -0.3135
     17  C3'        3.9630    8.8920   10.9200 C.3   402  ATP402      0.2184
     18  O3'        4.8720    9.7860   10.2710 O.3   402  ATP402     -0.2174
     19  C2'        2.7170    8.7420   10.0680 C.3   402  ATP402      0.2570
     20  O2'        2.3500    9.9180    9.3220 O.3   402  ATP402     -0.2130
     21  C1'        3.0870    7.5710    9.1830 C.3   402  ATP402      0.3186
     22  N9         1.8290    6.9310    8.7840 N.pl3 402  ATP402     -0.1439
     23  C8         0.7810    6.6880    9.5650 C.3   402  ATP402      0.3377
     24  N7        -0.2200    6.1220    8.8510 N.2   402  ATP402     -0.2095
     25  C5         0.1830    6.0280    7.5700 C.2   402  ATP402      0.2526
     26  C6        -0.3820    5.5240    6.3000 C.2   402  ATP402      0.4393
     27  N6        -1.6260    4.9890    6.2350 N.pl3 402  ATP402      0.2180
     28  N1         0.4000    5.6170    5.2100 N.2   402  ATP402      0.0021
     29  C2         1.6410    6.1380    5.2450 C.3   402  ATP402      0.5254
     30  N3         2.2230    6.6250    6.3470 N.2   402  ATP402     -0.0055
     31  C4         1.5430    6.5870    7.5270 C.2   402  ATP402      0.3518
@<TRIPOS>BOND
     1    28    29    1
     2    28    26    2
     3    29    30    1
     4    27    26    1
     5    26    25    1
     6    30    31    2
     7    31    25    1
     8    31    22    1
     9    25    24    2
    10    22    21    1
    11    22    23    1
    12    24    23    1
    13    21    16    1
    14    21    19    1
    15    20    19    1
    16    16    15    1
    17    19    17    1
    18    18    17    1
    19    17    15    1
    20    15    14    1
    21    14    13    1
    22    13     9    1
    23    11     9    2
    24     9    10    1
    25     9    12    1
    26     2     1    2
    27    12     5    1
    28     1     8    1
    29     1     3    1
    30     1     4    1
    31     5     6    2
    32     5     8    1
    33     5     7    1
