@<TRIPOS>MOLECULE
4fwt_GTP_A_1.pdb
 32 34 0 0 0
SMALL
GASTEIGER

@<TRIPOS>ATOM
      1  PG        17.4070   71.4800   -2.3300 P.3   2501  GTP2501     0.5373
      2  O1G       18.4640   70.7630   -1.5210 O.3   2501  GTP2501    -0.1143
      3  O2G       17.8490   71.6670   -3.7740 O.2   2501  GTP2501    -0.2221
      4  O3G       17.1190   72.8580   -1.7490 O.3   2501  GTP2501    -0.1143
      5  O3B       15.9830   70.6390   -2.3860 O.3   2501  GTP2501    -0.2258
      6  PB        15.5650   69.1800   -1.7450 P.3   2501  GTP2501     0.2277
      7  O1B       14.6660   69.4840   -0.5610 O.3   2501  GTP2501    -0.4368
      8  O2B       14.7230   68.3070   -2.6340 O.2   2501  GTP2501    -0.5168
      9  O3A       16.9550   68.4370   -1.3310 O.3   2501  GTP2501    -0.2700
     10  PA        17.9110   67.3350   -2.0850 P.3   2501  GTP2501     0.2189
     11  O1A       18.1900   67.4560   -3.5820 O.2   2501  GTP2501    -0.5170
     12  O2A       19.1460   67.1560   -1.2060 O.3   2501  GTP2501    -0.4371
     13  O5'       17.0880   65.9910   -1.9710 O.3   2501  GTP2501    -0.3112
     14  C5'       16.2650   65.7530   -3.0960 C.3   2501  GTP2501     0.1813
     15  C4'       15.3270   64.6950   -2.6310 C.3   2501  GTP2501     0.1799
     16  O4'       16.0520   63.8460   -1.7520 O.3   2501  GTP2501    -0.3326
     17  C3'       14.0880   65.2050   -1.8900 C.3   2501  GTP2501     0.2158
     18  O3'       12.9450   65.3180   -2.7250 O.3   2501  GTP2501    -0.2175
     19  C2'       13.7860   64.0970   -0.8960 C.3   2501  GTP2501     0.2310
     20  O2'       12.6770   63.2350   -1.1720 O.3   2501  GTP2501    -0.2158
     21  C1'       15.0810   63.2800   -0.8440 C.3   2501  GTP2501     0.2293
     22  N9        15.5510   63.4000    0.5600 N.pl3 2501  GTP2501    -0.2354
     23  C8        16.7750   63.8120    0.9640 C.3   2501  GTP2501     0.2246
     24  N7        16.8760   63.7980    2.3110 N.2   2501  GTP2501    -0.2322
     25  C5        15.7040   63.3780    2.8070 C.2   2501  GTP2501     0.2182
     26  C6        15.1810   63.1450    4.1400 C.1   2501  GTP2501     0.2372
     27  O6        15.8970   63.3480    5.1480 O.2   2501  GTP2501    -0.2069
     28  N1        13.8920   62.6930    4.2440 N.2   2501  GTP2501    -0.2485
     29  C2        13.1030   62.4590    3.1360 C.1   2501  GTP2501     0.2531
     30  N2        11.8220   62.0070    3.2440 N.pl3 2501  GTP2501    -0.0226
     31  N3        13.5780   62.6730    1.8690 N.2   2501  GTP2501    -0.3074
     32  C4        14.8530   63.1020    1.6790 C.2   2501  GTP2501     0.2300
@<TRIPOS>BOND
     1     3     1    2
     2    11    10    2
     3    14    15    1
     4    14    13    1
     5    18    17    1
     6     8     6    2
     7    15    17    1
     8    15    16    1
     9     5     1    1
    10     5     6    1
    11     1     4    1
    12     1     2    1
    13    10    13    1
    14    10     9    1
    15    10    12    1
    16    17    19    1
    17    16    21    1
    18     6     9    1
    19     6     7    1
    20    20    19    1
    21    19    21    1
    22    21    22    1
    23    22    23    1
    24    22    32    1
    25    23    24    1
    26    32    31    2
    27    32    25    1
    28    31    29    2
    29    24    25    2
    30    25    26    1
    31    29    30    1
    32    29    28    2
    33    26    28    2
    34    26    27    2
