@<TRIPOS>MOLECULE
4fwx_HEM_A_1.pdb
 43 50 0 0 0
SMALL
GASTEIGER

@<TRIPOS>ATOM
      1  CHA       -6.0550    9.2810   -9.3930 C.2   201  HEM201      0.0000
      2  CHB       -4.7810    6.9320   -5.2390 C.2   201  HEM201      0.0000
      3  CHC       -4.8760    2.6940   -7.6690 C.2   201  HEM201      0.0000
      4  CHD       -6.2500    5.1020  -11.8380 C.2   201  HEM201      0.0000
      5  C1A       -5.7110    8.9540   -8.0470 C.2   201  HEM201      0.0000
      6  C2A       -5.6170   10.0030   -7.0380 C.2   201  HEM201      0.0000
      7  C3A       -5.2300    9.3300   -5.7890 C.2   201  HEM201      0.0000
      8  C4A       -5.1110    7.9200   -6.2150 C.2   201  HEM201      0.0000
      9  CMA       -5.0230    9.9840   -4.4300 C.3   201  HEM201      0.0000
     10  CAA       -5.8680   11.4830   -7.2100 C.3   201  HEM201      0.0000
     11  CBA       -7.2580   11.8080   -6.6600 C.3   201  HEM201      0.0000
     12  CGA       -8.3180   10.8150   -7.1420 C.2   201  HEM201      0.0000
     13  O1A       -8.6590    9.8730   -6.3630 O.co2 201  HEM201      0.0000
     14  O2A       -8.8230   10.9430   -8.2770 O.co2 201  HEM201      0.0000
     15  C1B       -4.7050    5.5150   -5.5390 C.ar  201  HEM201      0.0000
     16  C2B       -4.2390    4.5740   -4.5010 C.ar  201  HEM201      0.0000
     17  C3B       -4.2680    3.3440   -5.2330 C.ar  201  HEM201      0.0000
     18  C4B       -4.7010    3.6970   -6.5950 C.ar  201  HEM201      0.0000
     19  CMB       -3.9200    4.9690   -3.0730 C.3   201  HEM201      0.0000
     20  CAB       -3.9420    1.9770   -4.7770 C.2   201  HEM201      0.0000
     21  CBB       -2.9270    1.8470   -3.9260 C.2   201  HEM201      0.0000
     22  C1C       -5.1660    2.9700   -9.0850 C.2   201  HEM201      0.0000
     23  C2C       -5.0790    1.9360  -10.1720 C.2   201  HEM201      0.0000
     24  C3C       -5.4880    2.6550  -11.3830 C.2   201  HEM201      0.0000
     25  C4C       -5.7440    4.0410  -10.9720 C.2   201  HEM201      0.0000
     26  CMC       -4.6800    0.5220   -9.9590 C.3   201  HEM201      0.0000
     27  CAC       -5.5590    2.1720  -12.7860 C.2   201  HEM201      0.0000
     28  CBC       -5.2900    0.9190  -13.1190 C.2   201  HEM201      0.0000
     29  C1D       -6.3500    6.4780  -11.4210 C.ar  201  HEM201      0.0000
     30  C2D       -6.6540    7.4750  -12.4640 C.ar  201  HEM201      0.0000
     31  C3D       -6.6040    8.7120  -11.7360 C.ar  201  HEM201      0.0000
     32  C4D       -6.2350    8.2720  -10.3990 C.ar  201  HEM201      0.0000
     33  CMD       -6.9680    7.1780  -13.9210 C.3   201  HEM201      0.0000
     34  CAD       -6.7830   10.1510  -12.1460 C.3   201  HEM201      0.0000
     35  CBD       -5.4040   10.5340  -12.6800 C.3   201  HEM201      0.0000
     36  CGD       -5.7020   11.6900  -13.5640 C.2   201  HEM201      0.0000
     37  O1D       -6.2740   11.3980  -14.6280 O.co2 201  HEM201      0.0000
     38  O2D       -5.4220   12.8470  -13.2060 O.co2 201  HEM201      0.0000
     39  NA        -5.3160    7.6630   -7.6360 N.2   201  HEM201      0.0000
     40  NB        -4.9000    5.0110   -6.7750 N.ar  201  HEM201      0.0000
     41  NC        -5.5240    4.2470   -9.5570 N.2   201  HEM201      0.0000
     42  ND        -6.0730    6.9580  -10.2120 N.ar  201  HEM201      0.0000
     43 FE         -5.6650    5.9110   -8.4850 Fe    201  HEM201      0.0000
@<TRIPOS>BOND
     1    37    36   ar
     2    33    30    1
     3    36    38   ar
     4    36    35    1
     5    28    27    2
     6    27    24    1
     7    35    34    1
     8    30    31   ar
     9    30    29   ar
    10    34    31    1
    11     4    29    2
    12     4    25    1
    13    31    32   ar
    14    29    42   ar
    15    24    25    1
    16    24    23    2
    17    25    41    2
    18    32    42   ar
    19    32     1    2
    20    42    43    1
    21    23    26    1
    22    23    22    1
    23    41    22    1
    24    41    43    1
    25     1     5    1
    26    22     3    2
    27    43    39    1
    28    43    40    1
    29    14    12   ar
    30     5    39    2
    31     5     6    1
    32     3    18    1
    33    39     8    1
    34    10     6    1
    35    10    11    1
    36    12    11    1
    37    12    13   ar
    38     6     7    2
    39    40    18   ar
    40    40    15   ar
    41    18    17   ar
    42     8     7    1
    43     8     2    2
    44     7     9    1
    45    15     2    1
    46    15    16   ar
    47    17    20    1
    48    17    16   ar
    49    20    21    2
    50    16    19    1
