@<TRIPOS>MOLECULE
4fwy_HEM_A_1.pdb
 43 50 0 0 0
SMALL
GASTEIGER

@<TRIPOS>ATOM
      1  CHA       -5.9560   -9.0730    9.6440 C.2   201  HEM201      0.0000
      2  CHB       -4.9380   -6.7680    5.3260 C.2   201  HEM201      0.0000
      3  CHC       -4.9560   -2.4140    7.6080 C.2   201  HEM201      0.0000
      4  CHD       -6.3610   -4.7410   11.8500 C.2   201  HEM201      0.0000
      5  C1A       -5.6790   -8.7650    8.2640 C.ar  201  HEM201      0.0000
      6  C2A       -5.6500   -9.8250    7.2450 C.ar  201  HEM201      0.0000
      7  C3A       -5.3440   -9.1490    5.9990 C.ar  201  HEM201      0.0000
      8  C4A       -5.2020   -7.7260    6.3710 C.ar  201  HEM201      0.0000
      9  CMA       -5.1820   -9.7440    4.5920 C.3   201  HEM201      0.0000
     10  CAA       -5.8840  -11.3120    7.4730 C.3   201  HEM201      0.0000
     11  CBA       -7.2510  -11.6730    6.9120 C.3   201  HEM201      0.0000
     12  CGA       -8.3570  -10.7350    7.3950 C.2   201  HEM201      0.0000
     13  O1A       -8.8260   -9.9070    6.5700 O.co2 201  HEM201      0.0000
     14  O2A       -8.7850  -10.8260    8.5790 O.co2 201  HEM201      0.0000
     15  C1B       -4.8590   -5.3300    5.5720 C.2   201  HEM201      0.0000
     16  C2B       -4.4340   -4.3970    4.4950 C.2   201  HEM201      0.0000
     17  C3B       -4.4530   -3.1270    5.2050 C.2   201  HEM201      0.0000
     18  C4B       -4.8640   -3.4630    6.5920 C.2   201  HEM201      0.0000
     19  CMB       -4.1360   -4.7500    3.0500 C.3   201  HEM201      0.0000
     20  CAB       -4.1270   -1.7280    4.7440 C.2   201  HEM201      0.0000
     21  CBB       -3.2740   -1.5660    3.7440 C.2   201  HEM201      0.0000
     22  C1C       -5.2820   -2.6510    9.0140 C.ar  201  HEM201      0.0000
     23  C2C       -5.2120   -1.5830   10.0700 C.ar  201  HEM201      0.0000
     24  C3C       -5.5930   -2.3080   11.3030 C.ar  201  HEM201      0.0000
     25  C4C       -5.8970   -3.7180   10.9290 C.ar  201  HEM201      0.0000
     26  CMC       -4.7770   -0.1690    9.8440 C.3   201  HEM201      0.0000
     27  CAC       -5.7060   -1.8030   12.6990 C.2   201  HEM201      0.0000
     28  CBC       -4.9240   -0.8430   13.1330 C.2   201  HEM201      0.0000
     29  C1D       -6.3670   -6.1290   11.5160 C.2   201  HEM201      0.0000
     30  C2D       -6.6280   -7.0380   12.6540 C.2   201  HEM201      0.0000
     31  C3D       -6.5090   -8.3180   11.9770 C.2   201  HEM201      0.0000
     32  C4D       -6.1830   -7.9900   10.5810 C.2   201  HEM201      0.0000
     33  CMD       -6.9470   -6.6800   14.1010 C.3   201  HEM201      0.0000
     34  CAD       -6.6200   -9.7190   12.5250 C.3   201  HEM201      0.0000
     35  CBD       -5.1660   -9.9570   12.9470 C.3   201  HEM201      0.0000
     36  CGD       -5.1000  -11.2900   13.6480 C.2   201  HEM201      0.0000
     37  O1D       -5.9220  -11.5310   14.5610 O.co2 201  HEM201      0.0000
     38  O2D       -4.2300  -12.0930   13.2710 O.co2 201  HEM201      0.0000
     39  NA        -5.3300   -7.4260    7.7880 N.ar  201  HEM201      0.0000
     40  NB        -5.0460   -4.7630    6.7720 N.2   201  HEM201      0.0000
     41  NC        -5.6320   -3.9730    9.5340 N.ar  201  HEM201      0.0000
     42  ND        -6.0850   -6.6900   10.2970 N.2   201  HEM201      0.0000
     43 FE         -5.6870   -5.6610    8.5260 Fe    201  HEM201      0.0000
@<TRIPOS>BOND
     1    19    16    1
     2    21    20    2
     3    16    17    2
     4    16    15    1
     5     9     7    1
     6    20    17    1
     7    17    18    1
     8     2    15    1
     9     2     8    2
    10    15    40    2
    11     7     8   ar
    12     7     6   ar
    13     8    39   ar
    14    13    12   ar
    15    18    40    1
    16    18     3    2
    17    40    43    1
    18    11    12    1
    19    11    10    1
    20     6    10    1
    21     6     5   ar
    22    12    14   ar
    23     3    22    1
    24    39     5   ar
    25    39    43    1
    26     5     1    2
    27    43    41    1
    28    43    42    1
    29    22    41   ar
    30    22    23   ar
    31    41    25   ar
    32     1    32    1
    33    26    23    1
    34    23    24   ar
    35    42    32    2
    36    42    29    1
    37    32    31    1
    38    25    24   ar
    39    25     4    1
    40    24    27    1
    41    29     4    2
    42    29    30    1
    43    31    34    1
    44    31    30    2
    45    34    35    1
    46    30    33    1
    47    27    28    2
    48    35    36    1
    49    38    36   ar
    50    36    37   ar
