@<TRIPOS>MOLECULE
4fwz_HEM_A_1.pdb
 43 50 0 0 0
SMALL
GASTEIGER

@<TRIPOS>ATOM
      1  CHA       13.4570   14.7390    9.4890 C.2   201  HEM201      0.0000
      2  CHB       15.0380   17.0020    5.5340 C.2   201  HEM201      0.0000
      3  CHC       15.0370   21.1290    7.8870 C.2   201  HEM201      0.0000
      4  CHD       13.5980   18.9270   11.8810 C.2   201  HEM201      0.0000
      5  C1A       13.9200   14.9590    8.2100 C.ar  201  HEM201      0.0000
      6  C2A       14.0260   13.9760    7.1460 C.ar  201  HEM201      0.0000
      7  C3A       14.4610   14.6080    6.0600 C.ar  201  HEM201      0.0000
      8  C4A       14.6260   16.0100    6.3890 C.ar  201  HEM201      0.0000
      9  CMA       14.7660   14.0350    4.6720 C.3   201  HEM201      0.0000
     10  CAA       13.7050   12.4910    7.3330 C.3   201  HEM201      0.0000
     11  CBA       12.2840   12.1150    6.9310 C.3   201  HEM201      0.0000
     12  CGA       11.2350   13.0590    7.5060 C.2   201  HEM201      0.0000
     13  O1A       11.1910   14.1810    6.8950 O.co2 201  HEM201      0.0000
     14  O2A       10.7790   12.7970    8.6140 O.co2 201  HEM201      0.0000
     15  C1B       15.1300   18.3370    5.8240 C.2   201  HEM201      0.0000
     16  C2B       15.5190   19.3560    4.8670 C.2   201  HEM201      0.0000
     17  C3B       15.2170   20.5380    5.4430 C.2   201  HEM201      0.0000
     18  C4B       14.8460   20.2830    6.8080 C.2   201  HEM201      0.0000
     19  CMB       15.7010   19.0390    3.3760 C.3   201  HEM201      0.0000
     20  CAB       15.4200   21.9510    4.9130 C.3   201  HEM201      0.0000
     21  CBB       16.6620   22.1240    4.0340 C.3   201  HEM201      0.0000
     22  C1C       14.5420   20.8940    9.1530 C.ar  201  HEM201      0.0000
     23  C2C       14.6610   21.8960   10.2260 C.ar  201  HEM201      0.0000
     24  C3C       14.3920   21.2560   11.3680 C.ar  201  HEM201      0.0000
     25  C4C       14.0140   19.9020   11.0140 C.ar  201  HEM201      0.0000
     26  CMC       15.0950   23.3510    9.9530 C.3   201  HEM201      0.0000
     27  CAC       13.9930   21.9490   12.6800 C.3   201  HEM201      0.0000
     28  CBC       14.7380   21.4170   13.9130 C.3   201  HEM201      0.0000
     29  C1D       13.3370   17.6190   11.5650 C.2   201  HEM201      0.0000
     30  C2D       12.8830   16.6050   12.4850 C.2   201  HEM201      0.0000
     31  C3D       12.8090   15.4410   11.8030 C.2   201  HEM201      0.0000
     32  C4D       13.3200   15.7040   10.4770 C.2   201  HEM201      0.0000
     33  CMD       12.4940   16.8240   13.9500 C.3   201  HEM201      0.0000
     34  CAD       12.5900   14.0550   12.4200 C.3   201  HEM201      0.0000
     35  CBD       13.9230   13.5960   13.0810 C.3   201  HEM201      0.0000
     36  CGD       13.7290   12.3700   13.9300 C.2   201  HEM201      0.0000
     37  O1D       13.1200   12.4580   15.0130 O.co2 201  HEM201      0.0000
     38  O2D       14.3820   11.3760   13.5510 O.co2 201  HEM201      0.0000
     39  NA        14.2660   16.1920    7.7140 N.ar  201  HEM201      0.0000
     40  NB        14.7240   18.9300    7.0100 N.2   201  HEM201      0.0000
     41  NC        14.3610   19.6460    9.7020 N.ar  201  HEM201      0.0000
     42  ND        13.5420   17.0570   10.3100 N.2   201  HEM201      0.0000
     43 FE         14.0520   17.9780    8.6420 Fe    201  HEM201      0.0000
@<TRIPOS>BOND
     1    19    16    1
     2    21    20    1
     3     9     7    1
     4    16    17    2
     5    16    15    1
     6    20    17    1
     7    17    18    1
     8     2    15    1
     9     2     8    2
    10    15    40    2
    11     7     8   ar
    12     7     6   ar
    13     8    39   ar
    14    18    40    1
    15    18     3    2
    16    13    12   ar
    17    11    10    1
    18    11    12    1
    19    40    43    1
    20     6    10    1
    21     6     5   ar
    22    12    14   ar
    23    39     5   ar
    24    39    43    1
    25     3    22    1
    26     5     1    2
    27    43    41    1
    28    43    42    1
    29    22    41   ar
    30    22    23   ar
    31     1    32    1
    32    41    25   ar
    33    26    23    1
    34    23    24   ar
    35    42    32    2
    36    42    29    1
    37    32    31    1
    38    25    24   ar
    39    25     4    1
    40    24    27    1
    41    29     4    2
    42    29    30    1
    43    31    34    1
    44    31    30    2
    45    34    35    1
    46    30    33    1
    47    27    28    1
    48    35    36    1
    49    38    36   ar
    50    36    37   ar
