@<TRIPOS>MOLECULE
4fx2_FMN_A_1.pdb
 31 33 0 0 0
SMALL
GASTEIGER

@<TRIPOS>ATOM
      1  N1        26.0060   13.8020   83.5320 N.2   149  FMN149     -0.2887
      2  C2        25.0230   14.4870   83.9710 C.1   149  FMN149      0.3669
      3  O2        25.1560   15.0820   85.0530 O.2   149  FMN149     -0.1744
      4  N3        23.9020   14.6760   83.1470 N.2   149  FMN149     -0.2300
      5  C4        23.8570   14.2440   81.8140 C.1   149  FMN149      0.2513
      6  O4        22.8020   14.3410   81.2080 O.2   149  FMN149     -0.2057
      7  C4A       24.7740   13.2570   81.3770 C.2   149  FMN149      0.2703
      8  N5        24.9070   12.7580   80.1810 N.2   149  FMN149     -0.3885
      9  C5A       25.9960   12.1810   79.6960 C.2   149  FMN149      0.1233
     10  C6        26.0020   11.7840   78.3470 C.3   149  FMN149      0.0606
     11  C7        27.0080   10.8990   77.9400 C.3   149  FMN149      0.0111
     12  C7M       27.3110   10.7150   76.4070 C.3   149  FMN149      0.0008
     13  C8        28.2910   10.9750   78.6180 C.3   149  FMN149      0.0238
     14  C8M       29.4880   10.3020   78.0220 C.3   149  FMN149      0.0047
     15  C9        28.3130   11.3470   79.9930 C.2   149  FMN149     -0.0093
     16  C9A       27.1630   11.9680   80.5110 C.2   149  FMN149      0.0750
     17  N10       27.0840   12.6360   81.8310 N.pl3 149  FMN149     -0.2548
     18  C10       26.0460   13.3750   82.2470 C.2   149  FMN149      0.2449
     19  C1'       28.3200   12.1110   82.5090 C.3   149  FMN149      0.1336
     20  C2'       28.2100   10.7930   83.3090 C.3   149  FMN149      0.2048
     21  O2'       27.2530   10.7920   84.2660 O.3   149  FMN149     -0.2185
     22  C3'       29.5790   10.6260   83.8580 C.3   149  FMN149      0.2165
     23  O3'       30.6140   10.5500   82.8720 O.3   149  FMN149     -0.2175
     24  C4'       29.7240    9.6860   85.0320 C.3   149  FMN149      0.2147
     25  O4'       30.9950    9.8840   85.6780 O.3   149  FMN149     -0.2176
     26  C5'       29.5370    8.1950   84.7090 C.3   149  FMN149      0.1892
     27  O5'       29.5700    7.4660   85.8960 O.3   149  FMN149     -0.2674
     28  P         29.4650    5.9510   86.0150 P.3   149  FMN149      0.5327
     29  O1P       28.2570    5.2120   85.1230 O.2   149  FMN149     -0.2224
     30  O2P       29.1710    5.3460   87.3540 O.3   149  FMN149     -0.1145
     31  O3P       30.6850    5.3950   85.5350 O.3   149  FMN149     -0.1145
@<TRIPOS>BOND
     1    12    11    1
     2    11    10    1
     3    11    13    1
     4    14    13    1
     5    10     9    1
     6    13    15    1
     7     9     8    2
     8     9    16    1
     9    15    16    2
    10     8     7    2
    11    16    17    1
    12     6     5    2
    13     7     5    1
    14     7    18    1
    15     5     4    2
    16    17    18    1
    17    17    19    1
    18    18     1    2
    19    19    20    1
    20    23    22    1
    21     4     2    2
    22    20    22    1
    23    20    21    1
    24     1     2    2
    25    22    24    1
    26     2     3    2
    27    26    24    1
    28    26    27    1
    29    24    25    1
    30    29    28    2
    31    31    28    1
    32    27    28    1
    33    28    30    1
