@<TRIPOS>MOLECULE
4fxa_AAG_A_1.pdb
 15 14 0 0 0
SMALL
GASTEIGER

@<TRIPOS>ATOM
      1  N1        -5.1770  -21.4130  -16.6000 N.am  303  AAG303     -0.1956
      2  C1        -5.0750  -21.3200  -15.0960 C.3   303  AAG303      0.1979
      3  C2        -6.4750  -21.3830  -14.5630 C.3   303  AAG303      0.0370
      4  C4        -7.4710  -20.6040  -15.4280 C.3   303  AAG303      0.0493
      5  C5        -8.8910  -21.0470  -15.0020 C.3   303  AAG303      0.2205
      6  N2        -9.8940  -20.7290  -16.0300 N.pl3 303  AAG303     -0.0865
      7  C6       -10.0510  -21.3170  -17.2400 C.cat 303  AAG303      0.5346
      8  N3        -9.2860  -22.3000  -17.6770 N.pl3 303  AAG303      0.1354
      9  N4       -10.9870  -20.8830  -18.0710 N.pl3 303  AAG303      0.1354
     10  C3        -4.2920  -22.4890  -14.3330 C.2   303  AAG303      0.3842
     11  O1        -4.2690  -22.4040  -13.1390 O.co2 303  AAG303     -0.2437
     12  O2        -3.6750  -23.3700  -14.8950 O.co2 303  AAG303     -0.2437
     13  C8        -4.6640  -22.1230  -17.6370 C.2   303  AAG303      0.2423
     14  C9        -5.2630  -21.6380  -18.9540 C.3   303  AAG303      0.0964
     15  O4        -3.9100  -23.0990  -17.5890 O.2   303  AAG303     -0.2733
@<TRIPOS>BOND
     1    14    13    1
     2     9     7    1
     3     8     7    1
     4    13    15    2
     5    13     1   am
     6     7     6    2
     7     1     2    1
     8     6     5    1
     9     4     5    1
    10     4     3    1
    11     2     3    1
    12     2    10    1
    13    12    10   ar
    14    10    11   ar
