@<TRIPOS>MOLECULE
4fxb_HEM_A_1.pdb
 43 50 0 0 0
SMALL
GASTEIGER

@<TRIPOS>ATOM
      1  CHA      -26.7830   53.1100   -7.0400 C.2   501  HEM501      0.0000
      2  CHB      -27.0970   49.2350   -9.9540 C.2   501  HEM501      0.0000
      3  CHC      -24.1100   51.3700  -13.1350 C.2   501  HEM501      0.0000
      4  CHD      -24.2110   55.4450  -10.4940 C.2   501  HEM501      0.0000
      5  C1A      -27.1940   51.9170   -7.5950 C.2   501  HEM501      0.0000
      6  C2A      -28.2770   51.0800   -7.1180 C.2   501  HEM501      0.0000
      7  C3A      -28.3630   50.0160   -7.9180 C.2   501  HEM501      0.0000
      8  C4A      -27.3380   50.1330   -8.9360 C.2   501  HEM501      0.0000
      9  CMA      -29.3780   48.8600   -7.7830 C.3   501  HEM501      0.0000
     10  CAA      -29.1750   51.3710   -5.8960 C.3   501  HEM501      0.0000
     11  CBA      -28.3900   52.1790   -4.8680 C.3   501  HEM501      0.0000
     12  CGA      -29.2510   52.4230   -3.6570 C.2   501  HEM501      0.0000
     13  O1A      -29.6960   53.5830   -3.4600 O.co2 501  HEM501      0.0000
     14  O2A      -29.4920   51.4570   -2.8870 O.co2 501  HEM501      0.0000
     15  C1B      -26.3020   49.4610  -11.0570 C.ar  501  HEM501      0.0000
     16  C2B      -26.0600   48.5310  -12.1430 C.ar  501  HEM501      0.0000
     17  C3B      -25.2390   49.1180  -13.0170 C.ar  501  HEM501      0.0000
     18  C4B      -24.9260   50.4440  -12.5220 C.ar  501  HEM501      0.0000
     19  CMB      -26.6490   47.1090  -12.2670 C.3   501  HEM501      0.0000
     20  CAB      -24.7140   48.4930  -14.3270 C.2   501  HEM501      0.0000
     21  CBB      -25.5560   48.2480  -15.3360 C.2   501  HEM501      0.0000
     22  C1C      -23.8180   52.6300  -12.6570 C.2   501  HEM501      0.0000
     23  C2C      -22.7980   53.5240  -13.1680 C.2   501  HEM501      0.0000
     24  C3C      -22.8260   54.6440  -12.4420 C.2   501  HEM501      0.0000
     25  C4C      -23.8650   54.5060  -11.4410 C.2   501  HEM501      0.0000
     26  CMC      -21.8450   53.2320  -14.3470 C.3   501  HEM501      0.0000
     27  CAC      -21.9110   55.8720  -12.6360 C.2   501  HEM501      0.0000
     28  CBC      -20.5820   55.7220  -12.6420 C.2   501  HEM501      0.0000
     29  C1D      -24.8470   55.1980   -9.2950 C.ar  501  HEM501      0.0000
     30  C2D      -24.9180   56.1170   -8.1800 C.ar  501  HEM501      0.0000
     31  C3D      -25.7240   55.3850   -7.0980 C.ar  501  HEM501      0.0000
     32  C4D      -26.0580   54.0990   -7.6700 C.ar  501  HEM501      0.0000
     33  CMD      -24.3110   57.5340   -8.0960 C.3   501  HEM501      0.0000
     34  CAD      -26.0990   55.9100   -5.6960 C.3   501  HEM501      0.0000
     35  CBD      -27.2430   56.9120   -5.8160 C.3   501  HEM501      0.0000
     36  CGD      -27.4700   57.5780   -4.4850 C.2   501  HEM501      0.0000
     37  O1D      -27.7180   56.8540   -3.4860 O.co2 501  HEM501      0.0000
     38  O2D      -27.4020   58.8330   -4.4220 O.co2 501  HEM501      0.0000
     39  NA       -26.6430   51.3070   -8.7070 N.2   501  HEM501      0.0000
     40  NB       -25.5940   50.6180  -11.3230 N.ar  501  HEM501      0.0000
     41  NC       -24.4490   53.2640  -11.6020 N.2   501  HEM501      0.0000
     42  ND       -25.5260   54.0310   -8.9560 N.ar  501  HEM501      0.0000
     43 FE        -25.5530   52.3160  -10.1390 Fe    501  HEM501      0.0000
@<TRIPOS>BOND
     1    21    20    2
     2    26    23    1
     3    20    17    1
     4    23    22    1
     5    23    24    2
     6     3    22    2
     7     3    18    1
     8    17    18   ar
     9    17    16   ar
    10    22    41    1
    11    28    27    2
    12    27    24    1
    13    18    40   ar
    14    24    25    1
    15    19    16    1
    16    16    15   ar
    17    41    25    2
    18    41    43    1
    19    25     4    1
    20    40    15   ar
    21    40    43    1
    22    15     2    1
    23     4    29    2
    24    43    42    1
    25    43    39    1
    26     2     8    2
    27    29    42   ar
    28    29    30   ar
    29    42    32   ar
    30     8    39    1
    31     8     7    1
    32    39     5    2
    33    30    33    1
    34    30    31   ar
    35     7     9    1
    36     7     6    2
    37    32    31   ar
    38    32     1    2
    39     5     6    1
    40     5     1    1
    41     6    10    1
    42    31    34    1
    43    10    11    1
    44    35    34    1
    45    35    36    1
    46    11    12    1
    47    36    38   ar
    48    36    37   ar
    49    12    13   ar
    50    12    14   ar
