@<TRIPOS>MOLECULE
4fxp_ADX_A_1.pdb
 27 29 0 0 0
SMALL
GASTEIGER

@<TRIPOS>ATOM
      1  SB        -8.3400   -9.6180   11.6200 S.3   301  ADX301      0.0049
      2  O1B       -7.7700  -10.4300   10.5780 O.2   301  ADX301     -0.3449
      3  O2B       -8.4700  -10.4280   12.8540 O.3   301  ADX301     -0.2679
      4  O3B       -7.4620   -8.4570   11.8720 O.2   301  ADX301     -0.3449
      5  PA       -10.1260   -8.0300   10.2190 P.3   301  ADX301      0.2383
      6  O1A       -9.1420   -8.0340    9.0940 O.2   301  ADX301     -0.5161
      7  O2A      -10.2000   -6.6890   10.9270 O.3   301  ADX301     -0.4361
      8  O3A       -9.7290   -9.1870   11.2330 O.3   301  ADX301     -0.1945
      9  O5'      -11.5610   -8.4180    9.6880 O.3   301  ADX301     -0.3102
     10  C5'      -12.7040   -8.3530   10.5080 C.3   301  ADX301      0.1814
     11  C4'      -13.9820   -8.3720    9.8260 C.3   301  ADX301      0.1821
     12  O4'      -14.1220   -9.6250    9.1610 O.3   301  ADX301     -0.3135
     13  C3'      -15.1360   -8.2820   10.7720 C.3   301  ADX301      0.2184
     14  O3'      -15.6480   -6.9810   10.8070 O.3   301  ADX301     -0.2174
     15  C2'      -16.1220   -9.1140   10.1880 C.3   301  ADX301      0.2570
     16  O2'      -16.8610   -8.3470    9.2830 O.3   301  ADX301     -0.2130
     17  C1'      -15.4110  -10.1190    9.3720 C.3   301  ADX301      0.3186
     18  N9       -15.3840  -11.4400    9.9320 N.pl3 301  ADX301     -0.1439
     19  C8       -15.7470  -12.5710    9.2860 C.3   301  ADX301      0.3377
     20  N7       -15.4500  -13.6220   10.0680 N.2   301  ADX301     -0.2095
     21  C5       -14.8840  -13.1600   11.2070 C.2   301  ADX301      0.2526
     22  C6       -14.3800  -13.7740   12.3680 C.2   301  ADX301      0.4393
     23  N6       -14.3900  -15.1970   12.4680 N.pl3 301  ADX301      0.2180
     24  N1       -13.8650  -13.0130   13.3680 N.2   301  ADX301      0.0021
     25  C2       -13.8360  -11.6720   13.2570 C.3   301  ADX301      0.5254
     26  N3       -14.3040  -11.0530   12.1460 N.2   301  ADX301     -0.0055
     27  C4       -14.8340  -11.7640   11.1230 C.2   301  ADX301      0.3518
@<TRIPOS>BOND
     1     6     5    2
     2    12    17    1
     3    12    11    1
     4    16    15    1
     5    19    18    1
     6    19    20    1
     7    17    18    1
     8    17    15    1
     9     9     5    1
    10     9    10    1
    11    11    10    1
    12    11    13    1
    13    18    27    1
    14    20    21    2
    15    15    13    1
    16     5     7    1
    17     5     8    1
    18     2     1    2
    19    13    14    1
    20    27    21    1
    21    27    26    2
    22    21    22    1
    23     8     1    1
    24     1     4    2
    25     1     3    1
    26    26    25    1
    27    22    23    1
    28    22    24    2
    29    25    24    1
