@<TRIPOS>MOLECULE
4fxq_G9L_A_1.pdb
 26 29 0 0 0
SMALL
GASTEIGER

@<TRIPOS>ATOM
      1  N11      -32.2370  -75.8520   -2.3010 N.pl3 501  G9L501     -0.3064
      2  N12      -35.9510  -73.9580    0.5780 N.am  501  G9L501     -0.2534
      3  N13      -36.6510  -72.9760    4.5990 N.2   501  G9L501     -0.3372
      4  OAA      -35.2180  -72.9950   -1.3420 O.2   501  G9L501     -0.2695
      5  OAB      -36.7400  -73.4440    6.8820 O.2   501  G9L501     -0.2093
      6  FAC      -35.6780  -78.4620    6.9810 F     501  G9L501     -0.2041
      7  CAD      -35.5740  -77.9690    4.6840 C.ar  501  G9L501      0.0297
      8  CAE      -35.6890  -77.0370    3.6750 C.ar  501  G9L501      0.0032
      9  CAF      -36.1060  -76.2400    6.3620 C.ar  501  G9L501      0.0423
     10  CAG      -30.3990  -77.3630   -3.0480 C.3   501  G9L501      0.0035
     11  CAH      -30.6050  -75.8440   -3.6080 C.3   501  G9L501      0.0215
     12  CAI      -31.5640  -77.7830   -1.9770 C.3   501  G9L501      0.0215
     13  CAJ      -34.2320  -75.1080   -0.9480 C.2   501  G9L501      0.0740
     14  CAK      -36.5890  -72.3080    2.2280 C.3   501  G9L501      0.0819
     15  CAL      -30.8630  -75.3160   -3.0020 C.3   501  G9L501      0.0908
     16  CAM      -32.3140  -77.4730   -2.2050 C.3   501  G9L501      0.0908
     17  CAN      -33.2820  -74.8770   -2.1220 C.2   501  G9L501      0.0661
     18  CAO      -36.7810  -72.8300    0.8630 C.3   501  G9L501      0.1060
     19  CAP      -35.9210  -75.0430    1.5210 C.2   501  G9L501      0.0700
     20  CAR      -35.1380  -73.9540   -0.6040 C.2   501  G9L501      0.2542
     21  CAS      -35.7940  -77.5740    6.0180 C.ar  501  G9L501      0.1409
     22  CAT      -36.4460  -73.3320    3.2950 C.2   501  G9L501      0.1249
     23  CAU      -36.1390  -74.6550    2.9670 C.2   501  G9L501      0.0420
     24  CAV      -36.5320  -73.8850    5.6180 C.1   501  G9L501      0.2044
     25  CAW      -36.0220  -75.6810    4.0180 C.ar  501  G9L501      0.0155
     26  CAX      -36.2210  -75.2930    5.3350 C.ar  501  G9L501      0.0970
@<TRIPOS>BOND
     1    11    10    1
     2    11    15    1
     3    10    12    1
     4    15     1    1
     5     1    16    1
     6     1    17    1
     7    16    12    1
     8    17    13    2
     9     4    20    2
    10    13    20    1
    11    20     2   am
    12     2    18    1
    13     2    19    1
    14    18    14    1
    15    19    23    2
    16    14    22    1
    17    23    22    1
    18    23    25    1
    19    22     3    2
    20     8    25   ar
    21     8     7   ar
    22    25    26   ar
    23     3    24    2
    24     7    21   ar
    25    26    24    1
    26    26     9   ar
    27    24     5    2
    28    21     9   ar
    29    21     6    1
