@<TRIPOS>MOLECULE
4fxs_IMP_A_1.pdb
 23 25 0 0 0
SMALL
GASTEIGER

@<TRIPOS>ATOM
      1  P         12.5950   19.0110   22.8040 P.3   701  IMP701      0.5327
      2  O1P       11.7900   20.2630   23.0490 O.3   701  IMP701     -0.1145
      3  O2P       12.9280   18.9570   21.2590 O.2   701  IMP701     -0.2224
      4  O3P       11.6550   17.8780   23.3910 O.3   701  IMP701     -0.1145
      5  O5'       13.9270   18.9180   23.6690 O.3   701  IMP701     -0.2675
      6  C5'       15.0050   19.8440   23.4750 C.3   701  IMP701      0.1860
      7  C4'       16.0720   19.5540   24.5170 C.3   701  IMP701      0.1823
      8  O4'       16.7620   18.2980   24.3700 O.3   701  IMP701     -0.3135
      9  C3'       17.2190   20.5960   24.5260 C.3   701  IMP701      0.2184
     10  O3'       16.7580   21.8080   25.1720 O.3   701  IMP701     -0.2174
     11  C2'       18.3220   19.9150   25.2970 C.3   701  IMP701      0.2570
     12  O2'       17.8730   19.7890   26.6700 O.3   701  IMP701     -0.2130
     13  C1'       18.1050   18.4460   24.9100 C.3   701  IMP701      0.3186
     14  N9        18.9830   18.0210   23.8300 N.pl3 701  IMP701     -0.1435
     15  C8        19.4420   18.7350   22.8120 C.3   701  IMP701      0.3382
     16  N7        20.2150   17.9360   22.0630 N.2   701  IMP701     -0.2054
     17  C5        20.2010   16.7060   22.6120 C.2   701  IMP701      0.2446
     18  C6        20.7530   15.4710   22.2540 C.1   701  IMP701      0.1792
     19  O6        21.4420   15.3500   21.2080 O.2   701  IMP701     -0.2203
     20  N1        20.5830   14.4140   23.0760 N.2   701  IMP701     -0.1458
     21  C2        19.8100   14.5520   24.1600 C.3   701  IMP701      0.4017
     22  N3        19.2320   15.7260   24.5110 N.2   701  IMP701     -0.0334
     23  C4        19.4190   16.7940   23.7320 C.2   701  IMP701      0.3528
@<TRIPOS>BOND
     1    19    18    2
     2     3     1    2
     3    16    17    2
     4    16    15    1
     5    18    17    1
     6    18    20    2
     7    17    23    1
     8     1     2    1
     9     1     4    1
    10     1     5    1
    11    15    14    1
    12    20    21    1
    13     6     5    1
    14     6     7    1
    15    23    14    1
    16    23    22    2
    17    14    13    1
    18    21    22    1
    19     8     7    1
    20     8    13    1
    21     7     9    1
    22     9    10    1
    23     9    11    1
    24    13    11    1
    25    11    12    1
