@<TRIPOS>MOLECULE
4fxs_MOA_A_1.pdb
 23 24 0 0 0
SMALL
GASTEIGER

@<TRIPOS>ATOM
      1  C1        20.2910   15.0720   27.9710 C.2   702  MOA702      0.3445
      2  C2        24.8290   16.5810   24.4440 C.2   702  MOA702     -0.0296
      3  C3        25.9820   17.2480   24.2120 C.2   702  MOA702     -0.0473
      4  C4        27.2780   16.5170   24.4910 C.3   702  MOA702      0.0335
      5  C5        28.1990   17.3450   25.3980 C.3   702  MOA702      0.1184
      6  C6        27.9640   17.0990   26.8780 C.2   702  MOA702      0.3652
      7  C7        20.9790   19.9460   27.9270 C.3   702  MOA702      0.0340
      8  C8        23.9140   20.3550   26.1570 C.3   702  MOA702      0.2524
      9  C9        26.0120   18.6780   23.7100 C.3   702  MOA702      0.0260
     10  C10       19.8470   17.1960   28.9640 C.3   702  MOA702      0.2355
     11  C11       20.7710   17.3740   27.7760 C.ar  702  MOA702      0.0296
     12  C12       21.3270   18.6390   27.2550 C.ar  702  MOA702      0.0117
     13  C13       22.2210   18.5660   26.0600 C.ar  702  MOA702      0.1339
     14  C14       22.5600   17.2420   25.4360 C.ar  702  MOA702      0.0549
     15  C15       21.9780   15.9740   25.9920 C.ar  702  MOA702      0.2009
     16  C16       21.0900   16.0740   27.1820 C.ar  702  MOA702      0.1135
     17  C17       23.4750   17.2140   24.2100 C.3   702  MOA702      0.0580
     18  O1        20.1170   13.8800   27.8010 O.2   702  MOA702     -0.2448
     19  O2        19.5630   15.7790   28.9960 O.3   702  MOA702     -0.4404
     20  O3        22.7710   19.7220   25.5400 O.3   702  MOA702     -0.4720
     21  O4        22.2650   14.7590   25.4360 O.3   702  MOA702     -0.2866
     22  O5        28.7840   16.3980   27.5280 O.co2 702  MOA702     -0.2456
     23  O6        26.9740   17.6430   27.3970 O.co2 702  MOA702     -0.2456
@<TRIPOS>BOND
     1     9     3    1
     2    17     2    1
     3    17    14    1
     4     3     2    2
     5     3     4    1
     6     4     5    1
     7     5     6    1
     8    21    15    1
     9    14    15   ar
    10    14    13   ar
    11    20    13    1
    12    20     8    1
    13    15    16   ar
    14    13    12   ar
    15     6    23   ar
    16     6    22   ar
    17    16    11   ar
    18    16     1    1
    19    12    11   ar
    20    12     7    1
    21    11    10    1
    22    18     1    2
    23     1    19    1
    24    10    19    1
