@<TRIPOS>MOLECULE
4fyd_DGT_A_1.pdb
 31 33 0 0 0
SMALL
GASTEIGER

@<TRIPOS>ATOM
      1  PG        19.1190  -12.7760   36.1520 P.3   1301  DGT1301     0.5373
      2  O1G       18.0980  -13.7570   35.6040 O.2   1301  DGT1301    -0.2221
      3  O2G       20.3800  -13.5140   36.5020 O.3   1301  DGT1301    -0.1143
      4  O3G       18.5610  -12.1270   37.3920 O.3   1301  DGT1301    -0.1143
      5  O3B       19.4470  -11.6730   35.0910 O.3   1301  DGT1301    -0.2258
      6  PB        18.4370  -11.2890   33.9500 P.3   1301  DGT1301     0.2277
      7  O1B       19.1130  -10.3460   32.9880 O.2   1301  DGT1301    -0.5168
      8  O2B       17.9860  -12.5290   33.2140 O.3   1301  DGT1301    -0.4368
      9  O3A       17.2070  -10.5440   34.6030 O.3   1301  DGT1301    -0.2700
     10  PA        15.7550  -10.6240   34.0120 P.3   1301  DGT1301     0.2189
     11  O1A       14.8960   -9.5930   34.7090 O.3   1301  DGT1301    -0.4371
     12  O2A       15.1840  -11.9930   34.2750 O.2   1301  DGT1301    -0.5170
     13  O5'       15.7390  -10.3110   32.4650 O.3   1301  DGT1301    -0.3112
     14  C5'       16.3660  -11.1600   31.5460 C.3   1301  DGT1301     0.1812
     15  C4'       16.4970  -10.4470   30.2060 C.3   1301  DGT1301     0.1772
     16  O4'       15.4950   -9.4870   29.9440 O.3   1301  DGT1301    -0.3347
     17  C3'       17.8020   -9.7520   30.1560 C.3   1301  DGT1301     0.1857
     18  O3'       18.8320  -10.5870   29.7660 O.3   1301  DGT1301    -0.2203
     19  C2'       17.5510   -8.6670   29.1610 C.3   1301  DGT1301     0.0865
     20  C1'       16.1250   -8.3230   29.4480 C.3   1301  DGT1301     0.1981
     21  N9        16.0590   -7.2070   30.3880 N.pl3 1301  DGT1301    -0.2374
     22  C8        15.6650   -7.2830   31.6640 C.3   1301  DGT1301     0.2245
     23  N7        15.7360   -6.0710   32.2350 N.2   1301  DGT1301    -0.2322
     24  C5        16.1830   -5.1780   31.3330 C.2   1301  DGT1301     0.2182
     25  C6        16.4570   -3.7380   31.3740 C.1   1301  DGT1301     0.2372
     26  O6        16.2760   -3.1090   32.3990 O.2   1301  DGT1301    -0.2069
     27  N1        16.9300   -3.0780   30.2350 N.2   1301  DGT1301    -0.2485
     28  C2        17.1530   -3.8000   29.0150 C.1   1301  DGT1301     0.2531
     29  N2        17.6370   -3.1070   27.8590 N.pl3 1301  DGT1301    -0.0226
     30  N3        16.9050   -5.1430   28.9460 N.2   1301  DGT1301    -0.3074
     31  C4        16.4030   -5.8730   30.1360 C.2   1301  DGT1301     0.2299
@<TRIPOS>BOND
     1    29    28    1
     2    30    28    2
     3    30    31    2
     4    28    27    2
     5    19    20    1
     6    19    17    1
     7    20    16    1
     8    20    21    1
     9    18    17    1
    10    16    15    1
    11    31    21    1
    12    31    24    1
    13    17    15    1
    14    15    14    1
    15    27    25    2
    16    21    22    1
    17    24    25    1
    18    24    23    2
    19    25    26    2
    20    14    13    1
    21    22    23    1
    22    13    10    1
    23     7     6    2
    24     8     6    1
    25     6     9    1
    26     6     5    1
    27    10    12    2
    28    10     9    1
    29    10    11    1
    30     5     1    1
    31     2     1    2
    32     1     3    1
    33     1     4    1
