@<TRIPOS>MOLECULE
4fyg_3PT_A_1.pdb
 39 39 0 0 0
SMALL
GASTEIGER

@<TRIPOS>ATOM
      1  O0H        8.4870   34.3560    6.3830 O.2   801  3PT801     -0.2501
      2  C0G        8.0480   34.9350    5.3850 C.2   801  3PT801      0.3171
      3  C0I        8.9910   35.2350    4.2290 C.3   801  3PT801      0.1096
      4  C0J       10.4300   34.9080    4.6280 C.3   801  3PT801      0.0116
      5  C0K       11.1540   34.2240    3.4970 C.3   801  3PT801      0.0006
      6  O0D        6.6000   35.2390    5.3390 O.3   801  3PT801     -0.4457
      7  C0C        6.0020   36.5510    5.1700 C.3   801  3PT801      0.2420
      8  C0E        6.0840   37.0660    3.7230 C.3   801  3PT801      0.2543
      9  O0F        6.3560   36.0070    2.7810 O.3   801  3PT801     -0.4444
     10  C0L        5.5850   34.7550    2.6770 C.2   801  3PT801      0.3171
     11  C0N        6.2580   33.3710    2.7370 C.3   801  3PT801      0.1096
     12  C0P        5.4520   32.2620    3.4500 C.3   801  3PT801      0.0116
     13  C0Q        6.2800   31.2560    4.2500 C.3   801  3PT801      0.0006
     14  O0M        4.3750   34.8560    2.5290 O.2   801  3PT801     -0.2501
     15  C0B        6.4840   37.5250    6.2400 C.3   801  3PT801      0.1964
     16  OP1        5.9770   37.0450    7.4870 O.3   801  3PT801     -0.3100
     17  P1         5.3430   37.8970    8.7280 P.3   801  3PT801      0.2142
     18  OP3        5.7280   37.2730   10.0670 O.3   801  3PT801     -0.4373
     19  OP2        5.5580   39.3780    8.5270 O.2   801  3PT801     -0.5172
     20  O1         3.7950   37.4580    8.5520 O.3   801  3PT801     -0.3111
     21  C1         2.6860   38.3250    8.3500 C.3   801  3PT801      0.1873
     22  C2         1.8810   38.4270    9.6420 C.3   801  3PT801      0.2119
     23  O2         1.5960   37.0920   10.0900 O.3   801  3PT801     -0.2177
     24  C3         0.5570   39.1810    9.4460 C.3   801  3PT801      0.1891
     25  O3        -0.2440   39.0850   10.6400 O.3   801  3PT801     -0.2674
     26  P3        -0.0870   40.0070   11.9600 P.3   801  3PT801      0.5327
     27  O12        1.3500   39.9590   12.4630 O.3   801  3PT801     -0.1145
     28  O10       -0.5270   41.2980   11.3790 O.2   801  3PT801     -0.2224
     29  O11       -1.0890   39.4020   12.8960 O.3   801  3PT801     -0.1145
     30  C4        -0.2610   38.5090    8.3420 C.3   801  3PT801      0.1892
     31  O4        -1.4770   39.2040    8.0790 O.3   801  3PT801     -0.2674
     32  P4        -2.8810   38.4120    8.0650 P.3   801  3PT801      0.5327
     33  OP4       -2.5380   37.0010    7.6600 O.3   801  3PT801     -0.1145
     34  OP6       -3.3980   38.5310    9.4750 O.3   801  3PT801     -0.1145
     35  OP5       -3.6820   39.1430    7.0260 O.2   801  3PT801     -0.2224
     36  C5         0.4760   38.1810    7.0390 C.3   801  3PT801      0.2146
     37  O5        -0.2640   37.1010    6.4910 O.3   801  3PT801     -0.2176
     38  C6         1.8790   37.6280    7.2560 C.3   801  3PT801      0.2146
     39  O6         2.6190   37.6210    6.0350 O.3   801  3PT801     -0.2176
@<TRIPOS>BOND
     1    14    10    2
     2    10    11    1
     3    10     9    1
     4    11    12    1
     5     9     8    1
     6    12    13    1
     7     5     4    1
     8     8     7    1
     9     3     4    1
    10     3     2    1
    11     7     6    1
    12     7    15    1
    13     6     2    1
    14     2     1    2
    15    39    38    1
    16    15    16    1
    17    37    36    1
    18    35    32    2
    19    36    38    1
    20    36    30    1
    21    38    21    1
    22    16    17    1
    23    33    32    1
    24    32    31    1
    25    32    34    1
    26    31    30    1
    27    30    24    1
    28    21    20    1
    29    21    22    1
    30    19    17    2
    31    20    17    1
    32    17    18    1
    33    24    22    1
    34    24    25    1
    35    22    23    1
    36    25    26    1
    37    28    26    2
    38    26    27    1
    39    26    29    1
