@<TRIPOS>MOLECULE
4fyh_TR5_A_1.pdb
 27 30 0 0 0
SMALL
GASTEIGER

@<TRIPOS>ATOM
      1  O2        15.7200   38.8590    5.5750 O.2   201  TR5201     -0.2224
      2  PB        17.1070   39.3840    6.1620 P.3   201  TR5201      0.5327
      3  O3        16.9360   39.7620    7.5780 O.3   201  TR5201     -0.1145
      4  O1        18.1560   38.4070    5.7950 O.3   201  TR5201     -0.1145
      5  O5'       17.3650   40.7230    5.3000 O.3   201  TR5201     -0.2675
      6  C5'       17.1060   40.7440    3.8940 C.3   201  TR5201      0.1860
      7  C4'       17.4030   42.1410    3.3590 C.3   201  TR5201      0.1823
      8  O4'       18.6580   42.5440    3.9070 O.3   201  TR5201     -0.3136
      9  C3'       17.5460   42.0880    1.8440 C.3   201  TR5201      0.2184
     10  O3'       16.6640   43.0520    1.2350 O.3   201  TR5201     -0.2174
     11  C2'       19.0300   42.3670    1.5400 C.3   201  TR5201      0.2569
     12  O2'       19.1900   43.5690    0.7630 O.3   201  TR5201     -0.2130
     13  C1'       19.7330   42.4580    2.9290 C.3   201  TR5201      0.3173
     14  N9        20.5310   41.2090    3.1990 N.pl3 201  TR5201     -0.1628
     15  C8        20.3040   40.2940    4.1570 C.3   201  TR5201      0.2399
     16  C7        21.2110   39.3190    4.0410 C.2   201  TR5201      0.1336
     17  C5        21.9750   39.6520    3.0140 C.2   201  TR5201      0.1750
     18  C4        21.5850   40.8060    2.4810 C.2   201  TR5201      0.3329
     19  N3        22.2360   41.3230    1.4180 N.2   201  TR5201     -0.0072
     20  C2        23.3990   40.6120    0.8210 C.3   201  TR5201      0.5252
     21  N1        23.7130   39.3300    1.5320 N.2   201  TR5201     -0.0033
     22  C6        22.9940   38.9060    2.5910 C.2   201  TR5201      0.3728
     23  N61       23.2630   37.7530    3.2520 N.pl3 201  TR5201      0.0238
     24  C62       24.3890   36.8780    2.8340 C.3   201  TR5201      0.3129
     25  N71       22.5210   37.3980    4.2750 N.2   201  TR5201      0.1466
     26  C72       21.4860   38.1690    4.6830 C.2   201  TR5201      0.4595
     27  N73       20.7130   37.8420    5.7240 N.pl3 201  TR5201      0.2206
@<TRIPOS>BOND
     1    12    11    1
     2    20    19    1
     3    20    21    1
     4    10     9    1
     5    19    18    2
     6    21    22    2
     7    11     9    1
     8    11    13    1
     9     9     7    1
    10    18    17    1
    11    18    14    1
    12    22    17    1
    13    22    23    1
    14    24    23    1
    15    13    14    1
    16    13     8    1
    17    17    16    2
    18    14    15    1
    19    23    25    1
    20     7     6    1
    21     7     8    1
    22     6     5    1
    23    16    15    1
    24    16    26    1
    25    25    26    2
    26    26    27    1
    27     5     2    1
    28     1     2    2
    29     4     2    1
    30     2     3    1
