@<TRIPOS>MOLECULE
4fyi_6C6_A_1.pdb
 28 31 0 0 0
SMALL
GASTEIGER

@<TRIPOS>ATOM
      1  C65       26.0010   16.9500   11.3010 C.3   201  6C6201      0.0509
      2  C64       25.3950   18.2820   10.8290 C.3   201  6C6201      0.0044
      3  C63       26.4970   19.0020   10.0470 C.3   201  6C6201      0.0044
      4  C62       27.8020   18.4420   10.6290 C.3   201  6C6201      0.0509
      5  C61       27.4990   16.9700   10.9400 C.3   201  6C6201      0.2051
      6  N6        27.7020   16.1350    9.7370 N.pl3 201  6C6201     -0.0344
      7  C6        28.8540   15.5370    9.3740 C.2   201  6C6201      0.3854
      8  N1        28.8420   14.7530    8.2750 N.2   201  6C6201     -0.0020
      9  C2        29.9300   14.1270    7.8460 C.3   201  6C6201      0.5253
     10  N3        31.0850   14.2310    8.4900 N.2   201  6C6201     -0.0055
     11  C4        31.1710   14.9950    9.5970 C.2   201  6C6201      0.3517
     12  C5        30.0530   15.6660   10.0730 C.2   201  6C6201      0.2478
     13  N7        30.4300   16.3240   11.1620 N.2   201  6C6201     -0.2097
     14  C8        31.7250   16.0820   11.3700 C.3   201  6C6201      0.3377
     15  N9        32.1850   15.2690   10.4160 N.pl3 201  6C6201     -0.1439
     16  C1'       33.5780   14.7500   10.2530 C.3   201  6C6201      0.3186
     17  O4'       34.4800   15.2180   11.2870 O.3   201  6C6201     -0.3135
     18  C2'       34.1350   15.2390    8.9010 C.3   201  6C6201      0.2570
     19  O2'       34.7250   14.1460    8.1560 O.3   201  6C6201     -0.2130
     20  C3'       35.1610   16.3260    9.2460 C.3   201  6C6201      0.2184
     21  O3'       36.4610   16.0630    8.6670 O.3   201  6C6201     -0.2174
     22  C4'       35.2770   16.3190   10.7770 C.3   201  6C6201      0.1823
     23  C5'       34.7490   17.6580   11.3110 C.3   201  6C6201      0.1860
     24  O5'       34.6490   17.6590   12.7110 O.3   201  6C6201     -0.2675
     25  PA        34.0340   18.9420   13.5240 P.3   201  6C6201      0.5327
     26  OA2       34.1790   18.5630   15.0280 O.3   201  6C6201     -0.1145
     27  OA3       32.5030   18.9350   13.1450 O.2   201  6C6201     -0.2224
     28  OA1       34.7800   20.1840   13.1470 O.3   201  6C6201     -0.1145
@<TRIPOS>BOND
     1     9     8    1
     2     9    10    1
     3    19    18    1
     4     8     7    2
     5    10    11    2
     6    21    20    1
     7    18    20    1
     8    18    16    1
     9    20    22    1
    10     7     6    1
    11     7    12    1
    12    11    12    1
    13    11    15    1
    14     6     5    1
    15     3     4    1
    16     3     2    1
    17    12    13    2
    18    16    15    1
    19    16    17    1
    20    15    14    1
    21     4     5    1
    22    22    17    1
    23    22    23    1
    24     2     1    1
    25     5     1    1
    26    13    14    1
    27    23    24    1
    28    24    25    1
    29    27    25    2
    30    28    25    1
    31    25    26    1
