@<TRIPOS>MOLECULE
4fyk_SRA_A_1.pdb
 23 25 0 0 0
SMALL
GASTEIGER

@<TRIPOS>ATOM
      1  P         13.9430   21.9640    8.5370 P.3   201  SRA201      0.4295
      2  OP1       14.7570   23.0440    8.0770 O.2   201  SRA201     -0.2426
      3  S2P       12.0360   22.5650    8.1990 S.3   201  SRA201      0.0413
      4  OP3       14.0180   21.7440    9.9430 O.3   201  SRA201     -0.1307
      5  O5'       14.0770   20.7290    7.7490 O.3   201  SRA201     -0.2822
      6  C5'       14.2100   20.7450    6.3180 C.3   201  SRA201      0.1844
      7  C4'       13.7620   19.4180    5.7240 C.3   201  SRA201      0.1822
      8  O4'       12.3750   19.2390    6.0530 O.3   201  SRA201     -0.3135
      9  C3'       13.8970   19.4250    4.1970 C.3   201  SRA201      0.2184
     10  O3'       15.0750   18.6590    3.7920 O.3   201  SRA201     -0.2174
     11  C2'       12.5920   18.8630    3.6690 C.3   201  SRA201      0.2570
     12  C1'       11.6240   18.9040    4.8620 C.3   201  SRA201      0.3186
     13  N9        10.5500   19.9130    4.7060 N.pl3 201  SRA201     -0.1439
     14  C8        10.2670   20.9860    5.4420 C.3   201  SRA201      0.3377
     15  N7         9.1940   21.5860    4.9370 N.2   201  SRA201     -0.2095
     16  C5         8.8010   20.8720    3.8780 C.2   201  SRA201      0.2526
     17  C6         7.7930   21.0240    3.0110 C.2   201  SRA201      0.4393
     18  N6         6.9550   22.0400    3.1600 N.pl3 201  SRA201      0.2180
     19  N1         7.5760   20.1580    2.0290 N.2   201  SRA201      0.0021
     20  C2         8.4520   18.9960    1.7880 C.3   201  SRA201      0.5254
     21  N3         9.5160   18.9120    2.7920 N.2   201  SRA201     -0.0055
     22  C4         9.6400   19.8430    3.7520 C.2   201  SRA201      0.3518
     23  O2'       12.7190   17.4980    3.1630 O.3   201  SRA201     -0.2130
@<TRIPOS>BOND
     1    20    19    1
     2    20    21    1
     3    19    17    2
     4    21    22    2
     5    17    18    1
     6    17    16    1
     7    23    11    1
     8    11     9    1
     9    11    12    1
    10    22    16    1
    11    22    13    1
    12    10     9    1
    13    16    15    2
    14     9     7    1
    15    13    12    1
    16    13    14    1
    17    12     8    1
    18    15    14    1
    19     7     8    1
    20     7     6    1
    21     6     5    1
    22     5     1    1
    23     2     1    2
    24     3     1    1
    25     1     4    1
