@<TRIPOS>MOLECULE
4fyn_0VE_A_1.pdb
 29 32 0 0 0
SMALL
GASTEIGER

@<TRIPOS>ATOM
      1  N1         4.6280    0.3090   14.7250 N.ar  701  0VE701     -0.2850
      2  C2         3.8040   -0.5830   15.3860 C.ar  701  0VE701      0.1817
      3  C3         2.4630   -0.7490   14.9620 C.ar  701  0VE701      0.1869
      4  C4         4.1350    1.0480   13.6590 C.ar  701  0VE701      0.0847
      5  N5         2.0500   -0.0340   13.9220 N.ar  701  0VE701     -0.2231
      6  C6         2.8360    0.8410   13.2870 C.ar  701  0VE701      0.1179
      7  N7         4.4950   -1.1460   16.3510 N.ar  701  0VE701     -0.2221
      8  C8         4.9560    2.0700   12.9470 C.ar  701  0VE701      0.0209
      9  N9         1.6420   -1.6570   15.6460 N.pl3 701  0VE701     -0.1916
     10  C10        5.8360    0.2520   15.3360 C.ar  701  0VE701      0.1023
     11  C11        5.7340   -0.6600   16.3240 C.ar  701  0VE701      0.1196
     12  C12       -2.4660   -2.3270   14.9010 C.ar  701  0VE701      0.0480
     13  C13        5.7920    2.9340   13.6790 C.ar  701  0VE701      0.0435
     14  N14       -3.8330   -2.5280   14.6300 N.pl3 701  0VE701     -0.3051
     15  C15        0.2670   -1.8730   15.3950 C.ar  701  0VE701      0.0723
     16  C16       -1.7680   -1.3630   14.1760 C.ar  701  0VE701      0.0159
     17  C17       -1.7890   -3.0650   15.8880 C.ar  701  0VE701      0.0159
     18  C18        6.5370    3.9080   13.0110 C.ar  701  0VE701      0.1958
     19  C19       -0.4210   -1.1470   14.4170 C.ar  701  0VE701      0.0178
     20  C20       -0.4360   -2.8430   16.1280 C.ar  701  0VE701      0.0178
     21  O21        7.3730    4.7170   13.7210 O.3   701  0VE701     -0.2866
     22  C22        4.8860    2.2190   11.5390 C.ar  701  0VE701      0.0017
     23  O23       -6.1160   -4.8840   16.2590 O.3   701  0VE701     -0.2185
     24  C24        5.6320    3.1960   10.8850 C.ar  701  0VE701      0.0033
     25  C25       -4.7380   -3.0200   15.6800 C.3   701  0VE701      0.1265
     26  C26       -4.3860   -2.2220   13.2930 C.3   701  0VE701      0.0909
     27  C27        6.4620    4.0400   11.6200 C.ar  701  0VE701      0.0420
     28  C28       -4.9240   -4.5330   15.5600 C.3   701  0VE701      0.2034
     29  C29       -4.6670   -3.4860   12.4670 C.3   701  0VE701      0.0232
@<TRIPOS>BOND
     1    24    22   ar
     2    24    27   ar
     3    22     8   ar
     4    27    18   ar
     5    29    26    1
     6     8     4    1
     7     8    13   ar
     8    18    13   ar
     9    18    21    1
    10     6     4   ar
    11     6     5   ar
    12    26    14    1
    13     4     1   ar
    14     5     3   ar
    15    16    19   ar
    16    16    12   ar
    17    19    15   ar
    18    14    12    1
    19    14    25    1
    20     1    10   ar
    21     1     2   ar
    22    12    17   ar
    23     3     2   ar
    24     3     9    1
    25    10    11   ar
    26     2     7   ar
    27    15     9    1
    28    15    20   ar
    29    28    25    1
    30    28    23    1
    31    17    20   ar
    32    11     7   ar
