@<TRIPOS>MOLECULE
4fyo_0VF_A_1.pdb
 37 41 0 0 0
SMALL
GASTEIGER

@<TRIPOS>ATOM
      1  C1         2.5140    1.2780   13.2690 C.1   701  0VF701      0.2046
      2  N2         1.7520    0.3320   13.8200 N.2   701  0VF701     -0.3092
      3  N3         3.7800    1.4470   13.6160 N.2   701  0VF701     -0.3200
      4  C4         2.2070   -0.4830   14.7610 C.2   701  0VF701      0.2374
      5  C5         4.3080    0.6840   14.5330 C.2   701  0VF701      0.1934
      6  C6         3.5680   -0.3410   15.1800 C.2   701  0VF701      0.1600
      7  N7         2.0050    2.0970   12.2860 N.pl3 701  0VF701     -0.2323
      8  N8         4.2650   -1.0310   16.1050 N.2   701  0VF701     -0.2510
      9  S9         5.9110    0.6030   15.2680 S.3   701  0VF701     -0.0532
     10  C10       -1.8510    4.2110   11.3750 C.2   701  0VF701      0.2648
     11  N11        1.4150   -1.4710   15.3430 N.pl3 701  0VF701     -0.1813
     12  C12        5.5180   -0.7570   16.3650 C.3   701  0VF701      0.1899
     13  N13       -0.5120    4.3600   11.4340 N.am  701  0VF701     -0.2016
     14  C14       -5.1640    8.6610   12.8400 C.2   701  0VF701      0.3878
     15  C15       -0.8420   -0.8760   14.4790 C.ar  701  0VF701      0.0566
     16  C16       -2.2110   -1.1710   14.4240 C.ar  701  0VF701      0.1737
     17  C17        0.5590    2.2540   12.1730 C.3   701  0VF701      0.1247
     18  C18       -2.7110    5.3450   11.7720 C.ar  701  0VF701      0.0550
     19  C19        0.0250   -1.6830   15.2250 C.ar  701  0VF701      0.0764
     20  C20       -4.3110    7.5080   12.4690 C.ar  701  0VF701      0.0798
     21  C21        2.6750    3.3700   11.9740 C.3   701  0VF701      0.1050
     22  C22        0.4040    3.2900   11.0390 C.3   701  0VF701      0.1178
     23  C23       -2.7160   -2.2700   15.1270 C.ar  701  0VF701      0.1725
     24  O24       -2.3540    3.1720   10.9880 O.2   701  0VF701     -0.2684
     25  O25       -4.9780    9.7510   12.3360 O.co2 701  0VF701     -0.2406
     26  C26        1.8250    3.8810   10.7850 C.3   701  0VF701      0.0457
     27  C27       -3.7320    5.1770   12.7150 C.ar  701  0VF701      0.0048
     28  C28       -2.4960    6.5980   11.1790 C.ar  701  0VF701      0.0048
     29  C29       -3.2890    7.6720   11.5260 C.ar  701  0VF701      0.0067
     30  C30       -4.5250    6.2550   13.0600 C.ar  701  0VF701      0.0067
     31  C31       -1.8500   -3.0770   15.8580 C.ar  701  0VF701      0.0414
     32  O32       -6.1550    8.5010   13.7340 O.co2 701  0VF701     -0.2406
     33  C33       -0.4970   -2.7810   15.9060 C.ar  701  0VF701      0.0199
     34  O34       -3.1070   -0.4140   13.7190 O.3   701  0VF701     -0.4683
     35  O35       -4.0570   -2.5450   15.0520 O.3   701  0VF701     -0.4684
     36  C36       -2.4740    0.2920   12.6500 C.3   701  0VF701      0.2526
     37  C37       -4.5980   -2.8210   16.3490 C.3   701  0VF701      0.2526
@<TRIPOS>BOND
     1    26    22    1
     2    26    21    1
     3    24    10    2
     4    22    13    1
     5    22    17    1
     6    28    29   ar
     7    28    18   ar
     8    10    13   am
     9    10    18    1
    10    29    20   ar
    11    18    27   ar
    12    21     7    1
    13    17     7    1
    14     7     1    1
    15    25    14   ar
    16    20    14    1
    17    20    30   ar
    18    36    34    1
    19    27    30   ar
    20    14    32   ar
    21     1     3    2
    22     1     2    2
    23     3     5    2
    24    34    16    1
    25     2     4    2
    26    16    15   ar
    27    16    23   ar
    28    15    19   ar
    29     5     6    1
    30     5     9    1
    31     4     6    1
    32     4    11    1
    33    35    23    1
    34    35    37    1
    35    23    31   ar
    36     6     8    2
    37    19    11    1
    38    19    33   ar
    39     9    12    1
    40    31    33   ar
    41     8    12    1
