@<TRIPOS>MOLECULE
4fyr_BES_A_1.pdb
 22 22 0 0 0
SMALL
GASTEIGER

@<TRIPOS>ATOM
      1  N2       107.7000   15.6450   22.4150 N.3   1014  BES1014    -0.1293
      2  C1       107.0060   16.7730   22.9570 C.3   1014  BES1014     0.1355
      3  C6       105.8310   16.2870   23.8090 C.3   1014  BES1014     0.0485
      4  C7       106.2430   15.4450   25.0350 C.ar  1014  BES1014    -0.0206
      5  C8       106.9930   16.0250   26.0750 C.ar  1014  BES1014    -0.0042
      6  C12      105.8790   14.1010   25.0950 C.ar  1014  BES1014    -0.0042
      7  C9       107.3810   15.2630   27.1780 C.ar  1014  BES1014    -0.0003
      8  C11      106.2500   13.3320   26.2010 C.ar  1014  BES1014    -0.0003
      9  C10      107.0120   13.9170   27.2180 C.ar  1014  BES1014    -0.0000
     10  C2       106.5360   17.7230   21.8740 C.3   1014  BES1014     0.2467
     11  O2       105.7260   17.0330   20.9270 O.3   1014  BES1014    -0.2116
     12  C3       107.6910   18.3560   21.0920 C.2   1014  BES1014     0.2738
     13  O3       108.7500   18.6500   21.6170 O.2   1014  BES1014    -0.2705
     14  N1       107.4990   18.6120   19.6890 N.am  1014  BES1014    -0.1934
     15  C4       108.5460   19.2130   18.8530 C.3   1014  BES1014     0.1978
     16  C13      108.1080   19.2150   17.4100 C.3   1014  BES1014     0.0333
     17  C14      107.1840   20.3340   16.9240 C.3   1014  BES1014     0.0023
     18  C15      107.1100   20.3770   15.3860 C.3   1014  BES1014     0.0001
     19  C16      105.7980   20.2640   17.5220 C.3   1014  BES1014     0.0001
     20  C5       108.8460   20.6360   19.2950 C.2   1014  BES1014     0.3842
     21  O1       108.0820   21.2840   20.0730 O.co2 1014  BES1014    -0.2437
     22  O4       109.8500   21.2050   18.8440 O.co2 1014  BES1014    -0.2437
@<TRIPOS>BOND
     1    18    17    1
     2    17    16    1
     3    17    19    1
     4    16    15    1
     5    22    20   ar
     6    15    20    1
     7    15    14    1
     8    20    21   ar
     9    14    12   am
    10    11    10    1
    11    12    13    2
    12    12    10    1
    13    10     2    1
    14     1     2    1
    15     2     3    1
    16     3     4    1
    17     4     6   ar
    18     4     5   ar
    19     6     8   ar
    20     5     7   ar
    21     8     9   ar
    22     7     9   ar
