@<TRIPOS>MOLECULE
4fyt_III_B_1.pdb
 33 32 0 0 0
SMALL
GASTEIGER

@<TRIPOS>ATOM
      1  N        110.0620   20.4440   22.1520 N.3     1  L2O1       -0.1297
      2  C1       109.1060   19.7890   21.2180 C.3     1  L2O1        0.1311
      3  C2       109.1130   18.2280   21.2440 C.3     1  L2O1        0.0222
      4  C3       108.4140   17.6890   22.5020 C.3     1  L2O1        0.0015
      5  C4       106.9350   17.4290   22.2170 C.3     1  L2O1        0.0000
      6  C5       109.0890   16.3670   22.9260 C.3     1  L2O1        0.0000
      7  C6       109.3260   20.2270   19.7660 C.3     1  L2O1        0.2463
      8  O1       109.7850   21.5780   19.6340 O.3     1  L2O1       -0.2116
      9  C        107.9760   20.2730   19.1320 C.2     1  L2O1        0.2737
     10  O        107.2240   21.2040   19.4840 O.2     1  L2O1       -0.2705
     11  N        107.6130   19.2560   18.2040 N.am    2  VAL2       -0.1956
     12  CA       106.2460   19.1500   17.6260 C.3     2  VAL2        0.1727
     13  C        105.7170   17.8130   18.1320 C.2     2  VAL2        0.2616
     14  O        106.4660   16.8530   18.1890 O.2     2  VAL2       -0.2715
     15  CB       106.3420   19.2980   16.0950 C.3     2  VAL2        0.0290
     16  CG1      105.0850   18.7950   15.3900 C.3     2  VAL2        0.0023
     17  CG2      106.6470   20.7710   15.7580 C.3     2  VAL2        0.0023
     18  N        104.4550   17.7610   18.5630 N.am    3  VAL3       -0.1963
     19  CA       103.9380   16.5400   19.1940 C.3     3  VAL3        0.1727
     20  C        103.6080   15.4470   18.1670 C.2     3  VAL3        0.2617
     21  O        103.9640   14.2710   18.3780 O.2     3  VAL3       -0.2715
     22  CB       102.7490   16.8140   20.1600 C.3     3  VAL3        0.0290
     23  CG1      102.1000   15.5150   20.6430 C.3     3  VAL3        0.0023
     24  CG2      103.2260   17.6120   21.3560 C.3     3  VAL3        0.0023
     25  N        102.9500   15.8280   17.0700 N.am    4  ASP4       -0.1936
     26  CA       102.6660   14.8860   15.9800 C.3     4  ASP4        0.2090
     27  C        102.0810   13.5910   16.5760 C.2     4  ASP4        0.3848
     28  O        100.8790   13.5300   16.8660 O.co2   4  ASP4       -0.2437
     29  CB       103.9490   14.6490   15.1540 C.3     4  ASP4        0.1472
     30  CG       103.7890   13.6020   14.0560 C.2     4  ASP4        0.3672
     31  OD1      103.7810   13.9890   12.8700 O.co2   4  ASP4       -0.2456
     32  OD2      103.7100   12.3910   14.3600 O.co2   4  ASP4       -0.2456
     33  OXT      102.7860   12.6000   16.8320 O.co2   4  ASP4       -0.2437
@<TRIPOS>BOND
     1    31    30   ar
     2    30    32   ar
     3    30    29    1
     4    29    26    1
     5    16    15    1
     6    17    15    1
     7    26    27    1
     8    26    25    1
     9    15    12    1
    10    27    33   ar
    11    27    28   ar
    12    25    20   am
    13    12    13    1
    14    12    11    1
    15    13    14    2
    16    13    18   am
    17    20    21    2
    18    20    19    1
    19    11     9   am
    20    18    19    1
    21     9    10    2
    22     9     7    1
    23    19    22    1
    24     8     7    1
    25     7     2    1
    26    22    23    1
    27    22    24    1
    28     2     3    1
    29     2     1    1
    30     3     4    1
    31     5     4    1
    32     4     6    1
