@<TRIPOS>MOLECULE
4fyv_DCP_B_1.pdb
 28 29 0 0 0
SMALL
GASTEIGER

@<TRIPOS>ATOM
      1  N1        14.5180   84.3380   25.5780 N.am  202  DCP202     -0.1802
      2  C2        15.8200   84.5900   25.8400 C.1   202  DCP202      0.2756
      3  N3        16.4490   85.6240   25.2490 N.2   202  DCP202     -0.3024
      4  C4        15.8130   86.4240   24.3690 C.2   202  DCP202      0.2346
      5  C5        14.4770   86.1660   24.0790 C.2   202  DCP202      0.0687
      6  C6        13.8460   85.0990   24.7010 C.2   202  DCP202      0.0835
      7  O2        16.4490   83.9250   26.6010 O.2   202  DCP202     -0.1925
      8  N4        16.4800   87.5260   23.7210 N.pl3 202  DCP202     -0.0921
      9  C1'       13.7420   83.2280   26.1470 C.3   202  DCP202      0.2090
     10  C2'       13.7570   82.9640   27.6210 C.3   202  DCP202      0.0874
     11  C3'       12.6260   82.1390   27.8070 C.3   202  DCP202      0.1857
     12  C4'       11.8620   82.2080   26.5370 C.3   202  DCP202      0.1773
     13  O4'       12.3820   83.3170   25.8640 O.3   202  DCP202     -0.3339
     14  O3'       13.0360   80.8110   27.9980 O.3   202  DCP202     -0.2203
     15  C5'       10.4160   82.3600   26.7780 C.3   202  DCP202      0.1812
     16  O5'        9.5530   81.9120   25.7930 O.3   202  DCP202     -0.3112
     17  PA         8.9150   80.4880   25.8870 P.3   202  DCP202      0.2189
     18  O1A       10.0410   79.4510   26.1220 O.3   202  DCP202     -0.4371
     19  O2A        8.2010   80.1690   24.5520 O.2   202  DCP202     -0.5170
     20  O3A        7.8650   80.4030   27.0750 O.3   202  DCP202     -0.2700
     21  PB         6.9410   79.1610   27.1740 P.3   202  DCP202      0.2277
     22  O1B        7.6590   77.9700   26.6250 O.3   202  DCP202     -0.4368
     23  O2B        5.6910   79.4300   26.3370 O.2   202  DCP202     -0.5168
     24  O3B        6.5170   78.8590   28.6650 O.3   202  DCP202     -0.2258
     25  PG         5.5700   77.6360   28.9800 P.3   202  DCP202      0.5373
     26  O1G        4.2330   77.8620   28.2780 O.2   202  DCP202     -0.2221
     27  O2G        5.3280   77.5310   30.4800 O.3   202  DCP202     -0.1143
     28  O3G        6.2090   76.2970   28.4890 O.3   202  DCP202     -0.1143
@<TRIPOS>BOND
     1     8     4    1
     2     5     4    1
     3     5     6    2
     4     4     3    2
     5    19    17    2
     6     6     1    1
     7     3     2    2
     8     1     2   am
     9     1     9    1
    10    16    17    1
    11    16    15    1
    12     2     7    2
    13    13     9    1
    14    13    12    1
    15    17    18    1
    16    17    20    1
    17     9    10    1
    18    23    21    2
    19    12    15    1
    20    12    11    1
    21    22    21    1
    22    20    21    1
    23    21    24    1
    24    10    11    1
    25    11    14    1
    26    26    25    2
    27    28    25    1
    28    24    25    1
    29    25    27    1
