@<TRIPOS>MOLECULE
4fyw_CTP_B_1.pdb
 29 30 0 0 0
SMALL
GASTEIGER

@<TRIPOS>ATOM
      1  N1        15.2420   84.7890   25.6210 N.am  202  CTP202     -0.1778
      2  C2        16.4890   85.3710   25.7370 C.1   202  CTP202      0.2756
      3  N3        16.8360   86.4340   24.9310 N.2   202  CTP202     -0.3024
      4  C4        15.9140   86.9770   24.0560 C.2   202  CTP202      0.2346
      5  C5        14.6660   86.3740   23.9290 C.2   202  CTP202      0.0687
      6  C6        14.3170   85.3050   24.7520 C.2   202  CTP202      0.0836
      7  O2        17.2900   84.9350   26.5630 O.2   202  CTP202     -0.1925
      8  N4        16.2270   88.0660   23.3440 N.pl3 202  CTP202     -0.0921
      9  C1'       14.9980   83.5200   26.3360 C.3   202  CTP202      0.2400
     10  C2'       13.8710   83.6280   27.3470 C.3   202  CTP202      0.2319
     11  O2'       14.3290   84.1590   28.5670 O.3   202  CTP202     -0.2157
     12  C3'       13.4010   82.1920   27.4900 C.3   202  CTP202      0.2158
     13  C4'       13.7510   81.5680   26.1550 C.3   202  CTP202      0.1799
     14  O4'       14.6150   82.4660   25.4720 O.3   202  CTP202     -0.3320
     15  O3'       14.1350   81.5200   28.4860 O.3   202  CTP202     -0.2175
     16  C5'       12.4840   81.3150   25.3500 C.3   202  CTP202      0.1813
     17  O5'       11.8970   82.5460   24.9700 O.3   202  CTP202     -0.3112
     18  PA        10.3010   82.7060   24.7680 P.3   202  CTP202      0.2189
     19  O1A        9.8690   81.7270   23.7030 O.2   202  CTP202     -0.5170
     20  O2A        9.9600   84.1200   24.3700 O.3   202  CTP202     -0.4371
     21  O3A        9.6000   82.2900   26.1600 O.3   202  CTP202     -0.2700
     22  PB         8.4910   81.1190   26.2140 P.3   202  CTP202      0.2277
     23  O1B        8.0370   80.8960   27.6390 O.3   202  CTP202     -0.4368
     24  O2B        7.3190   81.4410   25.3150 O.2   202  CTP202     -0.5168
     25  O3B        9.2370   79.8020   25.6700 O.3   202  CTP202     -0.2258
     26  PG         8.8540   78.3470   26.2460 P.3   202  CTP202      0.5373
     27  O1G        9.6890   77.3210   25.5160 O.2   202  CTP202     -0.2221
     28  O2G        7.3830   78.0740   26.0260 O.3   202  CTP202     -0.1143
     29  O3G        9.1610   78.2890   27.7230 O.3   202  CTP202     -0.1143
@<TRIPOS>BOND
     1     8     4    1
     2    19    18    2
     3     5     4    1
     4     5     6    2
     5     4     3    2
     6    20    18    1
     7     6     1    1
     8    18    17    1
     9    18    21    1
    10     3     2    2
    11    17    16    1
    12    24    22    2
    13    16    13    1
    14    14    13    1
    15    14     9    1
    16    27    26    2
    17     1     2   am
    18     1     9    1
    19    25    22    1
    20    25    26    1
    21     2     7    2
    22    28    26    1
    23    13    12    1
    24    21    22    1
    25    22    23    1
    26    26    29    1
    27     9    10    1
    28    10    12    1
    29    10    11    1
    30    12    15    1
