@<TRIPOS>MOLECULE
4fyx_DCP_B_1.pdb
 28 29 0 0 0
SMALL
GASTEIGER

@<TRIPOS>ATOM
      1  N1        15.1420   84.1710   25.9630 N.am  203  DCP203     -0.1802
      2  C2        16.3150   84.8220   26.0540 C.1   203  DCP203      0.2756
      3  N3        16.5240   85.9520   25.3560 N.2   203  DCP203     -0.3024
      4  C4        15.5800   86.4590   24.5510 C.2   203  DCP203      0.2346
      5  C5        14.3540   85.7980   24.4380 C.2   203  DCP203      0.0687
      6  C6        14.1520   84.6230   25.1690 C.2   203  DCP203      0.0835
      7  O2        17.2040   84.4090   26.7720 O.2   203  DCP203     -0.1925
      8  N4        15.8450   87.6730   23.8120 N.pl3 203  DCP203     -0.0921
      9  C1'       14.9230   82.9240   26.7240 C.3   203  DCP203      0.2090
     10  C2'       13.8110   82.9950   27.7000 C.3   203  DCP203      0.0874
     11  C3'       13.3550   81.6710   27.8010 C.3   203  DCP203      0.1857
     12  C4'       13.7070   81.0190   26.5160 C.3   203  DCP203      0.1773
     13  O4'       14.6150   81.8640   25.8720 O.3   203  DCP203     -0.3339
     14  O3'       14.0190   81.0110   28.8550 O.3   203  DCP203     -0.2203
     15  C5'       12.5100   80.8980   25.6860 C.3   203  DCP203      0.1812
     16  O5'       11.7950   82.0960   25.4530 O.3   203  DCP203     -0.3112
     17  PA        10.2310   82.1350   25.4140 P.3   203  DCP203      0.2189
     18  O1A        9.7270   81.4010   24.2490 O.2   203  DCP203     -0.5170
     19  O2A        9.8590   83.6220   25.3140 O.3   203  DCP203     -0.4371
     20  O3A        9.6140   81.5010   26.7720 O.3   203  DCP203     -0.2700
     21  PB         8.4280   80.5080   26.7980 P.3   203  DCP203      0.2277
     22  O1B        7.2520   81.1360   26.2300 O.2   203  DCP203     -0.5168
     23  O2B        8.1310   80.1360   28.2880 O.3   203  DCP203     -0.4368
     24  O3B        8.7650   79.2190   25.9530 O.3   203  DCP203     -0.2258
     25  PG         8.7470   77.7900   26.5250 P.3   203  DCP203      0.5373
     26  O1G        7.3490   77.2310   26.5580 O.3   203  DCP203     -0.1143
     27  O2G        9.5560   76.9380   25.6280 O.2   203  DCP203     -0.2221
     28  O3G        9.3090   77.7480   27.9090 O.3   203  DCP203     -0.1143
@<TRIPOS>BOND
     1     8     4    1
     2    18    17    2
     3     5     4    1
     4     5     6    2
     5     4     3    2
     6     6     1    1
     7    19    17    1
     8     3     2    2
     9    17    16    1
    10    17    20    1
    11    16    15    1
    12    27    25    2
    13    15    12    1
    14    13    12    1
    15    13     9    1
    16    24    25    1
    17    24    21    1
    18     1     2   am
    19     1     9    1
    20     2     7    2
    21    22    21    2
    22    12    11    1
    23    25    26    1
    24    25    28    1
    25     9    10    1
    26    20    21    1
    27    21    23    1
    28    10    11    1
    29    11    14    1
