@<TRIPOS>MOLECULE
4fyx_UTP_B_1.pdb
 29 30 0 0 0
SMALL
GASTEIGER

@<TRIPOS>ATOM
      1  PA        10.3140   81.3260   33.1320 P.3   202  UTP202      0.2189
      2  O1A       11.1490   80.2550   32.5120 O.3   202  UTP202     -0.4371
      3  O2A       10.2560   82.4680   32.2050 O.2   202  UTP202     -0.5170
      4  O3A        8.8900   80.7880   33.4870 O.3   202  UTP202     -0.2700
      5  O5'       11.0040   81.8220   34.4460 O.3   202  UTP202     -0.3112
      6  PB         8.2620   79.5550   32.7930 P.3   202  UTP202      0.2277
      7  O1B        8.2890   79.8570   31.2770 O.2   202  UTP202     -0.5168
      8  O2B        6.8590   79.3140   33.2380 O.3   202  UTP202     -0.4368
      9  O3B        9.1070   78.3040   33.1750 O.3   202  UTP202     -0.2258
     10  PG         8.9880   76.9050   32.4010 P.3   202  UTP202      0.5373
     11  O1G       10.1520   76.0480   32.7880 O.3   202  UTP202     -0.1143
     12  O2G        7.7320   76.1510   32.7630 O.3   202  UTP202     -0.1143
     13  O3G        9.0260   77.1770   30.8690 O.2   202  UTP202     -0.2221
     14  C5'       11.3060   80.9160   35.5120 C.3   202  UTP202      0.1813
     15  C4'       12.4260   81.3140   36.4120 C.3   202  UTP202      0.1799
     16  O4'       13.6290   81.2670   35.7060 O.3   202  UTP202     -0.3320
     17  C1'       14.1320   82.5540   35.5700 C.3   202  UTP202      0.2401
     18  C2'       13.0460   83.4740   36.0200 C.3   202  UTP202      0.2319
     19  O2'       13.5830   84.6190   36.6720 O.3   202  UTP202     -0.2157
     20  C3'       12.2510   82.7150   36.8850 C.3   202  UTP202      0.2158
     21  O3'       12.7150   82.8520   38.1960 O.3   202  UTP202     -0.2175
     22  N1        14.5610   82.8470   34.1880 N.am  202  UTP202     -0.1766
     23  C6        13.8580   82.3120   33.1790 C.2   202  UTP202      0.0929
     24  C2        15.6470   83.7110   33.9190 C.1   202  UTP202      0.2845
     25  O2        16.3190   84.2290   34.8440 O.2   202  UTP202     -0.1918
     26  N3        15.9780   83.9790   32.6540 N.2   202  UTP202     -0.2452
     27  C4        15.3010   83.4550   31.6160 C.1   202  UTP202      0.2182
     28  O4        15.6480   83.7310   30.4370 O.2   202  UTP202     -0.2085
     29  C5        14.2190   82.6020   31.8640 C.2   202  UTP202      0.1242
@<TRIPOS>BOND
     1    28    27    2
     2    13    10    2
     3     7     6    2
     4    27    29    1
     5    27    26    2
     6    29    23    2
     7     3     1    2
     8    10    12    1
     9    10    11    1
    10    10     9    1
    11     2     1    1
    12    26    24    2
    13     6     9    1
    14     6     8    1
    15     6     4    1
    16     1     4    1
    17     1     5    1
    18    23    22    1
    19    24    22   am
    20    24    25    2
    21    22    17    1
    22     5    14    1
    23    14    15    1
    24    17    16    1
    25    17    18    1
    26    16    15    1
    27    18    19    1
    28    18    20    1
    29    15    20    1
    30    20    21    1
