@<TRIPOS>MOLECULE
4fyy_UTP_B_1.pdb
 29 30 0 0 0
SMALL
GASTEIGER

@<TRIPOS>ATOM
      1  PA        10.1420   81.3660   33.0670 P.3   202  UTP202      0.2189
      2  O1A       11.0300   80.3970   32.3610 O.3   202  UTP202     -0.4371
      3  O2A        9.9610   82.5460   32.2100 O.2   202  UTP202     -0.5170
      4  O3A        8.7820   80.7340   33.4860 O.3   202  UTP202     -0.2700
      5  O5'       10.8150   81.8380   34.3830 O.3   202  UTP202     -0.3112
      6  PB         8.0760   79.5650   32.7570 P.3   202  UTP202      0.2277
      7  O1B        8.1280   79.7970   31.2350 O.2   202  UTP202     -0.5168
      8  O2B        6.6500   79.5190   33.1850 O.3   202  UTP202     -0.4368
      9  O3B        8.7810   78.2500   33.2010 O.3   202  UTP202     -0.2258
     10  PG         8.8220   76.9250   32.3030 P.3   202  UTP202      0.5373
     11  O1G        8.7370   77.3040   30.8590 O.2   202  UTP202     -0.2221
     12  O2G        7.6840   76.0120   32.6800 O.3   202  UTP202     -0.1143
     13  O3G       10.1570   76.1750   32.5910 O.3   202  UTP202     -0.1143
     14  C5'       11.1760   80.9170   35.4160 C.3   202  UTP202      0.1813
     15  C4'       12.2320   81.3700   36.3700 C.3   202  UTP202      0.1799
     16  O4'       13.4730   81.3330   35.7300 O.3   202  UTP202     -0.3320
     17  C1'       13.8960   82.6370   35.5260 C.3   202  UTP202      0.2401
     18  C2'       12.7710   83.5330   35.9180 C.3   202  UTP202      0.2319
     19  O2'       13.2530   84.6990   36.5600 O.3   202  UTP202     -0.2157
     20  C3'       12.0020   82.7810   36.8030 C.3   202  UTP202      0.2158
     21  O3'       12.4570   83.0170   38.1060 O.3   202  UTP202     -0.2175
     22  N1        14.3550   82.8550   34.1390 N.am  202  UTP202     -0.1766
     23  C6        13.7290   82.2150   33.1460 C.2   202  UTP202      0.0929
     24  C2        15.4040   83.7410   33.8630 C.1   202  UTP202      0.2845
     25  O2        15.9990   84.3390   34.7870 O.2   202  UTP202     -0.1918
     26  N3        15.7840   83.9360   32.6050 N.2   202  UTP202     -0.2452
     27  C4        15.1780   83.3140   31.5870 C.1   202  UTP202      0.2182
     28  O4        15.5600   83.5180   30.4140 O.2   202  UTP202     -0.2085
     29  C5        14.1400   82.4290   31.8350 C.2   202  UTP202      0.1242
@<TRIPOS>BOND
     1    28    27    2
     2    11    10    2
     3     7     6    2
     4    27    29    1
     5    27    26    2
     6    29    23    2
     7     3     1    2
     8    10    13    1
     9    10    12    1
    10    10     9    1
    11     2     1    1
    12    26    24    2
    13     6     8    1
    14     6     9    1
    15     6     4    1
    16     1     4    1
    17     1     5    1
    18    23    22    1
    19    24    22   am
    20    24    25    2
    21    22    17    1
    22     5    14    1
    23    14    15    1
    24    17    16    1
    25    17    18    1
    26    16    15    1
    27    18    19    1
    28    18    20    1
    29    15    20    1
    30    20    21    1
