@<TRIPOS>MOLECULE
4fyy_CTP_B_1.pdb
 29 30 0 0 0
SMALL
GASTEIGER

@<TRIPOS>ATOM
      1  N1        14.6800   84.0270   25.7730 N.am  203  CTP203     -0.1778
      2  C2        15.8630   84.7140   25.9150 C.1   203  CTP203      0.2756
      3  N3        16.1300   85.8170   25.1390 N.2   203  CTP203     -0.3024
      4  C4        15.1900   86.2680   24.2430 C.2   203  CTP203      0.2346
      5  C5        13.9930   85.5760   24.0980 C.2   203  CTP203      0.0687
      6  C6        13.7490   84.4240   24.8450 C.2   203  CTP203      0.0836
      7  O2        16.6890   84.3360   26.7380 O.2   203  CTP203     -0.1925
      8  N4        15.4550   87.3560   23.5220 N.pl3 203  CTP203     -0.0921
      9  C1'       14.4890   82.8150   26.5860 C.3   203  CTP203      0.2400
     10  C2'       13.3240   82.9730   27.5450 C.3   203  CTP203      0.2319
     11  O2'       13.6700   83.6970   28.7100 O.3   203  CTP203     -0.2157
     12  C3'       12.9680   81.5340   27.8220 C.3   203  CTP203      0.2158
     13  C4'       13.3240   80.8290   26.5280 C.3   203  CTP203      0.1799
     14  O4'       14.1790   81.6880   25.8000 O.3   203  CTP203     -0.3320
     15  O3'       13.8010   81.0340   28.8300 O.3   203  CTP203     -0.2175
     16  C5'       12.0670   80.5370   25.7180 C.3   203  CTP203      0.1813
     17  O5'       11.5710   81.7230   25.1300 O.3   203  CTP203     -0.3112
     18  PA         9.9820   81.9940   25.0270 P.3   203  CTP203      0.2189
     19  O1A        9.7540   83.4730   24.8550 O.3   203  CTP203     -0.4371
     20  O2A        9.4150   81.2120   23.8690 O.2   203  CTP203     -0.5170
     21  O3A        9.4010   81.4980   26.4510 O.3   203  CTP203     -0.2700
     22  PB         8.2050   80.4500   26.6800 P.3   203  CTP203      0.2277
     23  O1B        8.1350   80.1610   28.1600 O.3   203  CTP203     -0.4368
     24  O2B        6.9000   81.0260   26.1840 O.2   203  CTP203     -0.5168
     25  O3B        8.5780   79.1270   25.8300 O.3   203  CTP203     -0.2258
     26  PG         8.4970   77.6240   26.4240 P.3   203  CTP203      0.5373
     27  O1G        9.4040   76.7360   25.5980 O.2   203  CTP203     -0.2221
     28  O2G        8.9450   77.5810   27.8680 O.3   203  CTP203     -0.1143
     29  O3G        7.0840   77.1000   26.3420 O.3   203  CTP203     -0.1143
@<TRIPOS>BOND
     1     8     4    1
     2    20    18    2
     3     5     4    1
     4     5     6    2
     5     4     3    2
     6     6     1    1
     7    19    18    1
     8    18    17    1
     9    18    21    1
    10    17    16    1
    11     3     2    2
    12    27    26    2
    13    16    13    1
    14     1     2   am
    15     1     9    1
    16    14    13    1
    17    14     9    1
    18    25    26    1
    19    25    22    1
    20     2     7    2
    21    24    22    2
    22    29    26    1
    23    26    28    1
    24    21    22    1
    25    13    12    1
    26     9    10    1
    27    22    23    1
    28    10    12    1
    29    10    11    1
    30    12    15    1
