@<TRIPOS>MOLECULE
4fyz_HEM_A_1.pdb
 43 50 0 0 0
SMALL
GASTEIGER

@<TRIPOS>ATOM
      1  CHA       -8.8610    4.8160   32.8390 C.2   501  HEM501      0.0000
      2  CHB       -5.3940    1.4020   32.1380 C.2   501  HEM501      0.0000
      3  CHC       -1.8920    4.8760   32.0970 C.2   501  HEM501      0.0000
      4  CHD       -5.2730    8.2340   33.2830 C.2   501  HEM501      0.0000
      5  C1A       -8.2770    3.5740   32.5800 C.ar  501  HEM501      0.0000
      6  C2A       -8.9260    2.2960   32.3190 C.ar  501  HEM501      0.0000
      7  C3A       -7.9590    1.3600   32.1410 C.ar  501  HEM501      0.0000
      8  C4A       -6.6510    1.9930   32.2530 C.ar  501  HEM501      0.0000
      9  CMA       -8.1760   -0.1360   31.8440 C.3   501  HEM501      0.0000
     10  CAA      -10.4550    2.0420   32.2810 C.3   501  HEM501      0.0000
     11  CBA      -11.0630    2.3700   33.6460 C.3   501  HEM501      0.0000
     12  CGA      -12.4600    1.8200   33.7890 C.2   501  HEM501      0.0000
     13  O1A      -13.0030    1.1960   32.8380 O.co2 501  HEM501      0.0000
     14  O2A      -13.0430    1.9970   34.8880 O.co2 501  HEM501      0.0000
     15  C1B       -4.1320    1.9950   32.0130 C.2   501  HEM501      0.0000
     16  C2B       -2.8680    1.3670   31.6570 C.2   501  HEM501      0.0000
     17  C3B       -1.8980    2.3290   31.6550 C.2   501  HEM501      0.0000
     18  C4B       -2.5000    3.6160   31.9930 C.2   501  HEM501      0.0000
     19  CMB       -2.7440   -0.1500   31.3610 C.3   501  HEM501      0.0000
     20  CAB       -0.3860    2.2050   31.3370 C.2   501  HEM501      0.0000
     21  CBB        0.1370    1.1520   30.7030 C.2   501  HEM501      0.0000
     22  C1C       -2.4650    6.1250   32.3880 C.ar  501  HEM501      0.0000
     23  C2C       -1.8440    7.4400   32.4610 C.ar  501  HEM501      0.0000
     24  C3C       -2.7920    8.3600   32.7800 C.ar  501  HEM501      0.0000
     25  C4C       -4.0480    7.6710   32.9410 C.ar  501  HEM501      0.0000
     26  CMC       -0.3420    7.6740   32.1920 C.3   501  HEM501      0.0000
     27  CAC       -2.7060    9.8940   33.0050 C.2   501  HEM501      0.0000
     28  CBC       -1.5620   10.5690   33.1500 C.2   501  HEM501      0.0000
     29  C1D       -6.5450    7.6580   33.3070 C.2   501  HEM501      0.0000
     30  C2D       -7.7710    8.3210   33.6570 C.2   501  HEM501      0.0000
     31  C3D       -8.8870    7.2720   33.5330 C.2   501  HEM501      0.0000
     32  C4D       -8.2540    6.0490   33.1000 C.2   501  HEM501      0.0000
     33  CMD       -7.9150    9.7840   34.0770 C.3   501  HEM501      0.0000
     34  CAD      -10.3830    7.5100   33.7790 C.3   501  HEM501      0.0000
     35  CBD      -10.8910    8.1470   32.4880 C.3   501  HEM501      0.0000
     36  CGD      -12.3810    8.2880   32.5760 C.2   501  HEM501      0.0000
     37  O1D      -12.9860    8.8020   31.5920 O.co2 501  HEM501      0.0000
     38  O2D      -12.9380    7.8830   33.6390 O.co2 501  HEM501      0.0000
     39  NA        -6.9280    3.3100   32.5290 N.ar  501  HEM501      0.0000
     40  NB        -3.8240    3.3240   32.2050 N.2   501  HEM501      0.0000
     41  NC        -3.7810    6.3490   32.6830 N.ar  501  HEM501      0.0000
     42  ND        -6.9110    6.3580   32.9890 N.2   501  HEM501      0.0000
     43 FE         -5.3600    4.7570   32.7560 Fe    501  HEM501      0.0000
@<TRIPOS>BOND
     1    21    20    2
     2    20    17    1
     3    19    16    1
     4    37    36   ar
     5    17    16    2
     6    17    18    1
     7    16    15    1
     8     9     7    1
     9    18     3    2
    10    18    40    1
    11    15     2    1
    12    15    40    2
    13     3    22    1
    14     2     8    2
    15     7     8   ar
    16     7     6   ar
    17    26    23    1
    18    40    43    1
    19     8    39   ar
    20    10     6    1
    21    10    11    1
    22     6     5   ar
    23    22    23   ar
    24    22    41   ar
    25    23    24   ar
    26    35    36    1
    27    35    34    1
    28    39     5   ar
    29    39    43    1
    30    36    38   ar
    31     5     1    2
    32    41    43    1
    33    41    25   ar
    34    43    42    1
    35    24    25   ar
    36    24    27    1
    37    13    12   ar
    38     1    32    1
    39    25     4    1
    40    42    32    2
    41    42    29    1
    42    27    28    2
    43    32    31    1
    44     4    29    2
    45    29    30    1
    46    31    30    2
    47    31    34    1
    48    11    12    1
    49    30    33    1
    50    12    14   ar
