@<TRIPOS>MOLECULE
4fyz_CNL_A_1.pdb
 11 12 0 0 0
SMALL
GASTEIGER

@<TRIPOS>ATOM
      1  C1        -6.5790    3.7360   38.0620 C.3   502  CNL502      0.0926
      2  C2        -7.6390    4.2420   37.1450 C.3   502  CNL502      0.0273
      3  C3        -8.6650    3.2140   36.8550 C.3   502  CNL502      0.0047
      4  C4        -8.3790    1.9000   37.4820 C.3   502  CNL502      0.0251
      5  C5        -8.2110    2.0550   38.8890 C.3   502  CNL502      0.0047
      6  C6        -7.1810    3.0700   39.2610 C.3   502  CNL502      0.0273
      7  C7        -5.5780    4.7770   38.4100 C.3   502  CNL502      0.0296
      8  C8        -7.0130    1.4910   36.9470 C.3   502  CNL502      0.0926
      9  C9        -7.0780    1.2790   35.4660 C.3   502  CNL502      0.0296
     10  C10       -6.5050    0.1870   37.5110 C.3   502  CNL502      0.0296
     11  O         -5.9960    2.6850   37.2410 O.3   502  CNL502     -0.3633
@<TRIPOS>BOND
     1     9     8    1
     2     3     2    1
     3     3     4    1
     4     8    11    1
     5     8     4    1
     6     8    10    1
     7     2     1    1
     8    11     1    1
     9     4     5    1
    10     1     7    1
    11     1     6    1
    12     5     6    1
