@<TRIPOS>MOLECULE
4fz6_0VG_A_1.pdb
 28 32 0 0 0
SMALL
GASTEIGER

@<TRIPOS>ATOM
      1  C1         3.7540   -0.6480   15.3380 C.ar  701  0VG701      0.1793
      2  N2         4.6620    0.2190   14.7740 N.ar  701  0VG701     -0.2079
      3  C3         2.4300   -0.7110   14.8520 C.ar  701  0VG701      0.1103
      4  N4         4.2770    1.0560   13.7370 N.ar  701  0VG701     -0.1636
      5  C5         2.0830    0.1350   13.8210 C.ar  701  0VG701      0.0405
      6  C6         3.0430    1.0310   13.2760 C.ar  701  0VG701      0.1027
      7  N7        -0.4690   -1.2080   14.3360 N.2   701  0VG701     -0.3744
      8  C8        -1.7500   -1.4580   14.0720 C.2   701  0VG701      0.1660
      9  N9        -2.4270   -0.6880   13.1160 N.pl3 701  0VG701     -0.2883
     10  N10        4.3660   -1.3020   16.3080 N.ar  701  0VG701     -0.2223
     11  N11        1.5730   -1.6270   15.4910 N.pl3 701  0VG701     -0.1804
     12  C12        0.2330   -1.9030   15.2240 C.2   701  0VG701      0.2043
     13  C13        5.8380    0.0780   15.4390 C.ar  701  0VG701      0.1228
     14  C14        5.6260   -0.8680   16.3840 C.ar  701  0VG701      0.1213
     15  C15        2.7290    1.9970   12.1840 C.ar  701  0VG701      0.0194
     16  C16       -1.7790    0.4830   12.4640 C.3   701  0VG701      0.0749
     17  C17       -3.9110   -0.5490   13.0740 C.3   701  0VG701      0.0928
     18  C18       -2.4130   -2.4890   14.7470 C.3   701  0VG701      0.1009
     19  C19       -0.3770   -2.9450   15.9280 C.2   701  0VG701      0.0454
     20  C20       -1.7160   -3.2430   15.6870 C.2   701  0VG701     -0.0132
     21  C21       -4.1780    0.4900   11.9680 C.3   701  0VG701      0.0232
     22  C22       -2.9360    1.4040   12.0080 C.3   701  0VG701      0.0215
     23  C23        3.7140    2.3520   11.2440 C.ar  701  0VG701      0.0016
     24  C24        1.4720    2.6090   12.1320 C.ar  701  0VG701      0.0016
     25  C25       -0.9450    0.0220   11.2610 C.3   701  0VG701      0.0215
     26  C26        3.4310    3.2760   10.2490 C.ar  701  0VG701      0.0000
     27  C27        1.1960    3.5280   11.1290 C.ar  701  0VG701      0.0000
     28  C28        2.1710    3.8590   10.1960 C.ar  701  0VG701      0.0000
@<TRIPOS>BOND
     1    28    26   ar
     2    28    27   ar
     3    26    23   ar
     4    27    24   ar
     5    23    15   ar
     6    25    16    1
     7    21    22    1
     8    21    17    1
     9    22    16    1
    10    24    15   ar
    11    15     6    1
    12    16     9    1
    13    17     9    1
    14     9     8    1
    15     6     4   ar
    16     6     5   ar
    17     4     2   ar
    18     5     3   ar
    19     8     7    2
    20     8    18    1
    21     7    12    2
    22    18    20    1
    23     2     1   ar
    24     2    13   ar
    25     3     1   ar
    26     3    11    1
    27    12    11    1
    28    12    19    1
    29     1    10   ar
    30    13    14   ar
    31    20    19    2
    32    10    14   ar
