@<TRIPOS>MOLECULE
4fz9_BMA_A_1.pdb
 11 11 0 0 0
SMALL
GASTEIGER

@<TRIPOS>ATOM
      1  C1       -14.3430  -18.6050    6.6770 C.3   305  BMA305      0.1777
      2  C2       -14.5230  -19.5590    7.8830 C.3   305  BMA305      0.2141
      3  C3       -13.2680  -20.4500    8.0200 C.3   305  BMA305      0.2173
      4  C4       -12.8810  -21.2000    6.7450 C.3   305  BMA305      0.2142
      5  C5       -13.1600  -20.3950    5.4730 C.3   305  BMA305      0.1810
      6  C6       -14.3460  -20.8860    4.6360 C.3   305  BMA305      0.2141
      7  O2       -15.7460  -20.3120    7.8140 O.3   305  BMA305     -0.2176
      8  O3       -13.3330  -21.3830    9.1160 O.3   305  BMA305     -0.2175
      9  O4       -11.4660  -21.3870    6.8100 O.3   305  BMA305     -0.2176
     10  O5       -13.2880  -19.0030    5.7820 O.3   305  BMA305     -0.3481
     11  O6       -14.3580  -20.1220    3.4150 O.3   305  BMA305     -0.2176
@<TRIPOS>BOND
     1    11     6    1
     2     6     5    1
     3     5    10    1
     4     5     4    1
     5    10     1    1
     6     1     2    1
     7     4     9    1
     8     4     3    1
     9     7     2    1
    10     2     3    1
    11     3     8    1
