@<TRIPOS>MOLECULE
4fz9_NAG_A_1.pdb
 15 15 0 0 0
SMALL
GASTEIGER

@<TRIPOS>ATOM
      1  C1       -17.3340  -15.0860    4.3420 C.3   304  NAG304      0.2917
      2  C2       -16.0950  -15.3650    3.4850 C.3   304  NAG304      0.1871
      3  C3       -15.4920  -16.6870    3.9870 C.3   304  NAG304      0.2095
      4  C4       -15.3840  -16.7970    5.5270 C.3   304  NAG304      0.2136
      5  C5       -16.5060  -16.0430    6.2590 C.3   304  NAG304      0.1835
      6  C6       -16.2150  -15.7990    7.7410 C.3   304  NAG304      0.2142
      7  C7       -17.2050  -15.1280    1.1520 C.2   304  NAG304      0.2421
      8  C8       -18.5580  -14.6680    1.6010 C.3   304  NAG304      0.0964
      9  N2       -16.2100  -15.4100    2.0170 N.am  304  NAG304     -0.1991
     10  O1       -18.1310  -13.9930    3.9360 O.3   304  NAG304     -0.1879
     11  O3       -14.2270  -16.8490    3.3810 O.3   304  NAG304     -0.2183
     12  O4       -15.4560  -18.1520    5.9580 O.3   304  NAG304     -0.2176
     13  O5       -16.8110  -14.8190    5.6230 O.3   304  NAG304     -0.3242
     14  O6       -14.9130  -15.3000    7.9470 O.3   304  NAG304     -0.2176
     15  O7       -17.0440  -15.2380   -0.0550 O.2   304  NAG304     -0.2733
@<TRIPOS>BOND
     1    15     7    2
     2     7     8    1
     3     7     9   am
     4     9     2    1
     5    11     3    1
     6     2     3    1
     7     2     1    1
     8    10     1    1
     9     3     4    1
    10     1    13    1
    11     4    12    1
    12     4     5    1
    13    13     5    1
    14     5     6    1
    15     6    14    1
