@<TRIPOS>MOLECULE
4fzc_III_c_1.pdb
 38 38 0 0 0
SMALL
GASTEIGER

@<TRIPOS>ATOM
      1  O1        58.9450 -134.3180   36.6260 O.2     1  0W51       -0.2684
      2  C2        59.1590 -134.3730   35.4160 C.2     1  0W51        0.2654
      3  C27       57.9880 -134.1370   34.5320 C.2     1  0W51        0.0595
      4  C28       56.7430 -133.8450   34.9890 C.2     1  0W51        0.0044
      5  C29       55.5940 -133.6910   34.0820 C.2     1  0W51       -0.0044
      6  C30       54.3270 -133.3790   34.4180 C.2     1  0W51       -0.0261
      7  C31       53.3120 -133.3810   33.3080 C.3     1  0W51        0.0260
      8  C32       51.9910 -132.6150   33.4800 C.3     1  0W51        0.0047
      9  C33       51.2240 -132.9500   32.1690 C.3     1  0W51        0.0003
     10  C34       49.8010 -132.3660   31.9770 C.3     1  0W51        0.0000
     11  C35       49.3080 -132.9350   30.6010 C.3     1  0W51        0.0000
     12  C36       47.8800 -132.5350   30.1100 C.3     1  0W51        0.0000
     13  C37       47.7130 -130.9910   29.9410 C.3     1  0W51        0.0000
     14  C38       47.6000 -133.2350   28.7380 C.3     1  0W51        0.0000
     15  N         60.4160 -134.6490   34.8590 N.am    2  THR2       -0.1913
     16  CA        61.7040 -134.9280   35.6130 C.3     2  THR2        0.2031
     17  C         61.5020 -134.9370   37.1480 C.2     2  THR2        0.2648
     18  O         61.3660 -133.8760   37.7550 O.2     2  THR2       -0.2714
     19  CB        62.8940 -133.9720   35.2560 C.3     2  THR2        0.1808
     20  OG1       62.5850 -132.6680   35.7220 O.3     2  THR2       -0.2208
     21  CG2       63.1630 -133.9040   33.7370 C.3     2  THR2        0.0379
     22  N         61.4590 -136.1500   37.7530 N.am    3  LYO3       -0.1886
     23  CA        61.2470 -136.3030   39.1920 C.3     3  LYO3        0.2026
     24  C         62.5320 -136.1300   39.9880 C.1     3  LYO3        0.1457
     25  O         63.6170 -136.2480   39.4130 O.2     3  LYO3       -0.2253
     26  CB        60.6840 -137.7290   39.5030 C.3     3  LYO3        0.0716
     27  CG        59.4490 -137.7320   40.4470 C.3     3  LYO3        0.1569
     28  OG        58.4130 -136.9920   39.7860 O.3     3  LYO3       -0.2230
     29  CD        58.9710 -139.1770   40.7640 C.3     3  LYO3        0.0601
     30  CE        59.7150 -139.8280   41.9880 C.3     3  LYO3        0.1402
     31  NZ        61.1040 -139.3760   42.1290 N.2     3  LYO3       -0.2062
     32  N14       62.3860 -135.8740   41.3210 N.2     4  0W64       -0.2069
     33  C15       63.5210 -135.7150   42.2260 C.3     4  0W64        0.1157
     34  C16       63.6000 -134.2320   42.6710 C.3     4  0W64        0.0272
     35  C17       63.3380 -136.6600   43.4550 C.3     4  0W64        0.0428
     36  C18       63.0040 -138.1400   43.0820 C.3     4  0W64        0.1237
     37  C19       61.5380 -138.5130   43.1190 C.1     4  0W64        0.1261
     38  O20       60.8080 -138.0270   44.0040 O.2     4  0W64       -0.2270
@<TRIPOS>BOND
     1    14    12    1
     2    13    12    1
     3    12    11    1
     4    11    10    1
     5    10     9    1
     6     9     8    1
     7     7     8    1
     8     7     6    1
     9    21    19    1
    10     5     6    2
    11     5     4    1
    12     3     4    2
    13     3     2    1
    14    15     2   am
    15    15    16    1
    16    19    16    1
    17    19    20    1
    18     2     1    2
    19    16    17    1
    20    17    22   am
    21    17    18    2
    22    22    23    1
    23    23    26    1
    24    23    24    1
    25    25    24    2
    26    26    27    1
    27    28    27    1
    28    24    32    2
    29    27    29    1
    30    29    30    1
    31    32    33    1
    32    30    31    1
    33    31    37    2
    34    33    34    1
    35    33    35    1
    36    36    37    1
    37    36    35    1
    38    37    38    2
