@<TRIPOS>MOLECULE
4fzd_III_C_1.pdb
 47 49 0 0 0
SMALL
GASTEIGER

@<TRIPOS>ATOM
      1  N         27.9930  -83.5920  -61.9450 N.3   323  GLU323     -0.1231
      2  CA        28.1720  -82.7210  -60.7840 C.3   323  GLU323      0.1699
      3  C         28.3520  -81.2620  -61.2050 C.2   323  GLU323      0.2592
      4  O         29.2320  -80.9340  -62.0090 O.2   323  GLU323     -0.2718
      5  CB        29.3180  -83.2270  -59.8800 C.3   323  GLU323      0.0402
      6  CG        30.7510  -82.8160  -60.2490 C.3   323  GLU323      0.1161
      7  CD        31.1850  -83.2210  -61.6560 C.2   323  GLU323      0.3649
      8  OE1       30.7570  -84.2850  -62.1570 O.co2 323  GLU323     -0.2457
      9  OE2       31.9720  -82.4620  -62.2640 O.co2 323  GLU323     -0.2457
     10  N         27.5000  -80.3930  -60.6660 N.am  324  TRP324     -0.1962
     11  CA        27.4750  -78.9810  -61.0590 C.3   324  TRP324      0.1771
     12  C         28.7290  -78.2470  -60.6870 C.2   324  TRP324      0.2620
     13  O         29.3800  -78.5690  -59.6930 O.2   324  TRP324     -0.2715
     14  CB        26.2550  -78.2770  -60.4710 C.3   324  TRP324      0.0590
     15  CG        24.9590  -79.0170  -60.6980 C.2   324  TRP324      0.0003
     16  CD1       24.0630  -79.4690  -59.7340 C.2   324  TRP324      0.0946
     17  CD2       24.3740  -79.4310  -61.9840 C.2   324  TRP324      0.0113
     18  NE1       22.9940  -80.1090  -60.3150 N.2   324  TRP324     -0.2442
     19  CE2       23.1160  -80.1220  -61.6590 C.2   324  TRP324      0.0804
     20  CE3       24.7470  -79.3000  -63.3200 C.2   324  TRP324     -0.0202
     21  CZ2       22.2910  -80.6490  -62.6430 C.2   324  TRP324      0.0148
     22  CZ3       23.9090  -79.8360  -64.3020 C.3   324  TRP324      0.0521
     23  CH2       22.7100  -80.4940  -63.9700 C.2   324  TRP324     -0.0199
     24  N         29.0880  -77.2580  -61.4970 N.am  325  SER325     -0.1936
     25  CA        30.2350  -76.4120  -61.1960 C.3   325  SER325      0.2055
     26  C         29.7610  -74.9930  -60.9010 C.2   325  SER325      0.2643
     27  O         29.2200  -74.3010  -61.7870 O.2   325  SER325     -0.2714
     28  CB        31.2480  -76.4270  -62.3460 C.3   325  SER325      0.2130
     29  OG        32.4130  -75.6910  -62.0090 O.3   325  SER325     -0.2179
     30  N         29.9500  -74.5770  -59.6450 N.am  326  PHE326     -0.1959
     31  CA        29.5890  -73.2280  -59.2180 C.3   326  PHE326      0.1771
     32  C         30.8330  -72.3920  -58.9300 C.2   326  PHE326      0.2620
     33  O         30.8920  -71.2110  -59.2790 O.2   326  PHE326     -0.2715
     34  CB        28.6650  -73.2730  -57.9960 C.3   326  PHE326      0.0574
     35  CG        27.3320  -73.9210  -58.2630 C.ar  326  PHE326     -0.0200
     36  CD1       26.3670  -73.2770  -59.0340 C.ar  326  PHE326     -0.0042
     37  CD2       27.0340  -75.1730  -57.7340 C.ar  326  PHE326     -0.0042
     38  CE1       25.1360  -73.8750  -59.2730 C.ar  326  PHE326     -0.0003
     39  CE2       25.8020  -75.7740  -57.9720 C.ar  326  PHE326     -0.0003
     40  CZ        24.8520  -75.1250  -58.7430 C.ar  326  PHE326     -0.0000
     41  N         31.8220  -73.0210  -58.2980 N.am  327  THR327     -0.1951
     42  CA        33.1000  -72.3750  -58.0010 C.3   327  THR327      0.1897
     43  C         34.1270  -72.6370  -59.1030 C.2   327  THR327      0.2313
     44  O         34.3700  -71.7140  -59.9610 O.2   327  THR327     -0.2863
     45  CB        33.6670  -72.8120  -56.6240 C.3   327  THR327      0.1794
     46  OG1       34.9910  -72.2850  -56.4600 O.3   327  THR327     -0.2208
     47  CG2       33.7060  -74.3420  -56.4850 C.3   327  THR327      0.0378
@<TRIPOS>BOND
     1    22    23    1
     2    22    20    1
     3    23    21    2
     4    20    17    2
     5    21    19    1
     6    28    29    1
     7    28    25    1
     8     9     7   ar
     9     8     7   ar
    10     4     3    2
    11    17    19    1
    12    17    15    1
    13     1     2    1
    14    27    26    2
    15    19    18    2
    16     7     6    1
    17    24    25    1
    18    24    12   am
    19     3     2    1
    20     3    10   am
    21    25    26    1
    22    11    12    1
    23    11    10    1
    24    11    14    1
    25    26    30   am
    26     2     5    1
    27    15    14    1
    28    15    16    2
    29    12    13    2
    30    18    16    1
    31     6     5    1
    32    44    43    2
    33    30    31    1
    34    33    32    2
    35    38    36   ar
    36    38    40   ar
    37    31    32    1
    38    31    34    1
    39    43    42    1
    40    36    35   ar
    41    32    41   am
    42    40    39   ar
    43    41    42    1
    44    35    34    1
    45    35    37   ar
    46    42    45    1
    47    39    37   ar
    48    45    47    1
    49    45    46    1
