@<TRIPOS>MOLECULE
4fzf_DKI_B_1.pdb
 28 30 0 0 0
SMALL
GASTEIGER

@<TRIPOS>ATOM
      1  FAF       39.6750 -107.8710   -5.2350 F     301  DKI301     -0.2027
      2  CAU       40.1710 -106.6260   -5.3450 C.ar  301  DKI301      0.1575
      3  CAI       41.5380 -106.4560   -5.1650 C.ar  301  DKI301      0.0311
      4  CAH       42.1360 -105.2020   -5.2650 C.ar  301  DKI301      0.0047
      5  CAJ       41.4050 -104.0510   -5.5530 C.ar  301  DKI301      0.0311
      6  CAV       40.0370 -104.1190   -5.7530 C.ar  301  DKI301      0.1575
      7  FAG       39.3780 -102.9940   -6.0220 F     301  DKI301     -0.2027
      8  CAZ       39.3210 -105.4230   -5.6480 C.ar  301  DKI301      0.1271
      9  NAQ       37.9690 -105.5100   -5.8480 N.am  301  DKI301     -0.1854
     10  CAS       36.9870 -104.9060   -5.1360 C.2   301  DKI301      0.1862
     11  SAE       37.0610 -103.3700   -4.7830 S.2   301  DKI301     -0.0145
     12  NBA       35.8700 -105.6440   -4.7940 N.am  301  DKI301     -0.1152
     13  NAP       35.8610 -107.0290   -4.6610 N.2   301  DKI301     -0.0877
     14  CAT       34.6320 -105.1830   -4.6200 C.2   301  DKI301      0.3142
     15  NAA       34.2700 -103.8840   -4.6920 N.pl3 301  DKI301     -0.0755
     16  NAO       33.7510 -106.1590   -4.3420 N.2   301  DKI301     -0.2988
     17  CAX       34.5480 -107.2560   -4.3770 C.1   301  DKI301      0.1878
     18  NAR       34.0370 -108.4970   -4.1450 N.pl3 301  DKI301     -0.1347
     19  CAW       34.8120 -109.5980   -4.0270 C.ar  301  DKI301      0.0827
     20  CAL       34.3320 -110.7040   -3.3380 C.ar  301  DKI301      0.0187
     21  CAN       35.1360 -111.8420   -3.2130 C.ar  301  DKI301      0.0214
     22  CAK       36.0860 -109.6390   -4.5930 C.ar  301  DKI301      0.0187
     23  CAM       36.8940 -110.7640   -4.4730 C.ar  301  DKI301      0.0214
     24  CAY       36.4260 -111.8780   -3.7710 C.ar  301  DKI301      0.1251
     25  SBB       37.3470 -113.1920   -3.6280 S.O2  301  DKI301      0.0935
     26  OAC       36.6240 -114.2690   -4.2560 O.2   301  DKI301     -0.1503
     27  OAD       37.6080 -113.5090   -2.2460 O.2   301  DKI301     -0.1503
     28  NAB       38.7430 -112.9950   -4.3940 N.3   301  DKI301      0.0392
@<TRIPOS>BOND
     1     7     6    1
     2     9     8    1
     3     9    10    1
     4     6     8   ar
     5     6     5   ar
     6     8     2   ar
     7     5     4   ar
     8     2     1    1
     9     2     3   ar
    10     4     3   ar
    11    10    12    1
    12    10    11    2
    13    12    13    1
    14    12    14    1
    15    15    14    1
    16    13    17    2
    17    14    16    2
    18    22    23   ar
    19    22    19   ar
    20    23    24   ar
    21    28    25    1
    22    17    16    2
    23    17    18    1
    24    26    25    2
    25    18    19    1
    26    19    20   ar
    27    24    25    1
    28    24    21   ar
    29    25    27    2
    30    20    21   ar
