@<TRIPOS>MOLECULE
4fzg_III_c_1.pdb
 37 37 0 0 0
SMALL
GASTEIGER

@<TRIPOS>ATOM
      1  C         58.7260 -134.5790   35.3740 C.2     1  MH91        0.2654
      2  O         58.3840 -135.3340   36.2910 O.2     1  MH91       -0.2684
      3  C1        57.6460 -133.9070   34.6030 C.2     1  MH91        0.0595
      4  C2        56.3220 -134.0450   34.8340 C.2     1  MH91        0.0044
      5  C3        55.3170 -133.3650   33.9950 C.2     1  MH91       -0.0044
      6  C4        53.9800 -133.4270   34.1480 C.2     1  MH91       -0.0261
      7  C5        53.0960 -132.6930   33.1600 C.3     1  MH91        0.0260
      8  C6        51.6120 -133.1300   33.1930 C.3     1  MH91        0.0047
      9  C7        50.8250 -132.3580   32.0920 C.3     1  MH91        0.0003
     10  C8        49.3150 -132.7310   32.0290 C.3     1  MH91        0.0000
     11  C9        48.6320 -131.9540   30.8580 C.3     1  MH91        0.0000
     12  C10       47.1110 -132.2630   30.6700 C.3     1  MH91        0.0000
     13  C11       46.5460 -131.4590   29.4540 C.3     1  MH91        0.0000
     14  N         60.0590 -134.3290   35.0350 N.am    2  THR2       -0.1913
     15  CA        61.2470 -134.9280   35.7180 C.3     2  THR2        0.2031
     16  C         61.0560 -134.9680   37.2510 C.2     2  THR2        0.2648
     17  O         60.6980 -133.9480   37.8510 O.2     2  THR2       -0.2714
     18  CB        62.5910 -134.1980   35.3940 C.3     2  THR2        0.1808
     19  OG1       62.5310 -132.8930   35.9550 O.3     2  THR2       -0.2208
     20  CG2       62.8420 -134.0920   33.8740 C.3     2  THR2        0.0379
     21  N         61.2710 -136.1600   37.8550 N.am    3  LYO3       -0.1886
     22  CA        61.0990 -136.3570   39.2880 C.3     3  LYO3        0.2026
     23  C         62.3890 -136.2010   40.0600 C.1     3  LYO3        0.1457
     24  O         63.4700 -136.3180   39.4690 O.2     3  LYO3       -0.2253
     25  CB        60.5710 -137.7960   39.5830 C.3     3  LYO3        0.0716
     26  CG        59.3270 -137.8440   40.5050 C.3     3  LYO3        0.1569
     27  OG        58.2860 -137.1230   39.8270 O.3     3  LYO3       -0.2230
     28  CD        58.8880 -139.3060   40.8090 C.3     3  LYO3        0.0601
     29  CE        59.5910 -139.9340   42.0660 C.3     3  LYO3        0.1402
     30  NZ        60.9640 -139.4570   42.2490 N.2     3  LYO3       -0.2062
     31  N14       62.2500 -135.9630   41.3960 N.2     4  0W64       -0.2069
     32  C15       63.3810 -135.8220   42.2960 C.3     4  0W64        0.1157
     33  C16       63.5420 -134.3330   42.6560 C.3     4  0W64        0.0272
     34  C17       63.1480 -136.7070   43.5720 C.3     4  0W64        0.0428
     35  C18       62.8220 -138.1980   43.2470 C.3     4  0W64        0.1237
     36  C19       61.3580 -138.5890   43.2480 C.1     4  0W64        0.1261
     37  O20       60.5990 -138.1210   44.1080 O.2     4  0W64       -0.2270
@<TRIPOS>BOND
     1    13    12    1
     2    12    11    1
     3    11    10    1
     4    10     9    1
     5     9     8    1
     6     7     8    1
     7     7     6    1
     8    20    18    1
     9     5     6    2
    10     5     4    1
    11     3     4    2
    12     3     1    1
    13    14     1   am
    14    14    15    1
    15     1     2    2
    16    18    15    1
    17    18    19    1
    18    15    16    1
    19    16    17    2
    20    16    21   am
    21    21    22    1
    22    22    25    1
    23    22    23    1
    24    24    23    2
    25    25    26    1
    26    27    26    1
    27    23    31    2
    28    26    28    1
    29    28    29    1
    30    31    32    1
    31    29    30    1
    32    30    36    2
    33    32    33    1
    34    32    34    1
    35    35    36    1
    36    35    34    1
    37    36    37    2
