@<TRIPOS>MOLECULE
4fzi_GLU_A_1.pdb
 10 9 0 0 0
SMALL
GASTEIGER

@<TRIPOS>ATOM
      1  N         10.9480   10.7750   10.3100 N.3   301  GLU301     -0.1208
      2  CA        10.2480    9.7170    9.6460 C.3   301  GLU301      0.1949
      3  C         10.0820   10.0410    8.1590 C.2   301  GLU301      0.3819
      4  O         10.5090    9.2400    7.3490 O.co2 301  GLU301     -0.2441
      5  CB         8.9030    9.5090   10.3620 C.3   301  GLU301      0.0424
      6  CG         8.1740    8.2230   10.0280 C.3   301  GLU301      0.1161
      7  CD         6.7180    8.4510    9.9510 C.2   301  GLU301      0.3649
      8  OE1        6.2850    9.1290    9.0170 O.co2 301  GLU301     -0.2457
      9  OE2        6.0400    7.9740   10.8430 O.co2 301  GLU301     -0.2457
     10  OXT        9.5720   11.0670    7.6850 O.co2 301  GLU301     -0.2441
@<TRIPOS>BOND
     1     4     3   ar
     2    10     3   ar
     3     3     2    1
     4     8     7   ar
     5     2     1    1
     6     2     5    1
     7     7     6    1
     8     7     9   ar
     9     6     5    1
