@<TRIPOS>MOLECULE
4fzv_SAM_A_1.pdb
 27 29 0 0 0
SMALL
GASTEIGER

@<TRIPOS>ATOM
      1  N         85.7470    3.5510   21.2400 N.3   401  SAM401     -0.1208
      2  CA        86.9620    2.7010   21.6810 C.3   401  SAM401      0.1952
      3  C         87.7120    3.4610   22.7530 C.2   401  SAM401      0.3819
      4  O         87.6340    4.7000   22.8630 O.co2 401  SAM401     -0.2441
      5  OXT       88.3980    2.8290   23.5230 O.co2 401  SAM401     -0.2441
      6  CB        88.0010    2.4010   20.6010 C.3   401  SAM401      0.0414
      7  CG        87.1970    1.6180   19.5570 C.3   401  SAM401      0.0503
      8  SD        88.2860    0.9020   18.2980 S.3   401  SAM401     -0.1761
      9  CE        89.0380    2.2610   17.3740 C.3   401  SAM401      0.0590
     10  C5'       87.1480    0.1560   17.0620 C.3   401  SAM401      0.0806
     11  C4'       86.4500   -1.0980   17.6250 C.3   401  SAM401      0.1622
     12  O4'       85.5060   -1.6020   16.6630 O.3   401  SAM401     -0.3153
     13  C3'       87.3800   -2.2880   17.9340 C.3   401  SAM401      0.2168
     14  O3'       87.3750   -2.4760   19.3620 O.3   401  SAM401     -0.2175
     15  C2'       86.7210   -3.4890   17.2240 C.3   401  SAM401      0.2569
     16  O2'       86.5130   -4.6360   18.0510 O.3   401  SAM401     -0.2130
     17  C1'       85.2940   -2.9740   16.9580 C.3   401  SAM401      0.3185
     18  N9        84.5490   -3.5210   15.8120 N.pl3 401  SAM401     -0.1439
     19  C8        85.0620   -3.9480   14.5700 C.3   401  SAM401      0.3377
     20  N7        83.9870   -4.2930   13.8340 N.2   401  SAM401     -0.2095
     21  C5        82.8360   -4.0990   14.5550 C.2   401  SAM401      0.2526
     22  C6        81.4830   -4.2990   14.3000 C.2   401  SAM401      0.4393
     23  N6        81.0340   -4.7940   13.1150 N.pl3 401  SAM401      0.2180
     24  N1        80.5550   -3.9720   15.2530 N.2   401  SAM401      0.0021
     25  C2        80.8960   -3.4530   16.4750 C.3   401  SAM401      0.5254
     26  N3        82.2380   -3.3070   16.7380 N.2   401  SAM401     -0.0055
     27  C4        83.1890   -3.5950   15.7950 C.2   401  SAM401      0.3518
@<TRIPOS>BOND
     1    23    22    1
     2    20    21    2
     3    20    19    1
     4    22    21    1
     5    22    24    2
     6    21    27    1
     7    19    18    1
     8    24    25    1
     9    27    18    1
    10    27    26    2
    11    18    17    1
    12    25    26    1
    13    12    17    1
    14    12    11    1
    15    17    15    1
    16    10    11    1
    17    10     8    1
    18    15    13    1
    19    15    16    1
    20     9     8    1
    21    11    13    1
    22    13    14    1
    23     8     7    1
    24     7     6    1
    25     6     2    1
    26     1     2    1
    27     2     3    1
    28     3     4   ar
    29     3     5   ar
