@<TRIPOS>MOLECULE
4g01_GDP_B_1.pdb
 28 30 0 0 0
SMALL
GASTEIGER

@<TRIPOS>ATOM
      1  PB         6.8460    8.9820    0.1410 P.3   200  GDP200      0.5373
      2  O1B        8.3550    8.7040    0.0450 O.3   200  GDP200     -0.1143
      3  O2B        6.1080    7.8680   -0.5600 O.2   200  GDP200     -0.2221
      4  O3B        6.4610    8.9810    1.5960 O.3   200  GDP200     -0.1143
      5  O3A        6.6330   10.4450   -0.5060 O.3   200  GDP200     -0.2261
      6  PA         5.4860   10.9670   -1.5060 P.3   200  GDP200      0.2231
      7  O1A        5.6180   10.3540   -2.8480 O.2   200  GDP200     -0.5169
      8  O2A        4.0810   10.7290   -1.0420 O.3   200  GDP200     -0.4370
      9  O5'        5.8850   12.5320   -1.5170 O.3   200  GDP200     -0.3111
     10  C5'        5.8380   13.3910   -0.3700 C.3   200  GDP200      0.1813
     11  C4'        5.1860   14.7120   -0.7800 C.3   200  GDP200      0.1799
     12  O4'        6.1220   15.4680   -1.5360 O.3   200  GDP200     -0.3326
     13  C3'        3.9780   14.5010   -1.6820 C.3   200  GDP200      0.2158
     14  O3'        3.0020   15.5000   -1.4140 O.3   200  GDP200     -0.2175
     15  C2'        4.4660   14.7870   -3.0650 C.3   200  GDP200      0.2310
     16  O2'        3.4000   15.3410   -3.8310 O.3   200  GDP200     -0.2158
     17  C1'        5.5890   15.7840   -2.8140 C.3   200  GDP200      0.2293
     18  N9         6.6870   15.5690   -3.7630 N.pl3 200  GDP200     -0.2354
     19  C8         7.1960   14.3610   -4.1070 C.3   200  GDP200      0.2246
     20  N7         8.2160   14.5060   -4.9790 N.2   200  GDP200     -0.2322
     21  C5         8.3650   15.8420   -5.1980 C.2   200  GDP200      0.2182
     22  C6         9.2610   16.6880   -6.0140 C.1   200  GDP200      0.2372
     23  O6        10.1450   16.1510   -6.7460 O.2   200  GDP200     -0.2069
     24  N1         9.0940   18.0300   -5.9370 N.2   200  GDP200     -0.2485
     25  C2         8.1410   18.6000   -5.1650 C.1   200  GDP200      0.2531
     26  N2         8.0000   19.9370   -5.1500 N.pl3 200  GDP200     -0.0226
     27  N3         7.2930   17.8880   -4.3960 N.2   200  GDP200     -0.3074
     28  C4         7.3620   16.5320   -4.3780 C.2   200  GDP200      0.2300
@<TRIPOS>BOND
     1    23    22    2
     2    22    24    2
     3    22    21    1
     4    24    25    2
     5    21    20    2
     6    21    28    1
     7    25    26    1
     8    25    27    2
     9    20    19    1
    10    27    28    2
    11    28    18    1
    12    19    18    1
    13    16    15    1
    14    18    17    1
    15    15    17    1
    16    15    13    1
    17     7     6    2
    18    17    12    1
    19    13    14    1
    20    13    11    1
    21    12    11    1
    22     9     6    1
    23     9    10    1
    24     6     8    1
    25     6     5    1
    26    11    10    1
    27     3     1    2
    28     5     1    1
    29     2     1    1
    30     1     4    1
