@<TRIPOS>MOLECULE
4g05_HEM_A_1.pdb
 43 50 0 0 0
SMALL
GASTEIGER

@<TRIPOS>ATOM
      1  CHA       -3.1680   15.9140    1.3740 C.2   401  HEM401      0.0000
      2  CHB       -4.3670   20.4260   -0.2390 C.2   401  HEM401      0.0000
      3  CHC        0.3410   21.1310   -1.3110 C.2   401  HEM401      0.0000
      4  CHD        1.5890   16.7390    0.6320 C.2   401  HEM401      0.0000
      5  C1A       -3.8850   17.1320    1.1390 C.ar  401  HEM401      0.0000
      6  C2A       -5.3350   17.2920    1.4110 C.ar  401  HEM401      0.0000
      7  C3A       -5.6930   18.5900    0.9170 C.ar  401  HEM401      0.0000
      8  C4A       -4.4320   19.1170    0.3590 C.ar  401  HEM401      0.0000
      9  CMA       -7.0430   19.2660    0.9860 C.3   401  HEM401      0.0000
     10  CAA       -6.2690   16.3390    2.0430 C.3   401  HEM401      0.0000
     11  CBA       -6.3880   16.5430    3.5300 C.3   401  HEM401      0.0000
     12  CGA       -7.5830   15.7500    4.0500 C.2   401  HEM401      0.0000
     13  O1A       -8.7750   16.1970    3.8250 O.co2 401  HEM401      0.0000
     14  O2A       -7.3120   14.6900    4.6740 O.co2 401  HEM401      0.0000
     15  C1B       -3.1440   20.9930   -0.7470 C.2   401  HEM401      0.0000
     16  C2B       -3.1550   22.3200   -1.3600 C.2   401  HEM401      0.0000
     17  C3B       -1.7610   22.5150   -1.6430 C.2   401  HEM401      0.0000
     18  C4B       -1.0720   21.3050   -1.2000 C.2   401  HEM401      0.0000
     19  CMB       -4.2950   23.2910   -1.5460 C.3   401  HEM401      0.0000
     20  CAB       -1.1990   23.7540   -2.2400 C.2   401  HEM401      0.0000
     21  CBB       -0.0020   23.7500   -2.8340 C.2   401  HEM401      0.0000
     22  C1C        1.1060   20.0440   -0.7270 C.ar  401  HEM401      0.0000
     23  C2C        2.5830   20.0200   -0.6620 C.ar  401  HEM401      0.0000
     24  C3C        2.9420   18.7470   -0.1150 C.ar  401  HEM401      0.0000
     25  C4C        1.6850   18.0770    0.1780 C.ar  401  HEM401      0.0000
     26  CMC        3.5710   21.0610   -1.0920 C.3   401  HEM401      0.0000
     27  CAC        4.3520   18.3410    0.0640 C.2   401  HEM401      0.0000
     28  CBC        4.7220   17.5080    0.9450 C.2   401  HEM401      0.0000
     29  C1D        0.3330   16.0800    0.8850 C.2   401  HEM401      0.0000
     30  C2D        0.2900   14.6460    1.2470 C.2   401  HEM401      0.0000
     31  C3D       -1.1440   14.4010    1.4710 C.2   401  HEM401      0.0000
     32  C4D       -1.7610   15.7040    1.1910 C.2   401  HEM401      0.0000
     33  CMD        1.4190   13.6730    1.3510 C.3   401  HEM401      0.0000
     34  CAD       -1.8050   13.1200    1.8600 C.3   401  HEM401      0.0000
     35  CBD       -2.0000   12.9990    3.3250 C.3   401  HEM401      0.0000
     36  CGD       -2.5450   11.6290    3.6970 C.2   401  HEM401      0.0000
     37  O1D       -2.6430   11.3590    4.9120 O.co2 401  HEM401      0.0000
     38  O2D       -2.9120   10.8190    2.8240 O.co2 401  HEM401      0.0000
     39  NA        -3.3030   18.2380    0.5410 N.ar  401  HEM401      0.0000
     40  NB        -1.9000   20.4150   -0.6550 N.2   401  HEM401      0.0000
     41  NC         0.5430   18.8630   -0.1580 N.ar  401  HEM401      0.0000
     42  ND        -0.8770   16.7100    0.9110 N.2   401  HEM401      0.0000
     43 FE         -1.4150   18.4700   -0.0910 Fe    401  HEM401      0.0000
@<TRIPOS>BOND
     1    21    20    2
     2    20    17    1
     3    17    16    2
     4    17    18    1
     5    19    16    1
     6    16    15    1
     7     3    18    2
     8     3    22    1
     9    18    40    1
    10    26    23    1
    11    15    40    2
    12    15     2    1
    13    22    23   ar
    14    22    41   ar
    15    23    24   ar
    16    40    43    1
    17     2     8    2
    18    41    43    1
    19    41    25   ar
    20    24    27    1
    21    24    25   ar
    22    43    39    1
    23    43    42    1
    24    27    28    2
    25    25     4    1
    26     8    39   ar
    27     8     7   ar
    28    39     5   ar
    29     4    29    2
    30    29    42    1
    31    29    30    1
    32    42    32    2
    33     7     9    1
    34     7     6   ar
    35     5     1    2
    36     5     6   ar
    37    32     1    1
    38    32    31    1
    39    30    33    1
    40    30    31    2
    41     6    10    1
    42    31    34    1
    43    34    35    1
    44    10    11    1
    45    38    36   ar
    46    35    36    1
    47    11    12    1
    48    36    37   ar
    49    13    12   ar
    50    12    14   ar
