@<TRIPOS>MOLECULE
4g06_DT_A_1.pdb
 21 22 0 0 0
SMALL
GASTEIGER

@<TRIPOS>ATOM
      1  OP3       -2.8630   29.8180  -13.0750 O.3   101  DT101      -0.1145
      2  P         -2.2710   28.6660  -13.8100 P.3   101  DT101       0.5327
      3  OP1       -1.2210   29.2040  -14.7180 O.2   101  DT101      -0.2224
      4  OP2       -3.3690   27.8810  -14.4170 O.3   101  DT101      -0.1145
      5  O5'       -1.5840   27.7320  -12.6970 O.3   101  DT101      -0.2675
      6  C5'       -0.7010   26.6780  -13.0540 C.3   101  DT101       0.1858
      7  C4'        0.1330   26.3370  -11.8450 C.3   101  DT101       0.1774
      8  O4'        1.5280   26.3100  -12.2340 O.3   101  DT101      -0.3339
      9  C3'        0.0040   27.3350  -10.7090 C.3   101  DT101       0.1857
     10  O3'       -0.1630   26.6420   -9.4830 O.3   101  DT101      -0.2203
     11  C2'        1.3120   28.1230  -10.7270 C.3   101  DT101       0.0874
     12  C1'        2.2360   27.4210  -11.7250 C.3   101  DT101       0.2090
     13  N1         2.7480   28.2270  -12.9180 N.am  101  DT101      -0.1794
     14  C2         1.9860   29.2380  -13.5190 C.1   101  DT101       0.2844
     15  O2         0.8720   29.5980  -13.1650 O.2   101  DT101      -0.1918
     16  N3         2.5820   29.8630  -14.5960 N.2   101  DT101      -0.2455
     17  C4         3.8290   29.5980  -15.1390 C.1   101  DT101       0.2134
     18  O4         4.2680   30.2160  -16.1080 O.2   101  DT101      -0.2088
     19  C5         4.5730   28.5420  -14.4890 C.2   101  DT101       0.0891
     20  C7         5.9320   28.1950  -15.0220 C.3   101  DT101       0.0462
     21  C6         4.0060   27.9130  -13.4330 C.2   101  DT101       0.0877
@<TRIPOS>BOND
     1    18    17    2
     2    17    16    2
     3    17    19    1
     4    20    19    1
     5     3     2    2
     6    16    14    2
     7    19    21    2
     8     4     2    1
     9     2     1    1
    10     2     5    1
    11    14    15    2
    12    14    13   am
    13    21    13    1
    14     6     5    1
    15     6     7    1
    16    13    12    1
    17     8     7    1
    18     8    12    1
    19     7     9    1
    20    12    11    1
    21    11     9    1
    22     9    10    1
