@<TRIPOS>MOLECULE
4g0a_NUC_E_1.pdb
 49 54 0 0 0
SMALL
GASTEIGER

@<TRIPOS>ATOM
      1  P        -13.6080   17.5520    5.1350 P.3     1  RG1         0.3942
      2  OP1      -14.1300   16.8680    6.3450 O.3     1  RG1        -0.1425
      3  OP2      -12.8430   16.7750    4.1250 O.3     1  RG1        -0.1425
      4  O5'      -14.7550   18.4110    4.4350 O.3     1  RG1        -0.2926
      5  C5'      -15.3620   19.5050    5.1090 C.3     1  RG1         0.1829
      6  C4'      -16.2990   20.2620    4.2010 C.3     1  RG1         0.1771
      7  O4'      -15.5570   20.8180    3.0880 O.3     1  RG1        -0.3327
      8  C3'      -17.4000   19.4380    3.5490 C.3     1  RG1         0.1857
      9  O3'      -18.5210   19.2560    4.3970 O.3     1  RG1        -0.3112
     10  C2'      -17.7170   20.2280    2.2840 C.3     1  RG1         0.2282
     11  O2'      -18.5820   21.3160    2.5750 O.3     1  RG1        -0.2159
     12  C1'      -16.3410   20.7870    1.9160 C.3     1  RG1         0.2292
     13  N9       -15.6500   19.9550    0.9120 N.pl3   1  RG1        -0.2354
     14  C8       -15.0570   18.7310    1.1050 C.3     1  RG1         0.2246
     15  N7       -14.5200   18.2450    0.0200 N.2     1  RG1        -0.2322
     16  C5       -14.7700   19.2060   -0.9500 C.2     1  RG1         0.2182
     17  C6       -14.4290   19.2360   -2.3270 C.1     1  RG1         0.2372
     18  O6       -13.8130   18.3880   -2.9850 O.2     1  RG1        -0.2069
     19  N1       -14.8790   20.4030   -2.9380 N.2     1  RG1        -0.2485
     20  C2       -15.5690   21.4120   -2.3080 C.1     1  RG1         0.2531
     21  N2       -15.9210   22.4640   -3.0630 N.pl3   1  RG1        -0.0226
     22  N3       -15.8920   21.3930   -1.0270 N.2     1  RG1        -0.3074
     23  C4       -15.4640   20.2690   -0.4140 C.2     1  RG1         0.2300
     24  P        -19.2300   17.8190    4.5110 P.3     2  RG2         0.2141
     25  OP1      -19.5240   17.5890    5.9470 O.3     2  RG2        -0.4373
     26  OP2      -18.3670   16.8470    3.7960 O.2     2  RG2        -0.5172
     27  O5'      -20.5890   18.0300    3.7090 O.3     2  RG2        -0.3114
     28  C5'      -20.6020   18.0780    2.2890 C.3     2  RG2         0.1812
     29  C4'      -22.0040   18.2380    1.7580 C.3     2  RG2         0.1771
     30  O4'      -22.8480   17.1860    2.2920 O.3     2  RG2        -0.3327
     31  C3'      -22.7160   19.5260    2.1450 C.3     2  RG2         0.1874
     32  O3'      -22.3800   20.6150    1.3020 O.3     2  RG2        -0.2924
     33  C2'      -24.1860   19.1350    2.0820 C.3     2  RG2         0.2282
     34  O2'      -24.6490   19.1380    0.7390 O.3     2  RG2        -0.2159
     35  C1'      -24.1360   17.6890    2.5720 C.3     2  RG2         0.2292
     36  N9       -24.3680   17.5870    4.0260 N.pl3   2  RG2        -0.2354
     37  C8       -23.7470   18.3030    5.0210 C.3     2  RG2         0.2246
     38  N7       -24.1610   17.9840    6.2170 N.2     2  RG2        -0.2322
     39  C5       -25.1120   16.9960    5.9990 C.2     2  RG2         0.2182
     40  C6       -25.9070   16.2650    6.9200 C.1     2  RG2         0.2372
     41  O6       -25.9310   16.3480    8.1540 O.2     2  RG2        -0.2069
     42  N1       -26.7380   15.3600    6.2690 N.2     2  RG2        -0.2485
     43  C2       -26.8000   15.1780    4.9100 C.1     2  RG2         0.2531
     44  N2       -27.6690   14.2540    4.4760 N.pl3   2  RG2        -0.0226
     45  N3       -26.0650   15.8530    4.0410 N.2     2  RG2        -0.3074
     46  C4       -25.2500   16.7380    4.6520 C.2     2  RG2         0.2300
     47  P        -22.8630   22.1030    1.6690 P.3     3  RU3         0.3943
     48  OP1      -24.2160   22.2960    1.1020 O.3     3  RU3        -0.1425
     49  OP2      -21.7730   23.0380    1.3100 O.3     3  RU3        -0.1425
@<TRIPOS>BOND
     1    21    20    1
     2    18    17    2
     3    19    17    2
     4    19    20    2
     5    17    16    1
     6    20    22    2
     7    22    23    2
     8    16    23    1
     9    16    15    2
    10    23    13    1
    11    15    14    1
    12    34    33    1
    13    13    14    1
    14    13    12    1
    15    48    47    1
    16    32    47    1
    17    32    31    1
    18    49    47    1
    19    29    31    1
    20    29    28    1
    21    29    30    1
    22    12    10    1
    23    12     7    1
    24    33    31    1
    25    33    35    1
    26    10    11    1
    27    10     8    1
    28    28    27    1
    29    30    35    1
    30    35    36    1
    31     7     6    1
    32     8     6    1
    33     8     9    1
    34    27    24    1
    35    26    24    2
    36    36    46    1
    37    36    37    1
    38    45    46    2
    39    45    43    2
    40     3     1    1
    41     6     5    1
    42     9    24    1
    43     4     5    1
    44     4     1    1
    45    44    43    1
    46    24    25    1
    47    46    39    1
    48    43    42    2
    49    37    38    1
    50     1     2    1
    51    39    38    2
    52    39    40    1
    53    42    40    2
    54    40    41    2
