@<TRIPOS>MOLECULE
4g0k_0VS_A_1.pdb
 33 34 0 0 0
SMALL
GASTEIGER

@<TRIPOS>ATOM
      1  C13      -63.2290   32.3510   30.3630 C.3   411  0VS411      0.0402
      2  C15      -64.4530   32.5430   32.6820 C.2   411  0VS411      0.3819
      3  C20      -58.4430   31.8920   28.6370 C.3   411  0VS411      0.2469
      4  C22      -57.7580   33.5630   26.9010 C.3   411  0VS411      0.2050
      5  C28      -59.1150   36.8250   31.2860 C.3   411  0VS411      0.0350
      6  O01      -58.8470   39.1630   30.1710 O.2   411  0VS411     -0.2869
      7  C02      -57.8870   38.4140   29.9430 C.2   411  0VS411      0.1923
      8  C03      -56.7550   38.8820   29.0720 C.ar  411  0VS411      0.0417
      9  C04      -55.6710   37.9880   28.8400 C.ar  411  0VS411      0.0425
     10  C05      -55.6230   36.5960   29.4390 C.2   411  0VS411      0.2011
     11  C06      -56.7590   36.1070   30.3160 C.2   411  0VS411      0.0633
     12  S07      -56.5820   34.4770   31.1840 S.3   411  0VS411     -0.1088
     13  C08      -57.0400   32.8710   30.3850 C.3   411  0VS411      0.0880
     14  C09      -58.5140   32.8380   29.8340 C.3   411  0VS411      0.1536
     15  N10      -59.5100   32.5590   30.8840 N.am  411  0VS411     -0.2021
     16  C11      -60.7730   33.2350   30.8940 C.2   411  0VS411      0.2415
     17  C12      -62.0280   32.4840   31.3630 C.3   411  0VS411      0.0889
     18  C14      -64.5440   32.7360   31.0880 C.3   411  0VS411      0.1948
     19  O16      -65.2800   33.1010   33.4680 O.co2 411  0VS411     -0.2441
     20  O17      -63.9460   31.4310   32.9360 O.co2 411  0VS411     -0.2441
     21  N18      -64.8670   34.1290   30.7490 N.3   411  0VS411     -0.1208
     22  O19      -60.8590   34.4100   30.5170 O.2   411  0VS411     -0.2733
     23  N21      -57.7380   32.2480   27.5470 N.3   411  0VS411     -0.1758
     24  C23      -57.5120   33.3310   25.3440 C.2   411  0VS411      0.3823
     25  O24      -58.0740   34.1330   24.5600 O.co2 411  0VS411     -0.2440
     26  O25      -56.7460   32.3570   25.0390 O.co2 411  0VS411     -0.2440
     27  O26      -58.2280   30.7010   28.9570 O.3   411  0VS411     -0.2017
     28  C27      -57.8240   37.0310   30.5270 C.2   411  0VS411      0.0258
     29  O29      -54.6350   35.8870   29.1850 O.2   411  0VS411     -0.2861
     30  C30      -54.6150   38.4360   28.0250 C.ar  411  0VS411      0.0033
     31  C31      -54.6490   39.7310   27.4530 C.ar  411  0VS411      0.0001
     32  C32      -55.7130   40.6220   27.6790 C.ar  411  0VS411      0.0001
     33  C33      -56.7700   40.1870   28.4920 C.ar  411  0VS411      0.0033
@<TRIPOS>BOND
     1    25    24   ar
     2    26    24   ar
     3    24     4    1
     4     4    23    1
     5    31    32   ar
     6    31    30   ar
     7    23     3    1
     8    32    33   ar
     9    30     9   ar
    10    33     8   ar
    11     3    27    1
    12     3    14    1
    13     9     8   ar
    14     9    10    1
    15     8     7    1
    16    29    10    2
    17    10    11    1
    18    14    13    1
    19    14    15    1
    20     7     6    2
    21     7    28    1
    22    11    28    2
    23    11    12    1
    24     1    18    1
    25     1    17    1
    26    13    12    1
    27    22    16    2
    28    28     5    1
    29    21    18    1
    30    15    16   am
    31    16    17    1
    32    18     2    1
    33     2    20   ar
    34     2    19   ar
