@<TRIPOS>MOLECULE
4g0l_GSH_A_1.pdb
 20 19 0 0 0
SMALL
GASTEIGER

@<TRIPOS>ATOM
      1  N1       -65.5350   34.5080   32.4700 N.3   401  GSH401     -0.1208
      2  CA1      -64.5430   33.6370   33.0700 C.3   401  GSH401      0.1948
      3  C1       -65.0250   33.1830   34.4160 C.2   401  GSH401      0.3819
      4  O11      -65.2190   34.0070   35.3360 O.co2 401  GSH401     -0.2441
      5  O12      -65.2380   31.9700   34.6300 O.co2 401  GSH401     -0.2441
      6  CB1      -63.2310   34.3960   33.2310 C.3   401  GSH401      0.0402
      7  CG1      -62.0980   33.4530   33.6170 C.3   401  GSH401      0.0889
      8  CD1      -60.8610   33.7990   32.8220 C.2   401  GSH401      0.2418
      9  OE1      -60.8510   34.9190   31.9670 O.2   401  GSH401     -0.2733
     10  N2       -59.8120   32.9970   32.9790 N.am  401  GSH401     -0.1968
     11  CA2      -58.5460   33.2700   32.3270 C.3   401  GSH401      0.1843
     12  C2       -58.4950   32.6790   30.9500 C.2   401  GSH401      0.2627
     13  O2       -58.8770   31.3390   30.7310 O.2   401  GSH401     -0.2714
     14  CB2      -57.3990   32.7120   33.1620 C.3   401  GSH401      0.0997
     15  SG2      -56.7230   33.9320   34.3150 S.3   401  GSH401     -0.0797
     16  N3       -58.0780   33.4810   29.9750 N.am  401  GSH401     -0.1917
     17  CA3      -57.5820   32.9530   28.7190 C.3   401  GSH401      0.2285
     18  C3       -57.6380   33.9870   27.6200 C.2   401  GSH401      0.3865
     19  O31      -58.2330   35.0720   27.7990 O.co2 401  GSH401     -0.2437
     20  O32      -57.0910   33.7710   26.5170 O.co2 401  GSH401     -0.2437
@<TRIPOS>BOND
     1    20    18   ar
     2    18    19   ar
     3    18    17    1
     4    17    16    1
     5    16    12   am
     6    13    12    2
     7    12    11    1
     8     9     8    2
     9    11    10    1
    10    11    14    1
    11     1     2    1
    12     8    10   am
    13     8     7    1
    14     2     6    1
    15     2     3    1
    16    14    15    1
    17     6     7    1
    18     3     5   ar
    19     3     4   ar
