@<TRIPOS>MOLECULE
4g0p_U5P_A_1.pdb
 21 22 0 0 0
SMALL
GASTEIGER

@<TRIPOS>ATOM
      1  N1        28.6990   29.2940   37.7390 N.am  801  U5P801     -0.1766
      2  C2        28.3450   27.8800   37.5700 C.1   801  U5P801      0.2845
      3  N3        28.1870   27.3230   36.2050 N.2   801  U5P801     -0.2452
      4  C4        28.5410   28.1140   35.0440 C.1   801  U5P801      0.2182
      5  C5        28.8120   29.5920   35.1920 C.2   801  U5P801      0.1242
      6  C6        28.8820   30.1800   36.5800 C.2   801  U5P801      0.0929
      7  O2        28.1100   27.1920   38.5520 O.2   801  U5P801     -0.1918
      8  O4        28.5460   27.5870   33.9430 O.2   801  U5P801     -0.2085
      9  C1'       28.7280   29.9910   38.9830 C.3   801  U5P801      0.2401
     10  C2'       29.9400   30.7840   39.2230 C.3   801  U5P801      0.2319
     11  O2'       31.0760   30.0830   39.6360 O.3   801  U5P801     -0.2157
     12  C3'       29.4770   31.8720   40.1160 C.3   801  U5P801      0.2158
     13  C4'       28.0180   32.0320   39.8140 C.3   801  U5P801      0.1801
     14  O3'       30.1320   32.2800   41.3560 O.3   801  U5P801     -0.2175
     15  O4'       27.5820   30.8440   39.1720 O.3   801  U5P801     -0.3320
     16  C5'       27.3900   33.3410   39.4520 C.3   801  U5P801      0.1859
     17  O5'       26.0640   33.2460   39.0960 O.3   801  U5P801     -0.2675
     18  P         25.3660   34.3980   38.3100 P.3   801  U5P801      0.5327
     19  O1P       25.9180   35.7390   38.7160 O.3   801  U5P801     -0.1145
     20  O2P       25.6470   34.1770   36.8000 O.2   801  U5P801     -0.2224
     21  O3P       23.8370   34.3230   38.6030 O.3   801  U5P801     -0.1145
@<TRIPOS>BOND
     1     8     4    2
     2     4     5    1
     3     4     3    2
     4     5     6    2
     5     3     2    2
     6     6     1    1
     7    20    18    2
     8     2     1   am
     9     2     7    2
    10     1     9    1
    11    18    21    1
    12    18    19    1
    13    18    17    1
    14     9    15    1
    15     9    10    1
    16    17    16    1
    17    15    13    1
    18    10    11    1
    19    10    12    1
    20    16    13    1
    21    13    12    1
    22    12    14    1
