@<TRIPOS>MOLECULE
4g0q_C5P_A_1.pdb
 21 22 0 0 0
SMALL
GASTEIGER

@<TRIPOS>ATOM
      1  O3P       25.6290   34.4080   36.8730 O.2   801  C5P801     -0.2224
      2  P         25.4810   34.5760   38.4390 P.3   801  C5P801      0.5327
      3  O1P       23.9140   34.3530   38.6060 O.3   801  C5P801     -0.1145
      4  O2P       25.9140   35.9330   38.8440 O.3   801  C5P801     -0.1145
      5  O5'       26.2960   33.3810   39.1870 O.3   801  C5P801     -0.2675
      6  C5'       27.6120   33.5760   39.7320 C.3   801  C5P801      0.1859
      7  C4'       28.2010   32.1930   40.2080 C.3   801  C5P801      0.1801
      8  O4'       27.7720   31.0690   39.4110 O.3   801  C5P801     -0.3320
      9  C3'       29.7320   32.0450   40.5230 C.3   801  C5P801      0.2158
     10  O3'       30.2180   32.2160   41.7970 O.3   801  C5P801     -0.2175
     11  C2'       30.1890   30.9060   39.5380 C.3   801  C5P801      0.2319
     12  O2'       31.3570   30.2220   39.7860 O.3   801  C5P801     -0.2157
     13  C1'       28.8430   30.1550   39.1380 C.3   801  C5P801      0.2400
     14  N1        28.6180   29.4410   37.8430 N.am  801  C5P801     -0.1778
     15  C2        28.4810   28.0230   37.6600 C.1   801  C5P801      0.2756
     16  N3        28.3950   27.4610   36.3500 N.2   801  C5P801     -0.3024
     17  C4        28.5410   28.2170   35.2950 C.2   801  C5P801      0.2346
     18  C5        28.8200   29.6250   35.4060 C.2   801  C5P801      0.0687
     19  C6        28.8360   30.1830   36.6530 C.2   801  C5P801      0.0836
     20  O2        28.2610   27.3520   38.6620 O.2   801  C5P801     -0.1925
     21  N4        28.3620   27.6780   33.9620 N.pl3 801  C5P801     -0.0921
@<TRIPOS>BOND
     1    21    17    1
     2    17    18    1
     3    17    16    2
     4    18    19    2
     5    16    15    2
     6    19    14    1
     7     1     2    2
     8    15    14   am
     9    15    20    2
    10    14    13    1
    11     2     3    1
    12     2     4    1
    13     2     5    1
    14    13     8    1
    15    13    11    1
    16     5     6    1
    17     8     7    1
    18    11    12    1
    19    11     9    1
    20     6     7    1
    21     7     9    1
    22     9    10    1
