@<TRIPOS>MOLECULE
4g0r_DC_A_1.pdb
 19 20 0 0 0
SMALL
GASTEIGER

@<TRIPOS>ATOM
      1  P        -12.7700  -38.8610   79.6510 P.3   604  DC604       0.3942
      2  OP1      -14.0320  -39.5620   80.1430 O.3   604  DC604      -0.1425
      3  OP2      -13.0530  -37.6220   78.8080 O.3   604  DC604      -0.1425
      4  O5'      -11.9930  -38.3530   80.9940 O.3   604  DC604      -0.2926
      5  C5'      -11.2850  -37.0940   81.0240 C.3   604  DC604       0.1829
      6  C4'       -9.9440  -37.2840   81.6920 C.3   604  DC604       0.1773
      7  O4'       -9.2990  -36.0040   81.9140 O.3   604  DC604      -0.3339
      8  C3'      -10.0270  -37.9590   83.0630 C.3   604  DC604       0.1857
      9  O3'       -8.8960  -38.8060   83.2540 O.3   604  DC604      -0.2203
     10  C2'       -9.9040  -36.7920   84.0260 C.3   604  DC604       0.0874
     11  C1'       -8.9250  -35.9080   83.2810 C.3   604  DC604       0.2090
     12  N1        -8.9170  -34.4870   83.6740 N.am  604  DC604      -0.1802
     13  C2        -8.5070  -34.1560   84.9730 C.1   604  DC604       0.2756
     14  O2        -8.2010  -35.0690   85.7560 O.2   604  DC604      -0.1925
     15  N3        -8.4560  -32.8530   85.3420 N.2   604  DC604      -0.3024
     16  C4        -8.8010  -31.9000   84.4740 C.2   604  DC604       0.2346
     17  N4        -8.7250  -30.6290   84.8790 N.pl3 604  DC604      -0.0921
     18  C5        -9.2390  -32.2090   83.1500 C.2   604  DC604       0.0687
     19  C6        -9.2830  -33.5040   82.7960 C.2   604  DC604       0.0835
@<TRIPOS>BOND
     1     3     1    1
     2     1     2    1
     3     1     4    1
     4     4     5    1
     5     5     6    1
     6     6     7    1
     7     6     8    1
     8     7    11    1
     9    19    18    2
    10    19    12    1
    11     8     9    1
    12     8    10    1
    13    18    16    1
    14    11    12    1
    15    11    10    1
    16    12    13   am
    17    16    17    1
    18    16    15    2
    19    13    15    2
    20    13    14    2
