@<TRIPOS>MOLECULE
4g0y_AMP_A_1.pdb
 23 25 0 0 0
SMALL
GASTEIGER

@<TRIPOS>ATOM
      1  P         25.3280   34.5700   38.3120 P.3   801  AMP801      0.5327
      2  O1P       25.8450   36.0560   38.4480 O.3   801  AMP801     -0.1145
      3  O2P       25.6460   34.3310   36.7820 O.2   801  AMP801     -0.2224
      4  O3P       23.9120   34.3830   38.6580 O.3   801  AMP801     -0.1145
      5  O5'       26.3220   33.5580   39.0930 O.3   801  AMP801     -0.2675
      6  C5'       27.6890   33.7670   39.3790 C.3   801  AMP801      0.1860
      7  C4'       28.2630   32.4330   39.9400 C.3   801  AMP801      0.1823
      8  O4'       27.8490   31.2530   39.2630 O.3   801  AMP801     -0.3135
      9  C3'       29.8370   32.3810   39.9000 C.3   801  AMP801      0.2184
     10  O3'       30.3250   32.7200   41.1520 O.3   801  AMP801     -0.2174
     11  C2'       30.1860   30.9000   39.5070 C.3   801  AMP801      0.2570
     12  O2'       31.1770   30.2640   40.2220 O.3   801  AMP801     -0.2130
     13  C1'       28.7720   30.1960   39.5710 C.3   801  AMP801      0.3186
     14  N9        28.5650   29.1150   38.6100 N.pl3 801  AMP801     -0.1439
     15  C8        28.1400   27.7680   38.8110 C.3   801  AMP801      0.3377
     16  N7        28.0770   27.0540   37.6890 N.2   801  AMP801     -0.2095
     17  C5        28.4790   27.9420   36.6750 C.2   801  AMP801      0.2526
     18  C6        28.6140   27.7570   35.2710 C.2   801  AMP801      0.4393
     19  N6        28.3500   26.5670   34.6650 N.pl3 801  AMP801      0.2180
     20  N1        29.0320   28.8180   34.4950 N.2   801  AMP801      0.0021
     21  C2        29.2890   29.9910   35.1430 C.3   801  AMP801      0.5254
     22  N3        29.2050   30.3060   36.4660 N.2   801  AMP801     -0.0055
     23  C4        28.7860   29.2270   37.2140 C.2   801  AMP801      0.3518
@<TRIPOS>BOND
     1    20    21    1
     2    20    18    2
     3    19    18    1
     4    21    22    1
     5    18    17    1
     6    22    23    2
     7    17    23    1
     8    17    16    2
     9     3     1    2
    10    23    14    1
    11    16    15    1
    12     1     2    1
    13     1     4    1
    14     1     5    1
    15    14    15    1
    16    14    13    1
    17     5     6    1
    18     8    13    1
    19     8     7    1
    20     6     7    1
    21    11    13    1
    22    11     9    1
    23    11    12    1
    24     9     7    1
    25     9    10    1
