@<TRIPOS>MOLECULE
4g0z_5GP_A_1.pdb
 24 26 0 0 0
SMALL
GASTEIGER

@<TRIPOS>ATOM
      1  P         25.3970   34.6460   38.2740 P.3   801  5GP801      0.5327
      2  O1P       25.9450   35.9870   38.6840 O.3   801  5GP801     -0.1145
      3  O2P       25.6930   34.3060   36.8300 O.2   801  5GP801     -0.2224
      4  O3P       23.9740   34.3570   38.6910 O.3   801  5GP801     -0.1145
      5  O5'       26.2720   33.5790   39.1110 O.3   801  5GP801     -0.2675
      6  C5'       27.7030   33.5630   39.0420 C.3   801  5GP801      0.1859
      7  C4'       28.1960   32.4700   39.9940 C.3   801  5GP801      0.1801
      8  O4'       27.6480   31.2080   39.6170 O.3   801  5GP801     -0.3326
      9  C3'       29.7110   32.3040   40.0060 C.3   801  5GP801      0.2158
     10  O3'       30.2400   32.7950   41.2440 O.3   801  5GP801     -0.2175
     11  C2'       29.9570   30.8160   39.9510 C.3   801  5GP801      0.2310
     12  O2'       30.5730   30.4560   41.1850 O.3   801  5GP801     -0.2158
     13  C1'       28.5890   30.1610   39.8460 C.3   801  5GP801      0.2293
     14  N9        28.5250   29.1960   38.7200 N.pl3 801  5GP801     -0.2354
     15  C8        28.1670   27.9010   38.8190 C.3   801  5GP801      0.2246
     16  N7        28.1960   27.3410   37.5870 N.2   801  5GP801     -0.2322
     17  C5        28.5690   28.3010   36.7090 C.2   801  5GP801      0.2182
     18  C6        28.7640   28.3100   35.3350 C.1   801  5GP801      0.2372
     19  O6        28.5840   27.2550   34.6870 O.2   801  5GP801     -0.2069
     20  N1        29.1410   29.4480   34.7310 N.2   801  5GP801     -0.2485
     21  C2        29.3250   30.5760   35.4360 C.1   801  5GP801      0.2531
     22  N2        29.7040   31.7150   34.8030 N.pl3 801  5GP801     -0.0226
     23  N3        29.1440   30.5960   36.7780 N.2   801  5GP801     -0.3074
     24  C4        28.7640   29.4710   37.4300 C.2   801  5GP801      0.2300
@<TRIPOS>BOND
     1    19    18    2
     2    20    18    2
     3    20    21    2
     4    22    21    1
     5    18    17    1
     6    21    23    2
     7    17    24    1
     8    17    16    2
     9    23    24    2
    10     3     1    2
    11    24    14    1
    12    16    15    1
    13     1     2    1
    14     1     4    1
    15     1     5    1
    16    14    15    1
    17    14    13    1
    18     6     5    1
    19     6     7    1
    20     8    13    1
    21     8     7    1
    22    13    11    1
    23    11     9    1
    24    11    12    1
    25     7     9    1
    26     9    10    1
