@<TRIPOS>MOLECULE
4g11_0W7_A_1.pdb
 23 25 0 0 0
SMALL
GASTEIGER

@<TRIPOS>ATOM
      1  O17      -42.8510   16.4030  -34.5880 O.2   1201  0W71201    -0.2717
      2  C14      -43.6060   16.6460  -33.6580 C.2   1201  0W71201     0.2629
      3  N15      -44.9420   16.7010  -33.7450 N.am  1201  0W71201    -0.1782
      4  C16      -45.6640   16.4970  -34.9370 C.ar  1201  0W71201     0.0734
      5  C19      -47.0560   16.5830  -34.9220 C.ar  1201  0W71201     0.0166
      6  C20      -47.7790   16.3860  -36.1000 C.ar  1201  0W71201     0.0013
      7  C23      -45.0190   16.2100  -36.1420 C.ar  1201  0W71201     0.0166
      8  C22      -45.7420   16.0110  -37.3160 C.ar  1201  0W71201     0.0013
      9  C21      -47.1290   16.0960  -37.2970 C.ar  1201  0W71201     0.0001
     10  C13      -43.0170   16.8810  -32.2890 C.3   1201  0W71201     0.2123
     11  C2       -42.7580   15.5110  -31.7050 C.1   1201  0W71201     0.1361
     12  N3       -41.5020   14.9970  -31.6720 N.2   1201  0W71201    -0.2739
     13  C4       -41.2820   13.7630  -31.1530 C.1   1201  0W71201     0.1989
     14  O18      -40.1310   13.2810  -31.1180 O.2   1201  0W71201    -0.2129
     15  C5       -42.3450   13.0180  -30.6600 C.3   1201  0W71201     0.2107
     16  N1       -43.8050   14.7940  -31.2310 N.2   1201  0W71201    -0.3307
     17  C6       -43.6290   13.5590  -30.7010 C.2   1201  0W71201     0.1904
     18  N7       -44.7290   12.8190  -30.2100 N.pl3 1201  0W71201    -0.2802
     19  C8       -45.9620   13.6270  -30.2540 C.3   1201  0W71201     0.1250
     20  C12      -44.4670   12.3310  -28.8410 C.3   1201  0W71201     0.1250
     21  C11      -45.6660   11.5410  -28.3230 C.3   1201  0W71201     0.1636
     22  O10      -46.8460   12.3460  -28.3970 O.3   1201  0W71201    -0.3501
     23  C9       -47.1380   12.8160  -29.7160 C.3   1201  0W71201     0.1636
@<TRIPOS>BOND
     1     8     9   ar
     2     8     7   ar
     3     9     6   ar
     4     7     4   ar
     5     6     5   ar
     6     4     5   ar
     7     4     3    1
     8     1     2    2
     9     3     2   am
    10     2    10    1
    11    10    11    1
    12    11    12    2
    13    11    16    2
    14    12    13    2
    15    16    17    2
    16    13    14    2
    17    13    15    1
    18    17    15    1
    19    17    18    1
    20    19    18    1
    21    19    23    1
    22    18    20    1
    23    23    22    1
    24    20    21    1
    25    22    21    1
