@<TRIPOS>MOLECULE
4g19_GSH_A_1.pdb
 20 19 0 0 0
SMALL
GASTEIGER

@<TRIPOS>ATOM
      1  N1       -19.6490   55.1380  125.8500 N.3   302  GSH302     -0.1208
      2  CA1      -20.2940   55.5480  127.0850 C.3   302  GSH302      0.1948
      3  C1       -21.5580   54.7670  127.3050 C.2   302  GSH302      0.3819
      4  O11      -22.2800   54.4540  126.3220 O.co2 302  GSH302     -0.2441
      5  O12      -21.8940   54.4200  128.4660 O.co2 302  GSH302     -0.2441
      6  CB1      -20.6440   57.0240  126.9640 C.3   302  GSH302      0.0402
      7  CG1      -21.5910   57.4400  128.0820 C.3   302  GSH302      0.0889
      8  CD1      -21.5920   58.9540  128.1790 C.2   302  GSH302      0.2418
      9  OE1      -20.9560   59.7310  127.1890 O.2   302  GSH302     -0.2733
     10  N2       -22.2170   59.5130  129.2130 N.am  302  GSH302     -0.1968
     11  CA2      -22.0220   60.9320  129.4580 C.3   302  GSH302      0.1843
     12  C2       -20.8080   61.1830  130.3020 C.2   302  GSH302      0.2627
     13  O2       -20.6790   60.4800  131.5060 O.2   302  GSH302     -0.2714
     14  CB2      -23.2530   61.4490  130.1800 C.3   302  GSH302      0.0997
     15  SG2      -24.6200   61.7590  129.0360 S.3   302  GSH302     -0.0797
     16  N3       -19.8850   62.0690  129.9150 N.am  302  GSH302     -0.1917
     17  CA3      -18.9450   62.5010  130.9300 C.3   302  GSH302      0.2285
     18  C3       -18.1940   63.7570  130.5770 C.2   302  GSH302      0.3865
     19  O31      -17.1680   64.0780  131.2130 O.co2 302  GSH302     -0.2437
     20  O32      -18.5800   64.4830  129.6520 O.co2 302  GSH302     -0.2437
@<TRIPOS>BOND
     1     1     2    1
     2     4     3   ar
     3     6     2    1
     4     6     7    1
     5     2     3    1
     6     9     8    2
     7     3     5   ar
     8     7     8    1
     9     8    10   am
    10    15    14    1
    11    10    11    1
    12    11    14    1
    13    11    12    1
    14    20    18   ar
    15    16    12   am
    16    16    17    1
    17    12    13    2
    18    18    17    1
    19    18    19   ar
