@<TRIPOS>MOLECULE
4g1b_ECN_A_1.pdb
 24 26 0 0 0
SMALL
GASTEIGER

@<TRIPOS>ATOM
      1  C1        21.7960   27.2580   33.8920 C.ar  403  ECN403      0.0073
      2  C2        22.5410   28.0670   33.0370 C.ar  403  ECN403     -0.0010
      3 CL4        19.0720   30.1460   37.5910 Cl    403  ECN403     -0.0825
      4  C6        23.4920   28.1150   39.6990 C.ar  403  ECN403      0.1193
      5  C7        22.2110   28.4020   39.2780 C.ar  403  ECN403      0.0981
      6  C9        20.8850   26.0490   32.0450 C.ar  403  ECN403      0.0111
      7  C10       20.9770   26.2310   33.4230 C.ar  403  ECN403     -0.0010
      8  C11       21.6350   26.8760   31.2130 C.ar  403  ECN403      0.0577
      9 CL2        21.5850   26.6840   29.4790 Cl    403  ECN403     -0.0822
     10  C14       18.3900   28.8810   36.5080 C.ar  403  ECN403      0.0568
     11  C15       17.1480   29.0240   35.9320 C.ar  403  ECN403      0.0225
     12  C16       16.6490   28.0390   35.1010 C.ar  403  ECN403      0.0585
     13  C17       17.3560   26.8960   34.8290 C.ar  403  ECN403      0.0112
     14 CL8        15.0690   28.2790   34.3340 Cl    403  ECN403     -0.0822
     15  N19       23.7290   26.8000   39.4830 N.ar  403  ECN403     -0.2223
     16  C19       20.3230   27.0780   38.3230 C.3   403  ECN403      0.1416
     17  C20       20.3790   27.5700   36.9050 C.3   403  ECN403      0.1612
     18  O20       21.1410   26.6880   36.1180 O.3   403  ECN403     -0.3451
     19  C5        19.0730   27.7190   36.2860 C.ar  403  ECN403      0.0171
     20  N1        21.6900   27.2540   38.8310 N.ar  403  ECN403     -0.3050
     21  C3        22.6160   26.2730   38.9350 C.ar  403  ECN403      0.1787
     22  C8        21.9630   27.5390   35.3440 C.3   403  ECN403      0.1690
     23  C13       22.4720   27.8760   31.6670 C.ar  403  ECN403      0.0111
     24  C21       18.5780   26.7340   35.4490 C.ar  403  ECN403     -0.0002
@<TRIPOS>BOND
     1     9     8    1
     2     8    23   ar
     3     8     6   ar
     4    23     2   ar
     5     6     7   ar
     6     2     1   ar
     7     7     1   ar
     8     1    22    1
     9    14    12    1
    10    13    12   ar
    11    13    24   ar
    12    12    11   ar
    13    22    18    1
    14    24    19   ar
    15    11    10   ar
    16    18    17    1
    17    19    10   ar
    18    19    17    1
    19    10     3    1
    20    17    16    1
    21    16    20    1
    22    20    21   ar
    23    20     5   ar
    24    21    15   ar
    25     5     4   ar
    26    15     4   ar
