@<TRIPOS>MOLECULE
4g1b_HEM_A_1.pdb
 43 50 0 0 0
SMALL
GASTEIGER

@<TRIPOS>ATOM
      1  CHA       26.8520   28.5130   41.1250 C.2   401  HEM401      0.0000
      2  CHB       26.1490   28.2800   36.4240 C.2   401  HEM401      0.0000
      3  CHC       24.8890   23.5940   36.9430 C.2   401  HEM401      0.0000
      4  CHD       24.5890   24.2430   41.7220 C.2   401  HEM401      0.0000
      5  C1A       26.8010   28.8790   39.8330 C.ar  401  HEM401      0.0000
      6  C2A       27.1360   30.1720   39.2950 C.ar  401  HEM401      0.0000
      7  C3A       26.9290   30.1050   37.9680 C.ar  401  HEM401      0.0000
      8  C4A       26.4640   28.7630   37.6600 C.ar  401  HEM401      0.0000
      9  CMA       27.1580   31.2390   36.9410 C.3   401  HEM401      0.0000
     10  CAA       27.6420   31.3930   40.0970 C.3   401  HEM401      0.0000
     11  CBA       29.0860   31.1500   40.5380 C.3   401  HEM401      0.0000
     12  CGA       29.9080   32.4300   40.4700 C.2   401  HEM401      0.0000
     13  O1A       31.0860   32.4430   40.9310 O.co2 401  HEM401      0.0000
     14  O2A       29.3970   33.4700   39.9510 O.co2 401  HEM401      0.0000
     15  C1B       25.7530   26.9880   36.1910 C.2   401  HEM401      0.0000
     16  C2B       25.4570   26.4680   34.8610 C.2   401  HEM401      0.0000
     17  C3B       25.0960   25.1700   34.9970 C.2   401  HEM401      0.0000
     18  C4B       25.1650   24.8360   36.4200 C.2   401  HEM401      0.0000
     19  CMB       25.5430   27.2880   33.5590 C.3   401  HEM401      0.0000
     20  CAB       24.6640   24.1810   33.8930 C.2   401  HEM401      0.0000
     21  CBB       25.3550   24.1000   32.7670 C.2   401  HEM401      0.0000
     22  C1C       24.6400   23.3580   38.2580 C.ar  401  HEM401      0.0000
     23  C2C       24.0710   22.1650   38.8150 C.ar  401  HEM401      0.0000
     24  C3C       23.9670   22.3480   40.1260 C.ar  401  HEM401      0.0000
     25  C4C       24.4800   23.6580   40.4570 C.ar  401  HEM401      0.0000
     26  CMC       23.6670   20.9340   37.9940 C.3   401  HEM401      0.0000
     27  CAC       23.4150   21.3580   41.1420 C.2   401  HEM401      0.0000
     28  CBC       22.1420   21.0120   41.0210 C.2   401  HEM401      0.0000
     29  C1D       25.1700   25.4750   41.9950 C.2   401  HEM401      0.0000
     30  C2D       25.2780   26.0390   43.3090 C.2   401  HEM401      0.0000
     31  C3D       25.9620   27.3780   43.1130 C.2   401  HEM401      0.0000
     32  C4D       26.2150   27.4490   41.7000 C.2   401  HEM401      0.0000
     33  CMD       24.7660   25.4110   44.6100 C.3   401  HEM401      0.0000
     34  CAD       26.3120   28.4580   44.1550 C.3   401  HEM401      0.0000
     35  CBD       25.4410   28.3020   45.4000 C.3   401  HEM401      0.0000
     36  CGD       24.0550   28.8450   45.1940 C.2   401  HEM401      0.0000
     37  O1D       23.7180   29.2600   44.0230 O.co2 401  HEM401      0.0000
     38  O2D       23.3280   28.8560   46.2540 O.co2 401  HEM401      0.0000
     39  NA        26.4260   28.0400   38.8320 N.ar  401  HEM401      0.0000
     40  NB        25.5720   25.9540   37.1260 N.2   401  HEM401      0.0000
     41  NC        24.8970   24.2520   39.2730 N.ar  401  HEM401      0.0000
     42  ND        25.7540   26.3170   41.0710 N.2   401  HEM401      0.0000
     43 FE         25.6730   26.0830   39.0930 Fe    401  HEM401      0.0000
@<TRIPOS>BOND
     1    21    20    2
     2    19    16    1
     3    20    17    1
     4    16    17    2
     5    16    15    1
     6    17    18    1
     7    15     2    1
     8    15    40    2
     9    18     3    2
    10    18    40    1
    11     2     8    2
    12     9     7    1
    13     3    22    1
    14    40    43    1
    15     8     7   ar
    16     8    39   ar
    17     7     6   ar
    18    26    23    1
    19    22    23   ar
    20    22    41   ar
    21    23    24   ar
    22    39    43    1
    23    39     5   ar
    24    43    41    1
    25    43    42    1
    26    41    25   ar
    27     6     5   ar
    28     6    10    1
    29     5     1    2
    30    14    12   ar
    31    10    11    1
    32    24    25   ar
    33    24    27    1
    34    25     4    1
    35    12    11    1
    36    12    13   ar
    37    28    27    2
    38    42    32    2
    39    42    29    1
    40     1    32    1
    41    32    31    1
    42     4    29    2
    43    29    30    1
    44    31    30    2
    45    31    34    1
    46    30    33    1
    47    37    36   ar
    48    34    35    1
    49    36    35    1
    50    36    38   ar
