@<TRIPOS>MOLECULE
4g1c_III_D_1.pdb
 43 42 0 0 0
SMALL
GASTEIGER

@<TRIPOS>ATOM
      1  C         33.8150   21.8610   18.1190 C.2     0  ACE0        0.2423
      2  O         33.5870   21.8180   16.9070 O.2     0  ACE0       -0.2733
      3  CH3       34.4680   23.0680   18.7290 C.3     0  ACE0        0.0964
      4  N         33.6380   20.5390   18.5770 N.am    1  ALA1       -0.1978
      5  CA        32.4060   20.0030   18.0150 C.3     1  ALA1        0.1728
      6  C         31.2840   19.9960   19.0420 C.2     1  ALA1        0.2616
      7  O         31.3870   19.3930   20.1090 O.2     1  ALA1       -0.2715
      8  CB        32.6210   18.6260   17.4450 C.3     1  ALA1        0.0334
      9  N         30.2110   20.6760   18.6870 N.am    2  VAL2       -0.1963
     10  CA        29.0860   20.8610   19.5760 C.3     2  VAL2        0.1727
     11  C         28.0700   19.7420   19.4180 C.2     2  VAL2        0.2616
     12  O         27.7480   19.3660   18.3080 O.2     2  VAL2       -0.2715
     13  CB        28.4090   22.1920   19.2570 C.3     2  VAL2        0.0290
     14  CG1       27.2840   22.4420   20.2130 C.3     2  VAL2        0.0023
     15  CG2       29.4370   23.3170   19.3390 C.3     2  VAL2        0.0023
     16  C         25.2170   18.7970   20.0660 C.2     3  LYS3        0.2616
     17  N         27.5720   19.2110   20.5350 N.am    3  LYS3       -0.1963
     18  O         24.6950   19.7110   20.7400 O.2     3  LYS3       -0.2715
     19  CA        26.5170   18.1680   20.5070 C.3     3  LYS3        0.1728
     20  CB        26.3470   17.5330   21.8900 C.3     3  LYS3        0.0312
     21  CD        25.2250   15.7870   23.2560 C.3     3  LYS3        0.0235
     22  CE        24.4030   14.5080   23.2820 C.3     3  LYS3        0.1151
     23  CG        25.4520   16.2930   21.8350 C.3     3  LYS3        0.0041
     24  CK        23.6190   12.4680   26.3680 C.3     3  LYS3        0.0986
     25  CL        22.4410   13.1940   27.0060 C.3     3  LYS3        0.1237
     26  CP        21.5210   12.2600   27.7580 C.2     3  LYS3        0.3654
     27  CX        23.6080   12.9090   24.9250 C.2     3  LYS3        0.2419
     28  OX        23.0330   12.2550   24.0760 O.2     3  LYS3       -0.2733
     29  NZ        24.2200   14.0520   24.6460 N.am    3  LYS3       -0.2054
     30  OP1       21.3040   11.1130   27.3910 O.co2   3  LYS3       -0.2456
     31  OP2       20.9070   12.7210   28.8350 O.co2   3  LYS3       -0.2456
     32  N         24.6900   18.3260   18.9440 N.am    4  CYS4       -0.1954
     33  CA        23.4610   18.8850   18.4130 C.3     4  CYS4        0.1843
     34  C         22.5040   17.7900   17.9520 C.2     4  CYS4        0.2625
     35  O         22.9050   16.7500   17.4190 O.2     4  CYS4       -0.2714
     36  CB        23.7550   19.8490   17.2630 C.3     4  CYS4        0.0997
     37  SG        24.7290   21.3280   17.7180 S.3     4  CYS4       -0.0797
     38  N         21.2280   18.0320   18.1910 N.am    5  ALA5       -0.1963
     39  CA        20.1750   17.2310   17.5890 C.3     5  ALA5        0.1745
     40  C         19.5070   18.1190   16.5510 C.2     5  ALA5        0.2806
     41  O         19.4340   19.3460   16.7240 O.2     5  ALA5       -0.2698
     42  CB        19.1770   16.8180   18.6220 C.3     5  ALA5        0.0334
     43  N         19.0080   17.4760   15.4290 N.am    6  NH26       -0.0863
@<TRIPOS>BOND
     1    43    40   am
     2    40    41    2
     3    40    39    1
     4     2     1    2
     5    36    37    1
     6    36    33    1
     7    35    34    2
     8     8     5    1
     9    39    38    1
    10    39    42    1
    11    34    38   am
    12    34    33    1
    13     5     4    1
    14     5     6    1
    15     1     4   am
    16     1     3    1
    17    12    11    2
    18    33    32    1
    19     9     6   am
    20     9    10    1
    21    32    16   am
    22     6     7    2
    23    13    15    1
    24    13    10    1
    25    13    14    1
    26    11    10    1
    27    11    17   am
    28    16    19    1
    29    16    18    2
    30    19    17    1
    31    19    20    1
    32    23    20    1
    33    23    21    1
    34    21    22    1
    35    22    29    1
    36    28    27    2
    37    29    27   am
    38    27    24    1
    39    24    25    1
    40    25    26    1
    41    30    26   ar
    42    26    31   ar
