@<TRIPOS>MOLECULE
4g1c_CNA_A_1.pdb
 44 48 0 0 0
SMALL
GASTEIGER

@<TRIPOS>ATOM
      1  PA        19.5140    7.8540   19.1180 P.3   402  CNA402      0.2189
      2  O1A       20.0420    7.2080   20.4450 O.3   402  CNA402     -0.4371
      3  O2A       20.5230    8.3430   18.1370 O.2   402  CNA402     -0.5170
      4  O5B       18.3480    6.9850   18.3550 O.3   402  CNA402     -0.3112
      5  C5B       17.7910    5.7540   18.8040 C.3   402  CNA402      0.1813
      6  C4B       17.8450    4.7770   17.6280 C.3   402  CNA402      0.1821
      7  O4B       17.6930    3.4640   18.1970 O.3   402  CNA402     -0.3135
      8  C3B       16.6970    4.9970   16.5820 C.3   402  CNA402      0.2184
      9  O3B       17.2610    4.9200   15.2820 O.3   402  CNA402     -0.2174
     10  C2B       15.6970    3.8730   16.9480 C.3   402  CNA402      0.2570
     11  O2B       15.0440    3.4870   15.7400 O.3   402  CNA402     -0.2130
     12  C1B       16.7200    2.8170   17.3470 C.3   402  CNA402      0.3186
     13  N9A       16.3260    1.4440   17.8390 N.pl3 402  CNA402     -0.1439
     14  C8A       15.3850    1.3230   18.7800 C.3   402  CNA402      0.3377
     15  N7A       15.3230    0.0480   19.1650 N.2   402  CNA402     -0.2095
     16  C5A       16.2800   -0.6140   18.5220 C.2   402  CNA402      0.2526
     17  C6A       16.6380   -1.9040   18.5670 C.2   402  CNA402      0.4393
     18  N6A       15.9300   -2.7010   19.3730 N.pl3 402  CNA402      0.2180
     19  N1A       17.6580   -2.3710   17.8410 N.2   402  CNA402      0.0021
     20  C2A       18.3510   -1.4890   17.0100 C.3   402  CNA402      0.5254
     21  N3A       17.9670   -0.1400   16.9830 N.2   402  CNA402     -0.0055
     22  C4A       16.9470    0.2680   17.7580 C.2   402  CNA402      0.3518
     23  O3        18.6380    9.1270   19.5550 O.3   402  CNA402     -0.2703
     24  PN        17.5720    9.1970   20.7360 P.3   402  CNA402      0.2188
     25  O1N       16.5530   10.3140   20.1950 O.2   402  CNA402     -0.5170
     26  O2N       16.9020    7.9340   21.1660 O.3   402  CNA402     -0.4371
     27  O5D       18.3980    9.9290   21.9720 O.3   402  CNA402     -0.3138
     28  C5D       19.1340   11.1410   21.6840 C.3   402  CNA402      0.1517
     29  C4D       20.4710   11.2080   22.4620 C.3   402  CNA402      0.0648
     30  C4'       20.2370   10.8470   23.9390 C.3   402  CNA402      0.0276
     31  C3D       21.4670   10.1840   21.9240 C.3   402  CNA402      0.1862
     32  O3D       22.8550   10.5850   22.1920 O.3   402  CNA402     -0.2203
     33  C2D       21.1620    8.9810   22.7750 C.3   402  CNA402      0.2000
     34  O2D       22.2740    8.0700   22.6930 O.3   402  CNA402     -0.2186
     35  C1D       20.9950    9.5530   24.1860 C.3   402  CNA402      0.1061
     36  N1N       20.2420    8.5580   25.0220 N.pl3 402  CNA402     -0.3015
     37  C2N       20.9500    7.5240   25.6550 C.3   402  CNA402      0.1224
     38  C3N       20.2970    6.5600   26.4180 C.2   402  CNA402      0.0543
     39  C7N       21.0520    5.5560   27.0190 C.2   402  CNA402      0.2818
     40  O7N       22.1260    5.8100   27.5520 O.2   402  CNA402     -0.2670
     41  N7N       20.5420    4.3260   26.9430 N.am  402  CNA402     -0.0839
     42  C4N       18.9040    6.5940   26.5400 C.2   402  CNA402      0.0033
     43  C5N       18.1790    7.6060   25.9070 C.2   402  CNA402      0.0157
     44  C6N       18.8340    8.5830   25.1440 C.2   402  CNA402      0.0616
@<TRIPOS>BOND
     1     9     8    1
     2    11    10    1
     3     8    10    1
     4     8     6    1
     5    10    12    1
     6    21    20    1
     7    21    22    2
     8    20    19    1
     9    12    13    1
    10    12     7    1
    11     6     7    1
    12     6     5    1
    13    22    13    1
    14    22    16    1
    15    13    14    1
    16    19    17    2
    17     3     1    2
    18     4     5    1
    19     4     1    1
    20    16    17    1
    21    16    15    2
    22    17    18    1
    23    14    15    1
    24     1    23    1
    25     1     2    1
    26    23    24    1
    27    25    24    2
    28    24    26    1
    29    24    27    1
    30    28    27    1
    31    28    29    1
    32    31    32    1
    33    31    29    1
    34    31    33    1
    35    29    30    1
    36    34    33    1
    37    33    35    1
    38    30    35    1
    39    35    36    1
    40    36    44    1
    41    36    37    1
    42    44    43    2
    43    37    38    1
    44    43    42    1
    45    38    42    2
    46    38    39    1
    47    41    39   am
    48    39    40    2
