@<TRIPOS>MOLECULE
4g1d_0VK_A_1.pdb
 34 36 0 0 0
SMALL
GASTEIGER

@<TRIPOS>ATOM
      1  C1         2.3480   39.2370   37.7720 C.ar  501  0VK501     -0.0022
      2  C2         1.9960   40.5230   38.2890 C.ar  501  0VK501      0.0090
      3  C3         0.5290   40.7990   38.6810 C.ar  501  0VK501      0.0089
      4  C4        -0.4730   39.7020   38.5040 C.ar  501  0VK501     -0.0027
      5  C5        -0.0300   38.4020   37.9610 C.ar  501  0VK501      0.0209
      6  C6         1.4110   38.2400   37.6140 C.ar  501  0VK501     -0.0010
      7  C48        0.0610   42.1210   39.2350 C.3   501  0VK501      0.2084
      8  O49        0.3360   42.2050   40.6450 O.3   501  0VK501     -0.2152
      9  C52        3.1410   41.5080   38.3970 C.3   501  0VK501      0.2084
     10  O53        4.3930   40.9380   37.9450 O.3   501  0VK501     -0.2152
     11  C10       -0.1400   37.0320   38.8010 C.3   501  0VK501      0.2320
     12  O1        -0.1830   36.0280   37.6420 O.3   501  0VK501     -0.4706
     13  C14       -0.2120   34.6720   37.8580 C.ar  501  0VK501      0.1390
     14  C17        0.6760   33.9270   36.9340 C.ar  501  0VK501      0.0366
     15  C18        0.7700   32.4540   37.0710 C.ar  501  0VK501     -0.0012
     16  C19       -0.0230   31.7530   38.1320 C.ar  501  0VK501     -0.0217
     17  C20       -0.8870   32.5420   39.0140 C.ar  501  0VK501     -0.0011
     18  C21       -0.9770   33.9790   38.8760 C.ar  501  0VK501      0.0366
     19  C8         0.0530   30.1660   38.3260 C.3   501  0VK501      0.0310
     20  C7         1.6410   31.7860   36.1560 C.ar  501  0VK501     -0.0042
     21  C9         1.1220   31.3410   34.8490 C.ar  501  0VK501     -0.0006
     22  C11        3.1210   31.5210   36.5450 C.ar  501  0VK501     -0.0224
     23  C12        3.9360   30.8350   35.5990 C.ar  501  0VK501     -0.0062
     24  C13        1.9810   30.6540   33.9220 C.ar  501  0VK501     -0.0019
     25  C16        3.4480   30.3690   34.2780 C.ar  501  0VK501      0.0047
     26  C15        3.8290   31.9280   37.8840 C.3   501  0VK501      0.0263
     27  C22        3.6510   31.0820   39.0190 C.3   501  0VK501      0.0047
     28  C24        4.4550   29.6250   33.3550 C.3   501  0VK501      0.1453
     29  C25        5.4100   30.6120   32.5390 C.3   501  0VK501      0.0347
     30  C26        3.6460   28.6460   32.3790 C.3   501  0VK501      0.0347
     31  O2         5.2560   28.7720   34.2000 O.3   501  0VK501     -0.2212
     32  C28        4.4720   27.8180   31.3980 C.3   501  0VK501      0.0030
     33  C29        4.7490   31.6220   31.5710 C.3   501  0VK501      0.0030
     34  C23        4.4190   31.6610   40.2030 C.3   501  0VK501      0.0004
@<TRIPOS>BOND
     1    32    30    1
     2    33    29    1
     3    30    28    1
     4    29    28    1
     5    28    31    1
     6    28    25    1
     7    24    25   ar
     8    24    21   ar
     9    25    23   ar
    10    21    20   ar
    11    23    22   ar
    12    20    22   ar
    13    20    15    1
    14    22    26    1
    15    14    15   ar
    16    14    13   ar
    17    15    16   ar
    18     6     1   ar
    19     6     5   ar
    20    12    13    1
    21    12    11    1
    22     1     2   ar
    23    13    18   ar
    24    26    27    1
    25    10     9    1
    26     5     4   ar
    27     5    11    1
    28    16    19    1
    29    16    17   ar
    30     2     9    1
    31     2     3   ar
    32     4     3   ar
    33     3     7    1
    34    18    17   ar
    35    27    34    1
    36     7     8    1
