@<TRIPOS>MOLECULE
4g1e_MAN_A_1.pdb
 11 11 0 0 0
SMALL
GASTEIGER

@<TRIPOS>ATOM
      1  C1        10.0150  -20.5760    5.6180 C.3   2034  MAN2034     0.1777
      2  C2        11.5250  -20.7360    5.7620 C.3   2034  MAN2034     0.2141
      3  C3        11.8660  -21.4470    7.0640 C.3   2034  MAN2034     0.2173
      4  C4        11.1730  -20.7430    8.2240 C.3   2034  MAN2034     0.2142
      5  C5         9.6890  -20.5540    7.9190 C.3   2034  MAN2034     0.1810
      6  C6         8.9620  -19.8370    9.0520 C.3   2034  MAN2034     0.2141
      7  O2        12.1390  -19.4680    5.7290 O.3   2034  MAN2034    -0.2176
      8  O3        13.2610  -21.4210    7.2590 O.3   2034  MAN2034    -0.2175
      9  O4        11.3180  -21.5150    9.3950 O.3   2034  MAN2034    -0.2176
     10  O5         9.5420  -19.8280    6.7160 O.3   2034  MAN2034    -0.3481
     11  O6         9.4850  -18.5410    9.2380 O.3   2034  MAN2034    -0.2176
@<TRIPOS>BOND
     1     1     2    1
     2     1    10    1
     3     7     2    1
     4     2     3    1
     5    10     5    1
     6     3     8    1
     7     3     4    1
     8     5     4    1
     9     5     6    1
    10     4     9    1
    11     6    11    1
