@<TRIPOS>MOLECULE
4g1f_0WG_A_1.pdb
 24 26 0 0 0
SMALL
GASTEIGER

@<TRIPOS>ATOM
      1  C1        46.2790   -0.6950   13.4330 C.3   800  0WG800      0.1238
      2  N2        44.8760   -0.3800   13.1320 N.am  800  0WG800     -0.2189
      3  C3        44.2490    0.6510   13.8210 C.2   800  0WG800      0.1811
      4  N4        44.9040    1.3400   14.7430 N.2   800  0WG800     -0.3725
      5  C5        44.3330    2.3150   15.4360 C.2   800  0WG800      0.2175
      6  N6        45.0890    2.9910   16.3810 N.pl3 800  0WG800     -0.0934
      7  C7        42.9990    2.6660   15.2380 C.2   800  0WG800      0.0408
      8  C8        42.4020    3.7770   16.0670 C.3   800  0WG800      0.1393
      9  N9        41.8760    3.2090   17.3140 N.3   800  0WG800     -0.1261
     10  C10       42.2440    1.9790   14.2710 C.2   800  0WG800     -0.0041
     11  C11       40.8110    2.3300   14.0670 C.ar  800  0WG800      0.0030
     12  C12       40.4140    3.4020   13.2600 C.ar  800  0WG800      0.0002
     13  C13       39.0670    3.6890   13.1190 C.ar  800  0WG800      0.0000
     14  C14       38.1090    2.9250   13.7700 C.ar  800  0WG800      0.0005
     15  C15       38.4940    1.8650   14.5710 C.ar  800  0WG800      0.0067
     16  C16       39.8370    1.5650   14.7270 C.ar  800  0WG800      0.0343
     17 BR1        40.3520    0.1080   15.8240 Br    800  0WG800     -0.0490
     18  C18       42.8900    0.9410   13.5440 C.3   800  0WG800      0.1661
     19  C19       42.2150    0.1330   12.5130 C.2   800  0WG800      0.2443
     20  O20       41.0620    0.3580   12.2100 O.2   800  0WG800     -0.2736
     21  N21       42.9090   -0.8670   11.9020 N.am  800  0WG800     -0.2114
     22  C22       42.2450   -1.6920   10.8790 C.3   800  0WG800      0.1244
     23  C23       44.2000   -1.1120   12.2200 C.2   800  0WG800      0.3184
     24  O24       44.7910   -2.0130   11.6480 O.2   800  0WG800     -0.2515
@<TRIPOS>BOND
     1    22    21    1
     2    24    23    2
     3    21    23   am
     4    21    19   am
     5    20    19    2
     6    23     2   am
     7    19    18    1
     8    13    12   ar
     9    13    14   ar
    10     2     1    1
    11     2     3    1
    12    12    11   ar
    13    18     3    1
    14    18    10    1
    15    14    15   ar
    16     3     4    2
    17    11    10    1
    18    11    16   ar
    19    10     7    2
    20    15    16   ar
    21    16    17    1
    22     4     5    2
    23     7     5    1
    24     7     8    1
    25     5     6    1
    26     8     9    1
