@<TRIPOS>MOLECULE
4g1n_NZT_A_1.pdb
 34 38 0 0 0
SMALL
GASTEIGER

@<TRIPOS>ATOM
      1  CAI       -0.7690  -16.4540   45.3780 C.ar  603  NZT603      0.0218
      2  CAE       -0.9640  -16.1780   44.0380 C.ar  603  NZT603      0.0015
      3  CAO        0.0580  -16.3690   43.1110 C.ar  603  NZT603      0.0016
      4  CBD        1.2780  -16.8400   43.5660 C.ar  603  NZT603      0.0190
      5  CAN        2.3050  -17.0320   42.6470 C.ar  603  NZT603      0.0031
      6  CAD        3.5170  -17.5130   43.1090 C.ar  603  NZT603      0.0207
      7  CAF        3.6850  -17.7870   44.4740 C.ar  603  NZT603      0.0989
      8  NAW        2.6360  -17.5870   45.3860 N.ar  603  NZT603     -0.2425
      9  CBE        1.4690  -17.1210   44.9360 C.ar  603  NZT603      0.1002
     10  CBC        0.4470  -16.9220   45.8360 C.ar  603  NZT603      0.1445
     11  S1         0.6770  -17.3190   47.5500 S.O2  603  NZT603      0.0943
     12  OAB       -0.5730  -16.9650   48.3590 O.2   603  NZT603     -0.1483
     13  OAC        0.9110  -18.8060   47.5810 O.2   603  NZT603     -0.1483
     14  NAX        1.9860  -16.5380   48.2250 N.pl3 603  NZT603     -0.0965
     15  CAZ        1.9590  -15.2530   48.6560 C.ar  603  NZT603      0.0910
     16  CAJ        1.0850  -14.7970   49.6620 C.ar  603  NZT603      0.0182
     17  CAL        1.1310  -13.4640   50.1070 C.ar  603  NZT603      0.0059
     18  CAK        2.8960  -14.3650   48.1210 C.ar  603  NZT603      0.0182
     19  CAM        2.9430  -13.0380   48.5580 C.ar  603  NZT603      0.0059
     20  CBA        2.0520  -12.5630   49.5390 C.ar  603  NZT603      0.0537
     21  CAY        2.1480  -11.2050   49.9540 C.2   603  NZT603      0.2491
     22  OAA        2.5750  -10.9970   51.0930 O.2   603  NZT603     -0.2699
     23  NBF        1.8680  -10.1670   49.1010 N.am  603  NZT603     -0.2726
     24  CAQ        1.3330  -10.4480   47.7260 C.3   603  NZT603      0.1152
     25  CAS        0.1890   -9.4800   47.3740 C.3   603  NZT603      0.1137
     26  CAR        2.0570   -8.7340   49.5610 C.3   603  NZT603      0.1152
     27  CAT        1.1030   -7.6660   48.9290 C.3   603  NZT603      0.1137
     28  NBG        0.6970   -8.0770   47.5520 N.pl3 603  NZT603     -0.2885
     29  CBB        0.9040   -7.3730   46.4140 C.ar  603  NZT603      0.1512
     30  NAV       -0.1310   -7.2730   45.5530 N.ar  603  NZT603     -0.2259
     31  CAH        0.0100   -6.6400   44.3200 C.ar  603  NZT603      0.1210
     32  CAG        1.2390   -6.0970   43.9820 C.ar  603  NZT603      0.1196
     33  NAU        2.3460   -6.1690   44.8350 N.ar  603  NZT603     -0.2378
     34  CAP        2.1630   -6.8400   46.0670 C.ar  603  NZT603      0.1331
@<TRIPOS>BOND
     1     5     6   ar
     2     5     4   ar
     3     6     7   ar
     4     3     4   ar
     5     3     2   ar
     6     4     9   ar
     7    32    31   ar
     8    32    33   ar
     9     2     1   ar
    10    31    30   ar
    11     7     8   ar
    12    33    34   ar
    13     9     8   ar
    14     9    10   ar
    15     1    10   ar
    16    30    29   ar
    17    10    11    1
    18    34    29   ar
    19    29    28    1
    20    25    28    1
    21    25    24    1
    22    11    13    2
    23    11    14    1
    24    11    12    2
    25    28    27    1
    26    24    23    1
    27    18    19   ar
    28    18    15   ar
    29    14    15    1
    30    19    20   ar
    31    15    16   ar
    32    27    26    1
    33    23    26    1
    34    23    21   am
    35    20    21    1
    36    20    17   ar
    37    16    17   ar
    38    21    22    2
