@<TRIPOS>MOLECULE
4g1q_T27_A_1.pdb
 46 48 0 0 0
SMALL
GASTEIGER

@<TRIPOS>ATOM
      1  C1        49.2640  -24.8940   38.2600 C.ar  601  T27601     -0.0287
      2  N2        52.3030  -25.5890   33.3850 N.2   601  T27601     -0.3408
      3  C3        48.6710  -26.9060   39.4220 C.ar  601  T27601     -0.0418
      4  C4        49.9220  -27.3760   39.1880 C.ar  601  T27601     -0.0536
      5  C5        50.8680  -26.6400   38.5180 C.ar  601  T27601     -0.0287
      6  C6        50.5370  -25.4040   38.0430 C.ar  601  T27601      0.0388
      7  C7        48.9500  -23.5390   37.7410 C.3   601  T27601     -0.0379
      8  C2        48.3110  -25.6510   38.9500 C.ar  601  T27601     -0.0536
      9  C8        52.2280  -27.2300   38.3390 C.3   601  T27601     -0.0379
     10  N1        51.5430  -24.6640   37.3590 N.pl3 601  T27601     -0.2913
     11  C9        52.8320  -24.4830   33.8980 C.2   601  T27601      0.0820
     12  C10       52.5830  -24.1340   35.2270 C.3   601  T27601      0.0912
     13  C11       51.8340  -24.9830   36.0230 C.2   601  T27601      0.1758
     14  N3        51.3640  -26.1260   35.5000 N.2   601  T27601     -0.3172
     15  C12       51.6270  -26.3870   34.2190 C.1   601  T27601      0.2033
     16  N4        51.1260  -27.5410   33.6210 N.pl3 601  T27601     -0.2390
     17  C13       49.1750  -30.8700   35.2080 C.ar  601  T27601      0.0519
     18  C14       49.6080  -30.8310   33.9050 C.ar  601  T27601     -0.0426
     19  C15       50.2500  -29.7090   33.4460 C.ar  601  T27601     -0.0387
     20  C16       50.4500  -28.5980   34.2730 C.ar  601  T27601      0.0418
     21  C17       49.9900  -28.6280   35.5670 C.ar  601  T27601     -0.0387
     22  C18       49.3570  -29.7780   36.0180 C.ar  601  T27601     -0.0426
     23  N5        47.9930  -33.0400   36.1210 N.1   601  T27601     -0.1909
     24  C19       48.4990  -32.0840   35.7470 C.1   601  T27601      0.0992
     25  C20       46.7750  -27.3310   40.9140 C.3   601  T27601      0.0696
     26  C21       47.7740  -27.8400   40.1710 C.3   601  T27601      0.0090
     27  N6        45.3310  -28.9640   42.3680 N.1   601  T27601     -0.1962
     28  C22       45.9790  -28.2390   41.7800 C.1   601  T27601      0.0678
     29  H4        50.1650  -28.2520   39.5260 H     601  T27601      0.0624
     30  H7        49.7540  -23.1310   37.3730 H     601  T27601      0.0278
     31  H7A       48.5990  -22.9760   38.4550 H     601  T27601      0.0278
     32  H7B       48.2820  -23.6250   37.0390 H     601  T27601      0.0278
     33  H2        47.4180  -25.3030   39.0990 H     601  T27601      0.0624
     34  H8        52.7490  -26.6720   37.7340 H     601  T27601      0.0278
     35  H8A       52.1340  -28.1190   37.9550 H     601  T27601      0.0278
     36  H8B       52.6850  -27.2930   39.1970 H     601  T27601      0.0278
     37  HN1       51.9760  -23.9820   37.7720 H     601  T27601      0.1543
     38  H9        53.3460  -23.8850   33.3290 H     601  T27601      0.0939
     39  H10       52.9370  -23.3070   35.5880 H     601  T27601      0.0468
     40  HN4       51.0470  -27.5190   32.7140 H     601  T27601      0.1656
     41  H14       49.5000  -31.6030   33.3280 H     601  T27601      0.0631
     42  H15       50.5680  -29.6830   32.5310 H     601  T27601      0.0637
     43  H17       50.1210  -27.8710   36.1580 H     601  T27601      0.0637
     44  H18       49.0480  -29.8170   36.9360 H     601  T27601      0.0631
     45  H20       46.4920  -26.4140   40.7820 H     601  T27601      0.0473
     46  H21       48.0810  -28.7400   40.3550 H     601  T27601      0.0368
@<TRIPOS>BOND
     1    42    19    1
     2    40    16    1
     3    41    18    1
     4    38    11    1
     5     2    11    2
     6     2    15    2
     7    19    18   ar
     8    19    20   ar
     9    16    15    1
    10    16    20    1
    11    11    12    1
    12    18    17   ar
    13    15    14    2
    14    20    21   ar
    15    17    24    1
    16    17    22   ar
    17    12    39    1
    18    12    13    1
    19    14    13    2
    20    21    22   ar
    21    21    43    1
    22    24    23    3
    23    22    44    1
    24    13    10    1
    25    32     7    1
    26    10    37    1
    27    10     6    1
    28    30     7    1
    29    34     9    1
    30     7     1    1
    31     7    31    1
    32    35     9    1
    33     6     1   ar
    34     6     5   ar
    35     1     8   ar
    36     9     5    1
    37     9    36    1
    38     5     4   ar
    39     8    33    1
    40     8     3   ar
    41     4     3   ar
    42     4    29    1
    43     3    26    1
    44    26    46    1
    45    26    25    1
    46    45    25    1
    47    25    28    1
    48    28    27    3
