@<TRIPOS>MOLECULE
4g1v_HEM_A_1.pdb
 43 50 0 0 0
SMALL
GASTEIGER

@<TRIPOS>ATOM
      1  CHA        3.8960   38.2770   -2.4860 C.2   401  HEM401      0.0000
      2  CHB        3.8600   35.0340   -6.1270 C.2   401  HEM401      0.0000
      3  CHC        3.2920   38.5830   -9.4180 C.2   401  HEM401      0.0000
      4  CHD        4.5590   41.6730   -5.8850 C.2   401  HEM401      0.0000
      5  C1A        3.9110   37.0900   -3.1810 C.ar  401  HEM401      0.0000
      6  C2A        4.0200   35.7770   -2.5720 C.ar  401  HEM401      0.0000
      7  C3A        4.0180   34.8780   -3.5740 C.ar  401  HEM401      0.0000
      8  C4A        3.9080   35.5830   -4.8570 C.ar  401  HEM401      0.0000
      9  CMA        4.1490   33.3520   -3.4270 C.3   401  HEM401      0.0000
     10  CAA        4.1450   35.5440   -1.0430 C.3   401  HEM401      0.0000
     11  CBA        2.7280   35.4660   -0.4280 C.3   401  HEM401      0.0000
     12  CGA        2.6880   34.4650    0.7110 C.2   401  HEM401      0.0000
     13  O1A        1.9350   34.7040    1.7080 O.co2 401  HEM401      0.0000
     14  O2A        3.4250   33.4320    0.6290 O.co2 401  HEM401      0.0000
     15  C1B        3.6760   35.6930   -7.3410 C.2   401  HEM401      0.0000
     16  C2B        3.5500   35.0880   -8.6600 C.2   401  HEM401      0.0000
     17  C3B        3.3730   36.0570   -9.5680 C.2   401  HEM401      0.0000
     18  C4B        3.4010   37.3220   -8.8650 C.2   401  HEM401      0.0000
     19  CMB        3.5850   33.5650   -8.9540 C.3   401  HEM401      0.0000
     20  CAB        3.2220   35.9030  -11.1100 C.2   401  HEM401      0.0000
     21  CBB        2.5110   34.9410  -11.7250 C.2   401  HEM401      0.0000
     22  C1C        3.6950   39.7120   -8.7240 C.ar  401  HEM401      0.0000
     23  C2C        3.9520   40.9970   -9.3190 C.ar  401  HEM401      0.0000
     24  C3C        4.3280   41.8360   -8.3520 C.ar  401  HEM401      0.0000
     25  C4C        4.2730   41.1100   -7.0900 C.ar  401  HEM401      0.0000
     26  CMC        3.8030   41.2680  -10.8360 C.3   401  HEM401      0.0000
     27  CAC        4.7430   43.3280   -8.4580 C.2   401  HEM401      0.0000
     28  CBC        5.6570   43.6910   -9.3720 C.2   401  HEM401      0.0000
     29  C1D        4.4680   41.0810   -4.6430 C.2   401  HEM401      0.0000
     30  C2D        4.7060   41.7530   -3.3990 C.2   401  HEM401      0.0000
     31  C3D        4.5130   40.7010   -2.3350 C.2   401  HEM401      0.0000
     32  C4D        4.1760   39.4910   -3.0430 C.2   401  HEM401      0.0000
     33  CMD        5.0870   43.2240   -3.1920 C.3   401  HEM401      0.0000
     34  CAD        4.6840   40.9020   -0.8300 C.3   401  HEM401      0.0000
     35  CBD        6.1570   40.5440   -0.5900 C.3   401  HEM401      0.0000
     36  CGD        6.4540   40.4140    0.9020 C.2   401  HEM401      0.0000
     37  O1D        5.5010   40.3980    1.7180 O.co2 401  HEM401      0.0000
     38  O2D        7.6440   40.3310    1.3120 O.co2 401  HEM401      0.0000
     39  NA         3.8150   36.9470   -4.5730 N.ar  401  HEM401      0.0000
     40  NB         3.5860   37.0610   -7.5160 N.2   401  HEM401      0.0000
     41  NC         3.8950   39.8160   -7.3360 N.ar  401  HEM401      0.0000
     42  ND         4.1380   39.7640   -4.4060 N.2   401  HEM401      0.0000
     43 FE          3.8490   38.4090   -5.9640 Fe    401  HEM401      0.0000
@<TRIPOS>BOND
     1    21    20    2
     2    20    17    1
     3    26    23    1
     4    17    18    1
     5    17    16    2
     6     3    18    2
     7     3    22    1
     8    28    27    2
     9    23    22   ar
    10    23    24   ar
    11    19    16    1
    12    18    40    1
    13    22    41   ar
    14    16    15    1
    15    27    24    1
    16    24    25   ar
    17    40    15    2
    18    40    43    1
    19    15     2    1
    20    41    25   ar
    21    41    43    1
    22    25     4    1
    23     2     8    2
    24    43    39    1
    25    43    42    1
    26     4    29    2
    27     8    39   ar
    28     8     7   ar
    29    29    42    1
    30    29    30    1
    31    39     5   ar
    32    42    32    2
    33     7     9    1
    34     7     6   ar
    35    30    33    1
    36    30    31    2
    37     5     6   ar
    38     5     1    2
    39    32     1    1
    40    32    31    1
    41     6    10    1
    42    31    34    1
    43    10    11    1
    44    34    35    1
    45    35    36    1
    46    11    12    1
    47    14    12   ar
    48    12    13   ar
    49    36    38   ar
    50    36    37   ar
