@<TRIPOS>MOLECULE
4g1x_HEM_A_1.pdb
 43 50 0 0 0
SMALL
GASTEIGER

@<TRIPOS>ATOM
      1  CHA       -4.2610   23.8920    4.6250 C.2   401  HEM401      0.0000
      2  CHB       -3.6350   23.7390    9.4940 C.2   401  HEM401      0.0000
      3  CHC       -7.7580   26.2500   10.0740 C.2   401  HEM401      0.0000
      4  CHD       -8.6280   25.7240    5.3140 C.2   401  HEM401      0.0000
      5  C1A       -3.7070   23.7420    5.9280 C.2   401  HEM401      0.0000
      6  C2A       -2.3970   23.1170    6.1630 C.2   401  HEM401      0.0000
      7  C3A       -2.2400   22.9940    7.5380 C.2   401  HEM401      0.0000
      8  C4A       -3.4140   23.5920    8.1380 C.2   401  HEM401      0.0000
      9  CMA       -1.1300   22.3460    8.2240 C.3   401  HEM401      0.0000
     10  CAA       -1.4050   22.6710    5.0970 C.3   401  HEM401      0.0000
     11  CBA       -1.6610   21.2460    4.5600 C.3   401  HEM401      0.0000
     12  CGA       -0.5860   20.7800    3.6370 C.2   401  HEM401      0.0000
     13  O1A        0.2910   21.5430    3.2120 O.co2 401  HEM401      0.0000
     14  O2A       -0.5810   19.5020    3.3260 O.co2 401  HEM401      0.0000
     15  C1B       -4.7420   24.4020   10.0360 C.ar  401  HEM401      0.0000
     16  C2B       -4.8360   24.6530   11.4010 C.ar  401  HEM401      0.0000
     17  C3B       -6.0280   25.3690   11.5970 C.ar  401  HEM401      0.0000
     18  C4B       -6.5530   25.5120   10.2630 C.ar  401  HEM401      0.0000
     19  CMB       -3.9190   24.2090   12.4480 C.3   401  HEM401      0.0000
     20  CAB       -6.6570   25.8790   12.8270 C.2   401  HEM401      0.0000
     21  CBB       -6.0750   26.2620   13.9480 C.2   401  HEM401      0.0000
     22  C1C       -8.2620   26.3900    8.7760 C.2   401  HEM401      0.0000
     23  C2C       -9.5260   27.1010    8.5560 C.2   401  HEM401      0.0000
     24  C3C       -9.8610   26.8560    7.1970 C.2   401  HEM401      0.0000
     25  C4C       -8.7740   26.1320    6.6160 C.2   401  HEM401      0.0000
     26  CMC      -10.3590   27.9430    9.4690 C.3   401  HEM401      0.0000
     27  CAC      -11.0460   27.3970    6.4200 C.2   401  HEM401      0.0000
     28  CBC      -12.2340   27.9230    6.7930 C.2   401  HEM401      0.0000
     29  C1D       -7.5020   25.1670    4.6880 C.ar  401  HEM401      0.0000
     30  C2D       -7.4430   24.9080    3.2500 C.ar  401  HEM401      0.0000
     31  C3D       -6.1870   24.3900    3.0710 C.ar  401  HEM401      0.0000
     32  C4D       -5.5710   24.3370    4.3950 C.ar  401  HEM401      0.0000
     33  CMD       -8.5070   25.1700    2.2330 C.3   401  HEM401      0.0000
     34  CAD       -5.5730   23.8780    1.7740 C.3   401  HEM401      0.0000
     35  CBD       -4.6740   24.8790    1.1230 C.3   401  HEM401      0.0000
     36  CGD       -3.9890   24.3250   -0.1340 C.2   401  HEM401      0.0000
     37  O1D       -3.3950   25.2610   -0.6830 O.co2 401  HEM401      0.0000
     38  O2D       -4.0270   23.1360   -0.4820 O.co2 401  HEM401      0.0000
     39  NA        -4.3600   24.0250    7.1670 N.2   401  HEM401      0.0000
     40  NB        -5.7870   24.8650    9.3500 N.ar  401  HEM401      0.0000
     41  NC        -7.8240   25.7840    7.6420 N.2   401  HEM401      0.0000
     42  ND        -6.3570   24.8590    5.3270 N.ar  401  HEM401      0.0000
     43 FE         -6.0250   25.0000    7.3390 Fe    401  HEM401      0.0000
@<TRIPOS>BOND
     1    37    36   ar
     2    38    36   ar
     3    36    35    1
     4    35    34    1
     5    34    31    1
     6    33    30    1
     7    31    30   ar
     8    31    32   ar
     9    13    12   ar
    10    30    29   ar
    11    14    12   ar
    12    12    11    1
    13    32     1    2
    14    32    42   ar
    15    11    10    1
    16     1     5    1
    17    29     4    2
    18    29    42   ar
    19    10     6    1
    20     4    25    1
    21    42    43    1
    22     5     6    1
    23     5    39    2
    24     6     7    2
    25    27    28    2
    26    27    24    1
    27    25    24    1
    28    25    41    2
    29    39    43    1
    30    39     8    1
    31    24    23    2
    32    43    41    1
    33    43    40    1
    34     7     8    1
    35     7     9    1
    36    41    22    1
    37     8     2    2
    38    23    22    1
    39    23    26    1
    40    22     3    2
    41    40    15   ar
    42    40    18   ar
    43     2    15    1
    44    15    16   ar
    45     3    18    1
    46    18    17   ar
    47    16    17   ar
    48    16    19    1
    49    17    20    1
    50    20    21    2
