@<TRIPOS>MOLECULE
4g1x_TQU_A_1.pdb
 16 18 0 0 0
SMALL
GASTEIGER

@<TRIPOS>ATOM
      1  CAO       -6.6480   20.8520    4.3350 C.ar  409  TQU409      0.0153
      2  CAH       -7.2520   21.8160    5.1340 C.3   409  TQU409      0.0734
      3  CAL       -6.7630   22.0610    6.4120 C.2   409  TQU409      0.0673
      4  NAA       -7.3380   22.9840    7.1780 N.pl3 409  TQU409     -0.1327
      5  CAD       -5.6730   21.3420    6.8880 C.2   409  TQU409     -0.0058
      6  CAF       -5.0710   20.3780    6.0880 C.3   409  TQU409      0.0725
      7  CAN       -5.5590   20.1310    4.8100 C.ar  409  TQU409      0.0612
      8  NAJ       -4.9750   19.1990    4.0400 N.ar  409  TQU409     -0.2480
      9  CAB       -5.4120   18.9400    2.8190 C.ar  409  TQU409      0.1000
     10  CAC       -6.4980   19.6270    2.2900 C.ar  409  TQU409      0.0395
     11  CAM       -7.1260   20.5980    3.0580 C.ar  409  TQU409      0.0837
     12  NAP       -8.1670   21.2720    2.5780 N.ar  409  TQU409     -0.2081
     13  CAG       -8.3360   21.7450    1.3470 C.ar  409  TQU409      0.2016
     14  NAI       -9.5190   22.3460    1.3230 N.ar  409  TQU409     -0.2004
     15  CAE      -10.0270   22.2170    2.5430 C.ar  409  TQU409      0.2214
     16  NAK       -9.1450   21.5420    3.2780 N.ar  409  TQU409     -0.1409
@<TRIPOS>BOND
     1    14    13   ar
     2    14    15   ar
     3    13    12   ar
     4    10     9   ar
     5    10    11   ar
     6    15    16   ar
     7    12    11    1
     8    12    16   ar
     9     9     8   ar
    10    11     1   ar
    11     8     7   ar
    12     1     7   ar
    13     1     2    1
    14     7     6    1
    15     2     3    1
    16     6     5    1
    17     3     5    2
    18     3     4    1
