@<TRIPOS>MOLECULE
4g1y_0VO_A_1.pdb
 30 31 0 0 0
SMALL
GASTEIGER

@<TRIPOS>ATOM
      1  C1         2.4390   37.5410   37.9750 C.ar  501  0VO501     -0.0022
      2  C5         0.1260   36.5070   38.0810 C.ar  501  0VO501      0.0209
      3  C6         1.5900   36.4540   37.8170 C.ar  501  0VO501     -0.0010
      4  C7         2.8440   30.1100   37.7740 C.3   501  0VO501      0.0224
      5  C9         3.4400   30.1000   39.1370 C.3   501  0VO501      0.0044
      6  C10        0.0450   35.1700   38.9980 C.3   501  0VO501      0.2320
      7  C11        3.7440   29.7270   36.5530 C.3   501  0VO501      0.0044
      8  C12        3.1620   29.1090   35.4190 C.3   501  0VO501      0.0029
      9  C16        3.5910   29.3850   34.0360 C.3   501  0VO501      0.0304
     10  C18        1.4460   30.5160   37.5490 C.ar  501  0VO501     -0.0195
     11  C19        0.6190   29.8180   38.5920 C.ar  501  0VO501     -0.0041
     12  C24        4.6890   28.4990   33.3670 C.3   501  0VO501      0.1266
     13  C25        5.8880   29.3550   32.7710 C.3   501  0VO501      0.0304
     14  C2         1.9560   38.8210   38.4110 C.ar  501  0VO501      0.0090
     15  C3         0.4560   38.9830   38.7130 C.ar  501  0VO501      0.0089
     16  C4        -0.4440   37.7940   38.5370 C.ar  501  0VO501     -0.0027
     17  C48       -0.1440   40.2800   39.1790 C.3   501  0VO501      0.2084
     18  O49        0.2130   40.5350   40.5530 O.3   501  0VO501     -0.2152
     19  C52        3.0100   39.9190   38.5360 C.3   501  0VO501      0.2084
     20  O53        4.3460   39.4550   38.1820 O.3   501  0VO501     -0.2152
     21  O1         0.2530   34.0970   37.9270 O.3   501  0VO501     -0.4707
     22  C14        0.3030   32.7390   38.2040 C.ar  501  0VO501      0.1387
     23  C17        1.2840   31.9920   37.3590 C.ar  501  0VO501      0.0326
     24  C20       -0.3330   30.6050   39.4000 C.ar  501  0VO501      0.0028
     25  C21       -0.4850   32.0400   39.2050 C.ar  501  0VO501      0.0369
     26  C26        4.0300   27.6080   32.2270 C.3   501  0VO501      0.0304
     27  O2         5.2170   27.5910   34.3590 O.3   501  0VO501     -0.2257
     28  C28        3.2190   26.4050   32.6950 C.3   501  0VO501      0.0026
     29  C29        5.5840   30.2240   31.5230 C.3   501  0VO501      0.0026
     30  C8         3.8110   28.6660   39.5600 C.3   501  0VO501      0.0003
@<TRIPOS>BOND
     1    29    13    1
     2    26    28    1
     3    26    12    1
     4    13    12    1
     5    12     9    1
     6    12    27    1
     7     9     8    1
     8     8     7    1
     9     7     4    1
    10    23    10   ar
    11    23    22   ar
    12    10     4    1
    13    10    11   ar
    14     4     5    1
    15     3     1   ar
    16     3     2   ar
    17    21    22    1
    18    21     6    1
    19     1    14   ar
    20     2    16   ar
    21     2     6    1
    22    20    19    1
    23    22    25   ar
    24    14    19    1
    25    14    15   ar
    26    16    15   ar
    27    11    24   ar
    28    15    17    1
    29     5    30    1
    30    17    18    1
    31    25    24   ar
