@<TRIPOS>MOLECULE
4g1z_0VP_A_1.pdb
 35 37 0 0 0
SMALL
GASTEIGER

@<TRIPOS>ATOM
      1  O1        -0.3730   35.9630   37.4440 O.3   501  0VP501     -0.4706
      2  O2         5.2530   28.6680   34.2170 O.3   501  0VP501     -0.2212
      3  C9         1.0390   31.1470   34.6230 C.ar  501  0VP501     -0.0006
      4  C10       -0.3810   36.9370   38.6510 C.3   501  0VP501      0.2320
      5  C11        2.9790   31.5330   36.3510 C.ar  501  0VP501     -0.0224
      6  C12        3.8560   30.8300   35.4760 C.ar  501  0VP501     -0.0062
      7  C13        1.9590   30.4470   33.7660 C.ar  501  0VP501     -0.0019
      8  C14       -0.4380   34.5830   37.5830 C.ar  501  0VP501      0.1390
      9  C15        3.6250   32.0630   37.6760 C.3   501  0VP501      0.0263
     10  C16        3.4270   30.2560   34.1750 C.ar  501  0VP501      0.0047
     11  C17        0.5150   33.8520   36.6910 C.ar  501  0VP501      0.0366
     12  C18        0.5650   32.3670   36.7660 C.ar  501  0VP501     -0.0013
     13  C19       -0.3340   31.6370   37.7300 C.ar  501  0VP501     -0.0220
     14  C20       -1.2510   32.4150   38.5730 C.ar  501  0VP501     -0.0012
     15  C21       -1.2980   33.8580   38.4980 C.ar  501  0VP501      0.0366
     16  C22        3.2890   31.1590   38.8490 C.3   501  0VP501      0.0047
     17  C23        3.9350   31.7310   40.1050 C.3   501  0VP501      0.0004
     18  C24        4.4960   29.5040   33.3270 C.3   501  0VP501      0.1453
     19  C25        5.4860   30.4920   32.5540 C.3   501  0VP501      0.0347
     20  C26        3.7600   28.4970   32.3240 C.3   501  0VP501      0.0347
     21  C27       -1.1180   29.2700   36.8430 C.3   501  0VP501      0.0050
     22  C28        4.6630   27.6580   31.4220 C.3   501  0VP501      0.0030
     23  C29        4.8600   31.4930   31.5420 C.3   501  0VP501      0.0030
     24  C1         2.2050   39.1200   37.7030 C.ar  501  0VP501     -0.0022
     25  C2         1.8850   40.4100   38.2260 C.ar  501  0VP501      0.0090
     26  C3         0.4220   40.7230   38.6070 C.ar  501  0VP501      0.0089
     27  C4        -0.6190   39.6490   38.4100 C.ar  501  0VP501     -0.0027
     28  C5        -0.2050   38.3400   37.8550 C.ar  501  0VP501      0.0209
     29  C6         1.2380   38.1470   37.5250 C.ar  501  0VP501     -0.0010
     30  C48       -0.0040   42.0600   39.1690 C.3   501  0VP501      0.2084
     31  O49        0.2760   42.1390   40.5890 O.3   501  0VP501     -0.2152
     32  C52        3.0600   41.3700   38.3550 C.3   501  0VP501      0.2084
     33  O53        4.3100   40.7800   37.9110 O.3   501  0VP501     -0.2152
     34  C8        -0.3140   30.0320   37.8740 C.3   501  0VP501      0.0264
     35  C7         1.4940   31.6960   35.9090 C.ar  501  0VP501     -0.0042
@<TRIPOS>BOND
     1    22    20    1
     2    23    19    1
     3    20    18    1
     4    19    18    1
     5    18    10    1
     6    18     2    1
     7     7    10   ar
     8     7     3   ar
     9    10     6   ar
    10     3    35   ar
    11     6     5   ar
    12    35     5   ar
    13    35    12    1
    14     5     9    1
    15    11    12   ar
    16    11     8   ar
    17    12    13   ar
    18    21    34    1
    19     1     8    1
    20     1     4    1
    21    29    24   ar
    22    29    28   ar
    23     8    15   ar
    24     9    16    1
    25    24    25   ar
    26    13    34    1
    27    13    14   ar
    28    28    27   ar
    29    28     4    1
    30    33    32    1
    31    25    32    1
    32    25    26   ar
    33    27    26   ar
    34    15    14   ar
    35    26    30    1
    36    16    17    1
    37    30    31    1
