@<TRIPOS>MOLECULE
4g20_484_A_1.pdb
 34 36 0 0 0
SMALL
GASTEIGER

@<TRIPOS>ATOM
      1  C1         2.2600   39.2490   37.7600 C.ar  501  484501     -0.0023
      2  C2         1.8250   40.5020   38.3000 C.ar  501  484501      0.0090
      3  C3         0.3380   40.6770   38.6900 C.ar  501  484501      0.0087
      4  C4        -0.5980   39.5080   38.4850 C.ar  501  484501     -0.0062
      5  C5        -0.0660   38.2410   37.9160 C.ar  501  484501     -0.0221
      6  C6         1.3880   38.1930   37.5750 C.ar  501  484501     -0.0045
      7  C48       -0.2180   41.9640   39.2640 C.3   501  484501      0.2084
      8  O49        0.4550   42.3380   40.4850 O.3   501  484501     -0.2152
      9  C52        2.9200   41.5550   38.4310 C.3   501  484501      0.2084
     10  O53        4.2150   41.0620   37.9730 O.3   501  484501     -0.2152
     11  C10       -0.0700   36.8360   38.7240 C.3   501  484501      0.0310
     12  C27       -0.3060   35.8240   37.5740 C.3   501  484501      0.0310
     13  C14       -0.3050   34.4660   37.8140 C.ar  501  484501     -0.0219
     14  C17        0.5670   33.7130   36.8690 C.ar  501  484501     -0.0046
     15  C18        0.6980   32.2350   37.0340 C.ar  501  484501     -0.0046
     16  C19       -0.0440   31.5430   38.1420 C.ar  501  484501     -0.0219
     17  C20       -0.8940   32.3410   39.0390 C.ar  501  484501     -0.0046
     18  C21       -1.0190   33.7770   38.8740 C.ar  501  484501     -0.0046
     19  C8         0.0690   29.9620   38.3790 C.3   501  484501      0.0310
     20  C7         1.5590   31.5700   36.0990 C.ar  501  484501     -0.0043
     21  C9         0.9930   30.9120   34.9020 C.ar  501  484501     -0.0006
     22  C11        3.0960   31.5400   36.3530 C.ar  501  484501     -0.0224
     23  C12        3.9100   30.8580   35.4060 C.ar  501  484501     -0.0062
     24  C13        1.8580   30.2330   33.9640 C.ar  501  484501     -0.0019
     25  C16        3.3800   30.1820   34.1980 C.ar  501  484501      0.0047
     26  C15        3.8700   32.1850   37.5520 C.3   501  484501      0.0263
     27  C24        4.4150   29.4740   33.2700 C.3   501  484501      0.1453
     28  C25        5.3840   30.4920   32.5090 C.3   501  484501      0.0347
     29  C26        3.6450   28.5230   32.2420 C.3   501  484501      0.0347
     30  O2         5.2060   28.6040   34.1100 O.3   501  484501     -0.2212
     31  C28        4.5180   27.7390   31.2650 C.3   501  484501      0.0030
     32  C29        4.7380   31.5210   31.5530 C.3   501  484501      0.0030
     33  C22        3.7670   31.3400   38.8100 C.3   501  484501      0.0047
     34  C23        4.5420   32.0470   39.9140 C.3   501  484501      0.0004
@<TRIPOS>BOND
     1    31    29    1
     2    32    28    1
     3    29    27    1
     4    28    27    1
     5    27    30    1
     6    27    25    1
     7    24    25   ar
     8    24    21   ar
     9    25    23   ar
    10    21    20   ar
    11    23    22   ar
    12    20    22   ar
    13    20    15    1
    14    22    26    1
    15    14    15   ar
    16    14    13   ar
    17    15    16   ar
    18    26    33    1
    19    12    13    1
    20    12    11    1
    21     6     1   ar
    22     6     5   ar
    23     1     2   ar
    24    13    18   ar
    25     5     4   ar
    26     5    11    1
    27    10     9    1
    28    16    19    1
    29    16    17   ar
    30     2     9    1
    31     2     3   ar
    32     4     3   ar
    33     3     7    1
    34    33    34    1
    35    18    17   ar
    36     7     8    1
