@<TRIPOS>MOLECULE
4g21_0VP_A_1.pdb
 34 36 0 0 0
SMALL
GASTEIGER

@<TRIPOS>ATOM
      1  O1         0.2500   35.3870   37.6050 O.3   501  0VP501     -0.4706
      2  O2         5.7040   28.2020   34.0560 O.3   501  0VP501     -0.2212
      3  C9         1.4880   30.6030   34.6680 C.ar  501  0VP501     -0.0006
      4  C10        0.1300   36.3790   38.7460 C.3   501  0VP501      0.2320
      5  C11        3.4530   30.9270   36.3430 C.ar  501  0VP501     -0.0224
      6  C12        4.3070   30.2630   35.4190 C.ar  501  0VP501     -0.0062
      7  C13        2.3880   29.9370   33.7630 C.ar  501  0VP501     -0.0019
      8  C14        0.1470   33.9980   37.7330 C.ar  501  0VP501      0.1390
      9  C15        4.1170   31.4090   37.6720 C.3   501  0VP501      0.0264
     10  C16        3.8480   29.7410   34.1220 C.ar  501  0VP501      0.0047
     11  C17        1.0470   33.2390   36.8260 C.ar  501  0VP501      0.0366
     12  C18        1.0480   31.7550   36.8790 C.ar  501  0VP501     -0.0013
     13  C19        0.1490   31.0630   37.8390 C.ar  501  0VP501     -0.0220
     14  C20       -0.7210   31.8490   38.7060 C.ar  501  0VP501     -0.0012
     15  C21       -0.7230   33.2910   38.6550 C.ar  501  0VP501      0.0366
     16  C22        3.8650   30.6200   38.8610 C.3   501  0VP501      0.0050
     17  C24        4.8810   29.0180   33.2030 C.3   501  0VP501      0.1453
     18  C25        4.1250   28.0300   32.2100 C.3   501  0VP501      0.0347
     19  C26        5.8170   30.0100   32.4060 C.3   501  0VP501      0.0347
     20  C27       -0.6180   28.7600   36.8330 C.3   501  0VP501      0.0050
     21  C28        5.1130   30.9880   31.4330 C.3   501  0VP501      0.0030
     22  C29        5.0090   27.2330   31.2460 C.3   501  0VP501      0.0030
     23  C1         2.7290   38.7190   37.9150 C.ar  501  0VP501     -0.0022
     24  C2         2.2880   39.9810   38.4220 C.ar  501  0VP501      0.0090
     25  C3         0.8040   40.1870   38.7130 C.ar  501  0VP501      0.0089
     26  C4        -0.1330   39.0570   38.4540 C.ar  501  0VP501     -0.0027
     27  C5         0.3800   37.7840   37.9250 C.ar  501  0VP501      0.0209
     28  C6         1.8370   37.6770   37.6770 C.ar  501  0VP501     -0.0010
     29  C48        0.2420   41.4900   39.2510 C.3   501  0VP501      0.2084
     30  O49        0.5820   41.6660   40.6340 O.3   501  0VP501     -0.2152
     31  C52        3.3730   41.0270   38.6300 C.3   501  0VP501      0.2084
     32  O53        4.6090   40.6530   37.9760 O.3   501  0VP501     -0.2152
     33  C8         0.1200   29.4760   37.9530 C.3   501  0VP501      0.0264
     34  C7         1.9670   31.1070   35.9600 C.ar  501  0VP501     -0.0042
@<TRIPOS>BOND
     1    22    18    1
     2    21    19    1
     3    18    17    1
     4    19    17    1
     5    17     2    1
     6    17    10    1
     7     7    10   ar
     8     7     3   ar
     9    10     6   ar
    10     3    34   ar
    11     6     5   ar
    12    34     5   ar
    13    34    12    1
    14     5     9    1
    15    11    12   ar
    16    11     8   ar
    17    20    33    1
    18    12    13   ar
    19     1     8    1
    20     1     4    1
    21     9    16    1
    22    28    23   ar
    23    28    27   ar
    24     8    15   ar
    25    13    33    1
    26    13    14   ar
    27    23    24   ar
    28    27    26   ar
    29    27     4    1
    30    32    31    1
    31    24    31    1
    32    24    25   ar
    33    26    25   ar
    34    15    14   ar
    35    25    29    1
    36    29    30    1
