@<TRIPOS>MOLECULE
4g27_PHU_R_1.pdb
 14 14 0 0 0
SMALL
GASTEIGER

@<TRIPOS>ATOM
      1  C1        36.2130   52.5100   49.5320 C.2   1006  PHU1006     0.3013
      2  C2        34.7770   50.8660   50.7240 C.ar  1006  PHU1006     0.0437
      3  C3        33.7050   51.7240   50.9290 C.ar  1006  PHU1006     0.0141
      4  C4        34.7950   49.6250   51.3470 C.ar  1006  PHU1006    -0.0315
      5  C5        33.7460   49.2530   52.1710 C.ar  1006  PHU1006    -0.0071
      6  C6        32.6590   51.3370   51.7520 C.ar  1006  PHU1006     0.0012
      7  C7        32.6810   50.1050   52.3730 C.ar  1006  PHU1006    -0.0005
      8  N1        35.8990   51.2510   49.9550 N.am  1006  PHU1006    -0.2690
      9  N2        37.3660   52.6120   48.8740 N.am  1006  PHU1006    -0.3131
     10  O1        35.4750   53.4790   49.7520 O.2   1006  PHU1006    -0.2527
     11  H4        35.6190   48.9270   51.2050 H     1006  PHU1006     0.0642
     12  HN1       36.5000   50.4670   49.7220 H     1006  PHU1006     0.1564
     13  HN2       37.6560   53.5230   48.5330 H     1006  PHU1006     0.1465
     14 HN2A       38.0060   51.8510   48.6710 H     1006  PHU1006     0.1465
@<TRIPOS>BOND
     1    13     9    1
     2    14     9    1
     3     9     1   am
     4     1    10    2
     5     1     8   am
     6    12     8    1
     7     8     2    1
     8     2     3   ar
     9     2     4   ar
    10     3     6   ar
    11    11     4    1
    12     4     5   ar
    13     6     7   ar
    14     5     7   ar
