@<TRIPOS>MOLECULE
4g28_0W8_R_1.pdb
 18 19 0 0 0
SMALL
GASTEIGER

@<TRIPOS>ATOM
      1  O         34.9510   54.5610   50.0780 O.2   1006  0W81006    -0.2465
      2  C8        34.7180   53.3740   50.2300 C.ar  1006  0W81006     0.3276
      3  N         33.6950   52.8330   51.0560 N.ar  1006  0W81006    -0.2918
      4  C1        32.7400   53.5430   51.9200 C.3   1006  0W81006     0.0253
      5  C         33.2830   53.6440   53.3330 C.3   1006  0W81006    -0.0469
      6  N1        35.3920   52.3080   49.7030 N.ar  1006  0W81006    -0.3054
      7  C7        34.8600   51.1200   50.1650 C.ar  1006  0W81006     0.0761
      8  C2        33.7930   51.4400   50.9980 C.ar  1006  0W81006     0.0786
      9  C6        35.2430   49.7970   49.9850 C.ar  1006  0W81006     0.0186
     10  C5        34.5340   48.8100   50.6550 C.ar  1006  0W81006     0.0016
     11  C4        33.4620   49.1340   51.4800 C.ar  1006  0W81006     0.0016
     12  C3        33.0740   50.4560   51.6590 C.ar  1006  0W81006     0.0187
     13  H3        32.5460   54.5250   51.4930 H     1006  0W81006     0.0491
     14  H4        31.7970   52.9980   51.8960 H     1006  0W81006     0.0491
     15  H2        34.2230   54.1920   53.3790 H     1006  0W81006     0.0247
     16  H         33.4690   52.6720   53.7880 H     1006  0W81006     0.0247
     17  H1        32.5830   54.1670   53.9830 H     1006  0W81006     0.0247
     18  H9        36.1750   52.3810   49.0610 H     1006  0W81006     0.1705
@<TRIPOS>BOND
     1    18     6    1
     2     6     7   ar
     3     6     2   ar
     4     9     7   ar
     5     9    10   ar
     6     1     2    2
     7     7     8   ar
     8     2     3   ar
     9    10    11   ar
    10     8     3   ar
    11     8    12   ar
    12     3     4    1
    13    11    12   ar
    14    13     4    1
    15    14     4    1
    16     4     5    1
    17     5    15    1
    18     5    16    1
    19     5    17    1
